#    Name: 5zlg_1_ASC_CAVITY_N1_4
#    Modification time : Fri May 22 19:28:27 2020

@<TRIPOS>MOLECULE
5zlg_1_ASC_CAVITY_N1_4
   27     0     5     0     0
SMALL
NO_CHARGES


@<TRIPOS>ATOM
      1 OG         13.8400   13.3300   15.7500 O.3       1 SER1        0.0000 
      2 OG         14.4000   14.7000   15.9900 O.3       1 SER1        0.0000 
      3 OG         13.4300   15.2600   14.9900 O.3       1 SER1        0.0000 
      4 OG         13.9800   16.6400   15.2300 O.3       1 SER1        0.0000 
      5 OD1        15.8600   12.9000   13.5800 O.co2     2 ASP3        0.0000 
      6 OD1        17.4300   14.0600   12.7300 O.co2     2 ASP3        0.0000 
      7 OD1        16.4600   14.6200   11.7200 O.co2     2 ASP3        0.0000 
      8 OD1        17.0100   15.9900   11.9600 O.co2     2 ASP3        0.0000 
      9 OD1        16.0000   16.2100   13.0500 O.co2     2 ASP3        0.0000 
     10 OD1        14.9900   16.4200   14.1400 O.co2     2 ASP3        0.0000 
     11 NZ         15.5500   17.8000   14.3800 N.4       3 LYS4        0.0000 
     12 NZ         14.5400   18.0100   15.4700 N.4       3 LYS4        0.0000 
     13 CZ         16.8300   12.3400   14.5800 C.ar      4 PHE5        0.0000 
     14 CZ         14.8500   13.1100   14.6600 C.ar      4 PHE5        0.0000 
     15 CZ         16.4200   14.2700   13.8200 C.ar      4 PHE5        0.0000 
     16 CZ         15.4100   14.4900   14.9000 C.ar      4 PHE5        0.0000 
     17 CZ         12.0100   17.4100   15.3100 C.ar      4 PHE5        0.0000 
     18 CZ         17.5700   17.3700   12.2000 C.ar      4 PHE5        0.0000 
     19 CZ         17.5200   17.0200   14.3000 C.ar      4 PHE5        0.0000 
     20 CZ         16.5600   17.5800   13.2900 C.ar      4 PHE5        0.0000 
     21 CZ         14.5800   18.3600   13.3700 C.ar      4 PHE5        0.0000 
     22 CZ         13.5700   18.5700   14.4600 C.ar      4 PHE5        0.0000 
     23 CZ         18.1200   18.7400   12.4400 C.ar      4 PHE5        0.0000 
     24 CZ         17.1100   18.9500   13.5300 C.ar      4 PHE5        0.0000 
     25 CA         15.3100   11.5200   13.3400 C.3       5 GLY6        0.0000 
     26 CA         17.9800   15.4300   12.9700 C.3       5 GLY6        0.0000 
     27 CA         18.5300   16.8000   13.2100 C.3       5 GLY6        0.0000 
@<TRIPOS>BOND
@<TRIPOS>SUBSTRUCTURE
     1 SER1        1 GROUP   
     2 ASP3        5 GROUP   
     3 LYS4       11 GROUP   
     4 PHE5       13 GROUP   
     5 GLY6       25 GROUP   
@<TRIPOS>SET

