#    Name: 5zlg_2_ASC
#    Modification time : Fri May 22 19:28:29 2020

@<TRIPOS>MOLECULE
5zlg_2_ASC
   12    12     1     0     0
SMALL
NO_CHARGES


@<TRIPOS>ATOM
      1 C1          8.2020   56.3710    9.0810 C.2       1 ASC405      0.0000 
      2 C2          9.4890   56.7120    8.5150 C.2       1 ASC405      0.0000 
      3 C3         10.3910   56.6570    9.4860 C.2       1 ASC405      0.0000 
      4 C4          9.7300   56.4240   10.8280 C.3       1 ASC405      0.0000 
      5 C5         10.0300   57.4730   11.8980 C.3       1 ASC405      0.0000 
      6 C6          9.0730   57.2770   13.0700 C.3       1 ASC405      0.0000 
      7 O1          7.1820   56.0940    8.4570 O.2       1 ASC405      0.0000 
      8 O2          9.7080   57.0580    7.2510 O.3       1 ASC405      0.0000 
      9 O3         11.7020   56.7540    9.2890 O.co2     1 ASC405      0.0000 
     10 O4          8.3130   56.3890   10.5340 O.3       1 ASC405      0.0000 
     11 O5          9.8670   58.7950   11.3750 O.3       1 ASC405      0.0000 
     12 O6          9.1620   58.3780   13.9790 O.3       1 ASC405      0.0000 
@<TRIPOS>BOND
     1    1    2 1    
     2    1    7 2    
     3    1   10 1    
     4    2    3 2    
     5    2    8 1    
     6    3    4 1    
     7    3    9 ar   
     8    4    5 1    
     9    4   10 1    
    10    5    6 1    
    11    5   11 1    
    12    6   12 1    
@<TRIPOS>SUBSTRUCTURE
     1 ASC405      1 GROUP   
@<TRIPOS>SET

