#    Name: 5zlg_1_ASC
#    Modification time : Fri May 22 19:28:26 2020

@<TRIPOS>MOLECULE
5zlg_1_ASC
   12    12     1     0     0
SMALL
NO_CHARGES


@<TRIPOS>ATOM
      1 C1         16.3490   14.7230   12.6200 C.2       1 ASC404      0.0000 
      2 C2         15.3080   14.3740   13.5620 C.2       1 ASC404      0.0000 
      3 C3         15.7190   13.3110   14.2290 C.2       1 ASC404      0.0000 
      4 C4         17.1150   12.9120   13.8500 C.3       1 ASC404      0.0000 
      5 C5         17.0260   11.5010   13.2790 C.3       1 ASC404      0.0000 
      6 C6         18.3640   10.9940   12.7150 C.3       1 ASC404      0.0000 
      7 O1         16.2620   15.5890   11.7520 O.2       1 ASC404      0.0000 
      8 O2         14.1510   15.0010   13.7280 O.3       1 ASC404      0.0000 
      9 O3         14.9850   12.6340   15.1080 O.co2     1 ASC404      0.0000 
     10 O4         17.5200   13.8700   12.8520 O.3       1 ASC404      0.0000 
     11 O5         15.9860   11.4970   12.2840 O.3       1 ASC404      0.0000 
     12 O6         18.2940    9.6000   12.3590 O.3       1 ASC404      0.0000 
@<TRIPOS>BOND
     1    1    2 1    
     2    1    7 2    
     3    1   10 1    
     4    2    3 2    
     5    2    8 1    
     6    3    4 1    
     7    3    9 ar   
     8    4    5 1    
     9    4   10 1    
    10    5    6 1    
    11    5   11 1    
    12    6   12 1    
@<TRIPOS>SUBSTRUCTURE
     1 ASC404      1 GROUP   
@<TRIPOS>SET

