#    Name: 5zlg_2_ASC_CAVITY_N1_4
#    Modification time : Fri May 22 19:28:30 2020

@<TRIPOS>MOLECULE
5zlg_2_ASC_CAVITY_N1_4
   86     0     7     0     0
SMALL
NO_CHARGES


@<TRIPOS>ATOM
      1 OG         12.0400   53.0100    8.2900 O.3       1 SER1        0.0000 
      2 N           9.1000   56.6200   13.1200 N.am      2 ALA2        0.0000 
      3 N           6.7100   59.3300   12.4400 N.am      2 ALA2        0.0000 
      4 O          12.8200   60.6600    9.5700 O.2       2 ALA2        0.0000 
      5 OD1        13.5500   53.8200    9.5300 O.co2     3 ASP3        0.0000 
      6 OD1        11.5800   54.6000    9.6200 O.co2     3 ASP3        0.0000 
      7 OD1         8.6400   55.9300    8.7000 O.co2     3 ASP3        0.0000 
      8 OD1         7.6800   56.4900    7.6900 O.co2     3 ASP3        0.0000 
      9 OD1         6.6700   56.7100    8.7800 O.co2     3 ASP3        0.0000 
     10 OD1        14.1000   55.1900    9.7700 O.co2     3 ASP3        0.0000 
     11 OD1        12.1300   55.9700    9.8600 O.co2     3 ASP3        0.0000 
     12 OD1        11.1700   56.5300    8.8500 O.co2     3 ASP3        0.0000 
     13 OD1         9.1900   57.3100    8.9300 O.co2     3 ASP3        0.0000 
     14 OD1         8.2300   57.8700    7.9300 O.co2     3 ASP3        0.0000 
     15 OD1         7.2700   58.4300    6.9300 O.co2     3 ASP3        0.0000 
     16 OD1         6.3100   58.9900    5.9200 O.co2     3 ASP3        0.0000 
     17 OD1         7.2200   58.0800    9.0200 O.co2     3 ASP3        0.0000 
     18 OD1         6.2600   58.6500    8.0100 O.co2     3 ASP3        0.0000 
     19 OD1         5.3000   59.2100    7.0100 O.co2     3 ASP3        0.0000 
     20 OD1         5.2500   58.8600    9.1000 O.co2     3 ASP3        0.0000 
     21 OD1        15.6600   56.3500    8.9300 O.co2     3 ASP3        0.0000 
     22 OD1        14.6500   56.5700   10.0100 O.co2     3 ASP3        0.0000 
     23 OD1        13.6400   56.7800   11.1000 O.co2     3 ASP3        0.0000 
     24 OD1        12.6800   57.3500   10.1000 O.co2     3 ASP3        0.0000 
     25 OD1        11.7200   57.9100    9.0900 O.co2     3 ASP3        0.0000 
     26 OD1        15.2000   57.9400   10.2500 O.co2     3 ASP3        0.0000 
     27 OD1        14.2400   58.5000    9.2500 O.co2     3 ASP3        0.0000 
     28 OD1        13.2800   59.0700    8.2400 O.co2     3 ASP3        0.0000 
     29 OD1        14.1900   58.1600   11.3400 O.co2     3 ASP3        0.0000 
     30 NZ         10.7500   58.4700    8.0900 N.4       4 LYS4        0.0000 
     31 NZ          9.7900   59.0300    7.0800 N.4       4 LYS4        0.0000 
     32 NZ         11.3000   59.8400    8.3300 N.4       4 LYS4        0.0000 
     33 NZ         10.3400   60.4000    7.3200 N.4       4 LYS4        0.0000 
     34 CZ          8.0900   54.5600    8.4600 C.ar      5 PHE5        0.0000 
     35 CZ          9.6000   55.3700    9.7000 C.ar      5 PHE5        0.0000 
     36 CZ          8.5900   55.5900   10.7900 C.ar      5 PHE5        0.0000 
     37 CZ          7.6300   56.1500    9.7800 C.ar      5 PHE5        0.0000 
     38 CA         11.0300   53.2200    9.3800 C.3       6 GLY6        0.0000 
     39 CA         10.0600   53.7800    8.3700 C.3       6 GLY6        0.0000 
     40 CA         10.0200   53.4400   10.4600 C.3       6 GLY6        0.0000 
     41 CA         12.5400   54.0400   10.6200 C.3       6 GLY6        0.0000 
     42 CA         10.6100   55.1600    8.6100 C.3       6 GLY6        0.0000 
     43 CA         10.5700   54.8100   10.7000 C.3       6 GLY6        0.0000 
     44 CA          9.5600   55.0300   11.7900 C.3       6 GLY6        0.0000 
     45 CA         14.0500   54.8500   11.8700 C.3       6 GLY6        0.0000 
     46 CA         13.0900   55.4100   10.8600 C.3       6 GLY6        0.0000 
     47 CA         10.2000   57.0900    7.8500 C.3       6 GLY6        0.0000 
     48 CA         11.1200   56.1900   10.9400 C.3       6 GLY6        0.0000 
     49 CA         10.1100   56.4000   12.0300 C.3       6 GLY6        0.0000 
     50 CA          8.1800   57.5200   10.0200 C.3       6 GLY6        0.0000 
     51 CA          8.1300   57.1800   12.1100 C.3       6 GLY6        0.0000 
     52 CA          7.1700   57.7400   11.1100 C.3       6 GLY6        0.0000 
     53 CA          6.2100   58.3000   10.1100 C.3       6 GLY6        0.0000 
     54 CA         13.5900   56.4400   13.1900 C.3       6 GLY6        0.0000 
     55 CA         12.6300   57.0000   12.1900 C.3       6 GLY6        0.0000 
     56 CA         12.5800   56.6500   14.2800 C.3       6 GLY6        0.0000 
     57 CA         11.6200   57.2100   13.2800 C.3       6 GLY6        0.0000 
     58 CA          6.8100   60.0200    8.2500 C.3       6 GLY6        0.0000 
     59 CA         10.6100   57.4300   14.3600 C.3       6 GLY6        0.0000 
     60 CA          7.7200   59.1100   11.3500 C.3       6 GLY6        0.0000 
     61 CA          6.7600   59.6700   10.3500 C.3       6 GLY6        0.0000 
     62 CA          8.6400   58.2100   14.4500 C.3       6 GLY6        0.0000 
     63 CA          7.6800   58.7700   13.4400 C.3       6 GLY6        0.0000 
     64 CA         13.1800   58.3700   12.4300 C.3       6 GLY6        0.0000 
     65 CA         12.7700   60.3100   11.6600 C.3       6 GLY6        0.0000 
     66 CA         11.8100   60.8700   10.6600 C.3       6 GLY6        0.0000 
     67 DU         10.1500   56.7500    9.9400 H         7 CUB7        0.0000 
     68 DU          9.1400   56.9600   11.0300 H         7 CUB7        0.0000 
     69 DU         11.6700   57.5600   11.1800 H         7 CUB7        0.0000 
     70 DU         10.7100   58.1200   10.1800 H         7 CUB7        0.0000 
     71 DU          9.7400   58.6800    9.1700 H         7 CUB7        0.0000 
     72 DU          8.7800   59.2400    8.1700 H         7 CUB7        0.0000 
     73 DU          7.8200   59.8000    7.1700 H         7 CUB7        0.0000 
     74 DU         10.6600   57.7800   12.2700 H         7 CUB7        0.0000 
     75 DU          8.7300   58.9000   10.2600 H         7 CUB7        0.0000 
     76 DU          7.7700   59.4600    9.2600 H         7 CUB7        0.0000 
     77 DU          9.6500   57.9900   13.3600 H         7 CUB7        0.0000 
     78 DU          8.6900   58.5500   12.3500 H         7 CUB7        0.0000 
     79 DU         13.2300   58.7200   10.3400 H         7 CUB7        0.0000 
     80 DU         12.2700   59.2800    9.3300 H         7 CUB7        0.0000 
     81 DU         12.2200   58.9300   11.4200 H         7 CUB7        0.0000 
     82 DU         11.2600   59.5000   10.4200 H         7 CUB7        0.0000 
     83 DU         10.2900   60.0600    9.4100 H         7 CUB7        0.0000 
     84 DU         11.2100   59.1500   12.5100 H         7 CUB7        0.0000 
     85 DU         11.1600   58.8000   14.6000 H         7 CUB7        0.0000 
     86 DU          8.2300   60.1400   13.6800 H         7 CUB7        0.0000 
@<TRIPOS>BOND
@<TRIPOS>SUBSTRUCTURE
     1 SER1        1 GROUP   
     2 ALA2        2 GROUP   
     3 ASP3        5 GROUP   
     4 LYS4       30 GROUP   
     5 PHE5       34 GROUP   
     6 GLY6       38 GROUP   
     7 CUB7       67 GROUP   
@<TRIPOS>SET

