#    Name: 5zlg_1_ASC_CAVITY_N1_6
#    Modification time : Fri May 22 19:28:27 2020

@<TRIPOS>MOLECULE
5zlg_1_ASC_CAVITY_N1_6
   46     0     6     0     0
SMALL
NO_CHARGES


@<TRIPOS>ATOM
      1 OG         13.8400   13.3300   15.7500 O.3       1 SER1        0.0000 
      2 OG         14.4000   14.7000   15.9900 O.3       1 SER1        0.0000 
      3 OG         13.4300   15.2600   14.9900 O.3       1 SER1        0.0000 
      4 OG         13.9800   16.6400   15.2300 O.3       1 SER1        0.0000 
      5 OG         13.5200   18.2300   16.5500 O.3       1 SER1        0.0000 
      6 OG         11.5500   19.0000   16.6400 O.3       1 SER1        0.0000 
      7 OG         15.6900   21.1100   13.8500 O.3       1 SER1        0.0000 
      8 O          18.0700   18.3900   14.5400 O.2       2 ALA2        0.0000 
      9 N          18.6200   19.7700   14.7800 N.am      2 ALA2        0.0000 
     10 N          17.6600   20.3300   13.7700 N.am      2 ALA2        0.0000 
     11 OD1        15.8600   12.9000   13.5800 O.co2     3 ASP3        0.0000 
     12 OD1        17.4300   14.0600   12.7300 O.co2     3 ASP3        0.0000 
     13 OD1        16.4600   14.6200   11.7200 O.co2     3 ASP3        0.0000 
     14 OD1        17.0100   15.9900   11.9600 O.co2     3 ASP3        0.0000 
     15 OD1        16.0000   16.2100   13.0500 O.co2     3 ASP3        0.0000 
     16 OD1        14.9900   16.4200   14.1400 O.co2     3 ASP3        0.0000 
     17 NZ         15.5500   17.8000   14.3800 N.4       4 LYS4        0.0000 
     18 NZ         14.5400   18.0100   15.4700 N.4       4 LYS4        0.0000 
     19 NZ         16.1000   19.1700   14.6200 N.4       4 LYS4        0.0000 
     20 NZ         14.1200   19.9500   14.7000 N.4       4 LYS4        0.0000 
     21 NZ         13.1100   20.1600   15.7900 N.4       4 LYS4        0.0000 
     22 CZ         16.8300   12.3400   14.5800 C.ar      5 PHE5        0.0000 
     23 CZ         14.8500   13.1100   14.6600 C.ar      5 PHE5        0.0000 
     24 CZ         16.4200   14.2700   13.8200 C.ar      5 PHE5        0.0000 
     25 CZ         15.4100   14.4900   14.9000 C.ar      5 PHE5        0.0000 
     26 CZ         12.0100   17.4100   15.3100 C.ar      5 PHE5        0.0000 
     27 CZ         10.0400   18.1900   15.3900 C.ar      5 PHE5        0.0000 
     28 CZ         17.5700   17.3700   12.2000 C.ar      5 PHE5        0.0000 
     29 CZ         17.5200   17.0200   14.3000 C.ar      5 PHE5        0.0000 
     30 CZ         16.5600   17.5800   13.2900 C.ar      5 PHE5        0.0000 
     31 CZ         14.5800   18.3600   13.3700 C.ar      5 PHE5        0.0000 
     32 CZ         13.5700   18.5700   14.4600 C.ar      5 PHE5        0.0000 
     33 CZ         12.5600   18.7900   15.5500 C.ar      5 PHE5        0.0000 
     34 CZ         11.6000   19.3500   14.5500 C.ar      5 PHE5        0.0000 
     35 CZ         18.1200   18.7400   12.4400 C.ar      5 PHE5        0.0000 
     36 CZ         17.1100   18.9500   13.5300 C.ar      5 PHE5        0.0000 
     37 CZ         15.1300   19.7300   13.6100 C.ar      5 PHE5        0.0000 
     38 CZ         14.1700   20.2900   12.6100 C.ar      5 PHE5        0.0000 
     39 CZ         17.7100   20.6700   11.6800 C.ar      5 PHE5        0.0000 
     40 CZ         16.7000   20.8900   12.7700 C.ar      5 PHE5        0.0000 
     41 CA         15.3100   11.5200   13.3400 C.3       6 GLY6        0.0000 
     42 CA         17.9800   15.4300   12.9700 C.3       6 GLY6        0.0000 
     43 CA         18.5300   16.8000   13.2100 C.3       6 GLY6        0.0000 
     44 CA         12.6100   19.1300   13.4600 C.3       6 GLY6        0.0000 
     45 CA         13.1600   20.5100   13.7000 C.3       6 GLY6        0.0000 
     46 CA         18.6700   20.1100   12.6800 C.3       6 GLY6        0.0000 
@<TRIPOS>BOND
@<TRIPOS>SUBSTRUCTURE
     1 SER1        1 GROUP   
     2 ALA2        8 GROUP   
     3 ASP3       11 GROUP   
     4 LYS4       17 GROUP   
     5 PHE5       22 GROUP   
     6 GLY6       41 GROUP   
@<TRIPOS>SET

