#    Name: 5zlg_1_ASC_CAVITY_N1_12
#    Modification time : Fri May 22 19:28:27 2020

@<TRIPOS>MOLECULE
5zlg_1_ASC_CAVITY_N1_12
   85     0     7     0     0
SMALL
NO_CHARGES


@<TRIPOS>ATOM
      1 OG         13.8400   13.3300   15.7500 O.3       1 SER1        0.0000 
      2 OG         14.4000   14.7000   15.9900 O.3       1 SER1        0.0000 
      3 OG         13.4300   15.2600   14.9900 O.3       1 SER1        0.0000 
      4 OG         13.9800   16.6400   15.2300 O.3       1 SER1        0.0000 
      5 OG          9.1200   19.1000   12.3000 O.3       1 SER1        0.0000 
      6 OG          9.0800   18.7500   14.3900 O.3       1 SER1        0.0000 
      7 OG         13.5200   18.2300   16.5500 O.3       1 SER1        0.0000 
      8 OG         11.5500   19.0000   16.6400 O.3       1 SER1        0.0000 
      9 OG         15.6900   21.1100   13.8500 O.3       1 SER1        0.0000 
     10 OG         14.7200   21.6700   12.8500 O.3       1 SER1        0.0000 
     11 OG         12.7500   22.4400   12.9300 O.3       1 SER1        0.0000 
     12 OG         17.2500   22.2600   13.0100 O.3       1 SER1        0.0000 
     13 N           8.1100   19.3100   13.3800 N.am      2 ALA2        0.0000 
     14 O          10.5900   19.5600   15.6300 O.2       2 ALA2        0.0000 
     15 O           9.6300   20.1200   14.6300 O.2       2 ALA2        0.0000 
     16 O          18.0700   18.3900   14.5400 O.2       2 ALA2        0.0000 
     17 N          18.6200   19.7700   14.7800 N.am      2 ALA2        0.0000 
     18 N          17.6600   20.3300   13.7700 N.am      2 ALA2        0.0000 
     19 N          19.2200   21.4900   12.9200 N.am      2 ALA2        0.0000 
     20 N          18.2100   21.7000   14.0100 N.am      2 ALA2        0.0000 
     21 OD1        15.8600   12.9000   13.5800 O.co2     3 ASP3        0.0000 
     22 OD1        17.4300   14.0600   12.7300 O.co2     3 ASP3        0.0000 
     23 OD1        16.4600   14.6200   11.7200 O.co2     3 ASP3        0.0000 
     24 OD1        17.0100   15.9900   11.9600 O.co2     3 ASP3        0.0000 
     25 OD1        16.0000   16.2100   13.0500 O.co2     3 ASP3        0.0000 
     26 OD1        14.9900   16.4200   14.1400 O.co2     3 ASP3        0.0000 
     27 NZ         15.5500   17.8000   14.3800 N.4       4 LYS4        0.0000 
     28 NZ         14.5400   18.0100   15.4700 N.4       4 LYS4        0.0000 
     29 NZ         16.1000   19.1700   14.6200 N.4       4 LYS4        0.0000 
     30 NZ         14.1200   19.9500   14.7000 N.4       4 LYS4        0.0000 
     31 NZ         13.1100   20.1600   15.7900 N.4       4 LYS4        0.0000 
     32 CZ         16.8300   12.3400   14.5800 C.ar      5 PHE5        0.0000 
     33 CZ         14.8500   13.1100   14.6600 C.ar      5 PHE5        0.0000 
     34 CZ         16.4200   14.2700   13.8200 C.ar      5 PHE5        0.0000 
     35 CZ         15.4100   14.4900   14.9000 C.ar      5 PHE5        0.0000 
     36 CZ         12.0100   17.4100   15.3100 C.ar      5 PHE5        0.0000 
     37 CZ         10.0400   18.1900   15.3900 C.ar      5 PHE5        0.0000 
     38 CZ         17.5700   17.3700   12.2000 C.ar      5 PHE5        0.0000 
     39 CZ         17.5200   17.0200   14.3000 C.ar      5 PHE5        0.0000 
     40 CZ         16.5600   17.5800   13.2900 C.ar      5 PHE5        0.0000 
     41 CZ         14.5800   18.3600   13.3700 C.ar      5 PHE5        0.0000 
     42 CZ         13.5700   18.5700   14.4600 C.ar      5 PHE5        0.0000 
     43 CZ         12.5600   18.7900   15.5500 C.ar      5 PHE5        0.0000 
     44 CZ         11.6000   19.3500   14.5500 C.ar      5 PHE5        0.0000 
     45 CZ          8.6700   20.6900   13.6200 C.ar      5 PHE5        0.0000 
     46 CZ          7.7000   21.2500   12.6200 C.ar      5 PHE5        0.0000 
     47 CZ         18.1200   18.7400   12.4400 C.ar      5 PHE5        0.0000 
     48 CZ         17.1100   18.9500   13.5300 C.ar      5 PHE5        0.0000 
     49 CZ         15.1300   19.7300   13.6100 C.ar      5 PHE5        0.0000 
     50 CZ         14.1700   20.2900   12.6100 C.ar      5 PHE5        0.0000 
     51 CZ          8.2500   22.6200   12.8600 C.ar      5 PHE5        0.0000 
     52 CZ         17.7100   20.6700   11.6800 C.ar      5 PHE5        0.0000 
     53 CZ         16.7000   20.8900   12.7700 C.ar      5 PHE5        0.0000 
     54 CZ         14.6700   21.3200   14.9400 C.ar      5 PHE5        0.0000 
     55 CZ         13.7100   21.8800   13.9400 C.ar      5 PHE5        0.0000 
     56 CZ         11.7900   23.0000   11.9300 C.ar      5 PHE5        0.0000 
     57 CZ         12.7000   22.1000   15.0200 C.ar      5 PHE5        0.0000 
     58 CZ          8.8100   24.0000   13.1000 C.ar      5 PHE5        0.0000 
     59 CZ         18.2600   22.0500   11.9200 C.ar      5 PHE5        0.0000 
     60 CZ         12.2900   24.0300   14.2600 C.ar      5 PHE5        0.0000 
     61 CZ         11.3300   24.5900   13.2600 C.ar      5 PHE5        0.0000 
     62 CA         15.3100   11.5200   13.3400 C.3       6 GLY6        0.0000 
     63 CA         17.9800   15.4300   12.9700 C.3       6 GLY6        0.0000 
     64 CA         18.5300   16.8000   13.2100 C.3       6 GLY6        0.0000 
     65 CA         12.6100   19.1300   13.4600 C.3       6 GLY6        0.0000 
     66 CA         10.6400   19.9100   13.5400 C.3       6 GLY6        0.0000 
     67 CA          9.6800   20.4700   12.5400 C.3       6 GLY6        0.0000 
     68 CA          8.7100   21.0300   11.5300 C.3       6 GLY6        0.0000 
     69 CA         13.1600   20.5100   13.7000 C.3       6 GLY6        0.0000 
     70 CA         12.2000   21.0700   12.6900 C.3       6 GLY6        0.0000 
     71 CA         11.1900   21.2800   13.7800 C.3       6 GLY6        0.0000 
     72 CA         10.2300   21.8400   12.7800 C.3       6 GLY6        0.0000 
     73 CA          9.2600   22.4100   11.7700 C.3       6 GLY6        0.0000 
     74 CA         11.1400   20.9400   15.8700 C.3       6 GLY6        0.0000 
     75 CA         10.1800   21.5000   14.8700 C.3       6 GLY6        0.0000 
     76 CA          9.2200   22.0600   13.8600 C.3       6 GLY6        0.0000 
     77 CA         18.6700   20.1100   12.6800 C.3       6 GLY6        0.0000 
     78 CA         11.7400   22.6600   14.0200 C.3       6 GLY6        0.0000 
     79 CA          9.8200   23.7800   12.0100 C.3       6 GLY6        0.0000 
     80 CA          9.7700   23.4300   14.1000 C.3       6 GLY6        0.0000 
     81 CA         10.3700   25.1500   12.2500 C.3       6 GLY6        0.0000 
     82 CA         10.3200   24.8100   14.3400 C.3       6 GLY6        0.0000 
     83 CA          9.3600   25.3700   13.3400 C.3       6 GLY6        0.0000 
     84 DU         12.1500   20.7200   14.7800 H         7 CUB7        0.0000 
     85 DU         10.7800   23.2200   13.0200 H         7 CUB7        0.0000 
@<TRIPOS>BOND
@<TRIPOS>SUBSTRUCTURE
     1 SER1        1 GROUP   
     2 ALA2       13 GROUP   
     3 ASP3       21 GROUP   
     4 LYS4       27 GROUP   
     5 PHE5       32 GROUP   
     6 GLY6       62 GROUP   
     7 CUB7       84 GROUP   
@<TRIPOS>SET

