#    Name: 5nw8_1_M77
#    Modification time : Fri May 22 19:14:18 2020

@<TRIPOS>MOLECULE
5nw8_1_M77
   20    22     1     0     0
SMALL
NO_CHARGES


@<TRIPOS>ATOM
      1 O1          7.0380   10.5110    6.8240 O.2       1 M77402      0.0000 
      2 S1          7.7870   10.8310    7.9960 S.o2      1 M77402      0.0000 
      3 O2          8.1400    9.7960    8.9180 O.2       1 M77402      0.0000 
      4 N4          6.9130   11.9190    8.8420 N.pl3     1 M77402      0.0000 
      5 C22         5.7730   12.6330    8.2310 C.3       1 M77402      0.0000 
      6 C21         4.9610   13.4600    9.2410 C.3       1 M77402      0.0000 
      7 N17         4.5330   12.7330   10.4470 N.4       1 M77402      0.0000 
      8 C16         5.4830   12.7640   11.5670 C.3       1 M77402      0.0000 
      9 C20         6.7850   12.0340   11.3380 C.3       1 M77402      0.0000 
     10 C15         7.5060   12.4630   10.0800 C.3       1 M77402      0.0000 
     11 C5          9.2530   11.6860    7.5040 C.ar      1 M77402      0.0000 
     12 C6          9.2000   13.0550    7.4570 C.ar      1 M77402      0.0000 
     13 C7         10.3510   13.7950    7.2370 C.ar      1 M77402      0.0000 
     14 C8         11.5570   13.1740    7.0640 C.ar      1 M77402      0.0000 
     15 C9         11.6530   11.7590    7.0900 C.ar      1 M77402      0.0000 
     16 C10        10.4770   10.9860    7.2830 C.ar      1 M77402      0.0000 
     17 C11        10.6140    9.5770    7.3120 C.ar      1 M77402      0.0000 
     18 C14        12.8750   11.0580    6.9850 C.ar      1 M77402      0.0000 
     19 N13        12.9820    9.7370    7.0370 N.ar      1 M77402      0.0000 
     20 C12        11.8540    9.0260    7.1940 C.ar      1 M77402      0.0000 
@<TRIPOS>BOND
     1    1    2 2    
     2    2    3 2    
     3    2    4 1    
     4    2   11 1    
     5    4    5 1    
     6    4   10 1    
     7    5    6 1    
     8    6    7 1    
     9    7    8 1    
    10    8    9 1    
    11    9   10 1    
    12   11   12 ar   
    13   11   16 ar   
    14   12   13 ar   
    15   13   14 ar   
    16   14   15 ar   
    17   15   16 ar   
    18   15   18 ar   
    19   16   17 ar   
    20   17   20 ar   
    21   18   19 ar   
    22   19   20 ar   
@<TRIPOS>SUBSTRUCTURE
     1 M77402      1 GROUP   
@<TRIPOS>SET

