#    Name: 6akd_1_A5A
#    Modification time : Fri May 22 19:32:42 2020

@<TRIPOS>MOLECULE
6akd_1_A5A
   28    30     1     0     0
SMALL
NO_CHARGES


@<TRIPOS>ATOM
      1 N           9.2000   20.4790   66.6600 N.4       1 A5A601      0.0000 
      2 CA          7.9290   20.9550   66.1840 C.3       1 A5A601      0.0000 
      3 CB          7.7380   22.4410   66.4930 C.3       1 A5A601      0.0000 
      4 C           7.8500   20.7090   64.6840 C.2       1 A5A601      0.0000 
      5 O           7.0260   21.3210   63.9660 O.2       1 A5A601      0.0000 
      6 N3S         8.6400   19.7380   64.2450 N.am      1 A5A601      0.0000 
      7 S           8.5680   19.1520   62.7530 S.o2      1 A5A601      0.0000 
      8 O1S         9.6550   18.2680   62.5190 O.2       1 A5A601      0.0000 
      9 O2S         7.2760   18.5670   62.4680 O.2       1 A5A601      0.0000 
     10 O5'         8.6220   20.3270   61.7010 O.3       1 A5A601      0.0000 
     11 C5'         9.7640   21.1490   61.7190 C.3       1 A5A601      0.0000 
     12 C4'         9.5890   22.1880   60.6510 C.3       1 A5A601      0.0000 
     13 O4'         8.5050   23.1180   60.8950 O.3       1 A5A601      0.0000 
     14 C3'        10.8000   23.0860   60.6600 C.3       1 A5A601      0.0000 
     15 O3'        11.9500   22.5310   60.0850 O.3       1 A5A601      0.0000 
     16 C2'        10.3250   24.3030   59.9200 C.3       1 A5A601      0.0000 
     17 O2'        10.4050   24.0520   58.5340 O.3       1 A5A601      0.0000 
     18 C1'         8.9090   24.4020   60.4250 C.3       1 A5A601      0.0000 
     19 N9          8.7960   25.1770   61.6670 N.pl3     1 A5A601      0.0000 
     20 C8          8.6820   24.7060   62.9310 C.2       1 A5A601      0.0000 
     21 N7          8.5660   25.7350   63.8230 N.2       1 A5A601      0.0000 
     22 C5          8.6230   26.8680   63.1100 C.ar      1 A5A601      0.0000 
     23 C6          8.5880   28.3150   63.3420 C.ar      1 A5A601      0.0000 
     24 N6          8.4340   28.9270   64.5370 N.pl3     1 A5A601      0.0000 
     25 N1          8.6670   29.1020   62.2810 N.ar      1 A5A601      0.0000 
     26 C2          8.8320   28.6610   61.0520 C.ar      1 A5A601      0.0000 
     27 N3          8.9690   27.4070   60.7400 N.ar      1 A5A601      0.0000 
     28 C4          8.8060   26.4700   61.7130 C.ar      1 A5A601      0.0000 
@<TRIPOS>BOND
     1    1    2 1    
     2    2    3 1    
     3    2    4 1    
     4    4    5 2    
     5    4    6 am   
     6    6    7 1    
     7    7    8 2    
     8    7    9 2    
     9    7   10 1    
    10   10   11 1    
    11   11   12 1    
    12   12   13 1    
    13   12   14 1    
    14   13   18 1    
    15   14   15 1    
    16   14   16 1    
    17   16   17 1    
    18   16   18 1    
    19   18   19 1    
    20   19   20 1    
    21   19   28 1    
    22   20   21 2    
    23   21   22 1    
    24   22   23 ar   
    25   22   28 ar   
    26   23   24 1    
    27   23   25 ar   
    28   25   26 ar   
    29   26   27 ar   
    30   27   28 ar   
@<TRIPOS>SUBSTRUCTURE
     1 A5A601      1 GROUP   
@<TRIPOS>SET

