#    Name: 6akd_1_A5A_CAVITY_N1_8
#    Modification time : Fri May 22 19:32:44 2020

@<TRIPOS>MOLECULE
6akd_1_A5A_CAVITY_N1_8
   75     0     7     0     0
SMALL
NO_CHARGES


@<TRIPOS>ATOM
      1 OG          5.9900   17.7100   56.7100 O.3       1 SER1        0.0000 
      2 OG          7.3100   16.5000   59.5400 O.3       1 SER1        0.0000 
      3 OG          6.9300   17.6000   58.6100 O.3       1 SER1        0.0000 
      4 OG          6.5500   18.7100   57.6700 O.3       1 SER1        0.0000 
      5 OG          6.5200   17.6000   61.1700 O.3       1 SER1        0.0000 
      6 OG          7.8600   17.5000   60.5100 O.3       1 SER1        0.0000 
      7 OG          7.4800   18.6100   59.5800 O.3       1 SER1        0.0000 
      8 OG          7.4600   17.5000   63.0800 O.3       1 SER1        0.0000 
      9 OG          8.8000   17.4000   62.4100 O.3       1 SER1        0.0000 
     10 OG          8.0100   18.5000   64.0400 O.3       1 SER1        0.0000 
     11 OG          9.3500   18.4000   63.3800 O.3       1 SER1        0.0000 
     12 OG          8.5600   19.5100   65.0100 O.3       1 SER1        0.0000 
     13 N           8.6500   16.4000   58.8800 N.am      2 ALA2        0.0000 
     14 N           8.2700   17.5100   57.9400 N.am      2 ALA2        0.0000 
     15 N           8.1800   20.6200   64.0700 N.am      2 ALA2        0.0000 
     16 N           9.5200   20.5200   63.4100 N.am      2 ALA2        0.0000 
     17 N           9.1400   21.6300   62.4700 N.am      2 ALA2        0.0000 
     18 N          10.4800   21.5300   61.8100 N.am      2 ALA2        0.0000 
     19 N           8.3700   23.8400   60.6000 N.am      2 ALA2        0.0000 
     20 N           8.3500   22.7300   64.1100 N.am      2 ALA2        0.0000 
     21 N           9.3000   23.7400   62.5100 N.am      2 ALA2        0.0000 
     22 N          10.6500   23.6400   61.8400 N.am      2 ALA2        0.0000 
     23 N           8.9200   24.8500   61.5700 N.am      2 ALA2        0.0000 
     24 N           8.5400   25.9600   60.6400 N.am      2 ALA2        0.0000 
     25 O           8.5100   24.8400   64.1400 O.2       2 ALA2        0.0000 
     26 O           9.8600   24.7500   63.4700 O.2       2 ALA2        0.0000 
     27 O           7.7500   27.0600   62.2700 O.2       2 ALA2        0.0000 
     28 O           8.7100   28.0700   60.6700 O.2       2 ALA2        0.0000 
     29 N           8.6800   26.9600   64.1700 N.am      2 ALA2        0.0000 
     30 N           8.3000   28.0700   63.2300 N.am      2 ALA2        0.0000 
     31 OD1         5.7600   19.8200   59.3000 O.co2     3 ASP3        0.0000 
     32 OD1         7.1000   19.7200   58.6400 O.co2     3 ASP3        0.0000 
     33 OD1         9.7800   19.5200   57.3100 O.co2     3 ASP3        0.0000 
     34 OD1         6.7100   20.8300   57.7000 O.co2     3 ASP3        0.0000 
     35 OD1         7.0700   18.6000   62.1400 O.co2     3 ASP3        0.0000 
     36 OD1         8.4100   18.5100   61.4800 O.co2     3 ASP3        0.0000 
     37 OD1         8.0300   19.6200   60.5400 O.co2     3 ASP3        0.0000 
     38 OD1        10.7100   19.4200   59.2100 O.co2     3 ASP3        0.0000 
     39 OD1         7.6500   20.7200   59.6100 O.co2     3 ASP3        0.0000 
     40 OD1        10.3300   20.5300   58.2800 O.co2     3 ASP3        0.0000 
     41 OD1         7.6300   19.6100   63.1100 O.co2     3 ASP3        0.0000 
     42 OD1         8.9700   19.5100   62.4400 O.co2     3 ASP3        0.0000 
     43 OD1         8.5800   20.6200   61.5100 O.co2     3 ASP3        0.0000 
     44 OD1         9.5400   21.6300   59.9100 O.co2     3 ASP3        0.0000 
     45 OD1        10.8800   21.5400   59.2400 O.co2     3 ASP3        0.0000 
     46 OD1        10.5000   22.6400   58.3100 O.co2     3 ASP3        0.0000 
     47 OD1         8.7500   22.7400   61.5400 O.co2     3 ASP3        0.0000 
     48 NZ          7.2200   19.6000   65.6700 N.4       4 LYS4        0.0000 
     49 NZ         11.4300   22.5400   60.2100 N.4       4 LYS4        0.0000 
     50 NZ         11.0500   23.6500   59.2800 N.4       4 LYS4        0.0000 
     51 NZ         11.9900   23.5500   61.1800 N.4       4 LYS4        0.0000 
     52 CZ          6.8400   20.7100   64.7400 C.ar      5 PHE5        0.0000 
     53 CZ         10.2600   24.7500   60.9100 C.ar      5 PHE5        0.0000 
     54 CZ          9.8800   25.8600   59.9700 C.ar      5 PHE5        0.0000 
     55 CZ          9.4700   25.8600   62.5400 C.ar      5 PHE5        0.0000 
     56 CZ          9.0900   26.9600   61.6000 C.ar      5 PHE5        0.0000 
     57 CZ         10.4300   26.8700   60.9400 C.ar      5 PHE5        0.0000 
     58 CZ          9.6400   27.9700   62.5700 C.ar      5 PHE5        0.0000 
     59 CZ          9.2600   29.0800   61.6300 C.ar      5 PHE5        0.0000 
     60 CA          8.2500   16.3900   61.4500 C.3       6 GLY6        0.0000 
     61 CA         10.3100   19.4200   61.7800 C.3       6 GLY6        0.0000 
     62 CA         11.2700   20.4300   60.1800 C.3       6 GLY6        0.0000 
     63 CA         11.8200   21.4300   61.1500 C.3       6 GLY6        0.0000 
     64 CA          7.9600   23.8400   63.1700 C.3       6 GLY6        0.0000 
     65 CA          8.1300   25.9500   63.2000 C.3       6 GLY6        0.0000 
     66 DU          7.8900   18.6100   57.0100 H         7 CUB7        0.0000 
     67 DU          9.2000   17.4000   59.8500 H         7 CUB7        0.0000 
     68 DU          8.8200   18.5100   58.9100 H         7 CUB7        0.0000 
     69 DU         10.1600   18.4200   58.2500 H         7 CUB7        0.0000 
     70 DU          8.4400   19.6200   57.9800 H         7 CUB7        0.0000 
     71 DU          9.3700   19.5200   59.8800 H         7 CUB7        0.0000 
     72 DU          8.9900   20.6300   58.9400 H         7 CUB7        0.0000 
     73 DU          9.9200   20.5200   60.8400 H         7 CUB7        0.0000 
     74 DU         10.0900   22.6400   60.8700 H         7 CUB7        0.0000 
     75 DU          9.7100   23.7500   59.9400 H         7 CUB7        0.0000 
@<TRIPOS>BOND
@<TRIPOS>SUBSTRUCTURE
     1 SER1        1 GROUP   
     2 ALA2       13 GROUP   
     3 ASP3       31 GROUP   
     4 LYS4       48 GROUP   
     5 PHE5       52 GROUP   
     6 GLY6       60 GROUP   
     7 CUB7       66 GROUP   
@<TRIPOS>SET

