#    Name: 6sy7_4_AMP_CAVITY_N1_8
#    Modification time : Fri May 22 19:31:34 2020

@<TRIPOS>MOLECULE
6sy7_4_AMP_CAVITY_N1_8
   53     0     4     0     0
SMALL
NO_CHARGES


@<TRIPOS>ATOM
      1 N          34.3300  -49.0800 -116.3300 N.am      1 ALA2        0.0000 
      2 N          36.6200  -48.0900 -119.0300 N.am      1 ALA2        0.0000 
      3 N          37.2600  -48.9200 -117.9500 N.am      1 ALA2        0.0000 
      4 N          37.5200  -46.9500 -118.6800 N.am      1 ALA2        0.0000 
      5 N          38.5400  -47.4400 -119.6700 N.am      1 ALA2        0.0000 
      6 N          34.1100  -42.6500 -117.5000 N.am      1 ALA2        0.0000 
      7 N          39.0700  -43.4900 -121.1100 N.am      1 ALA2        0.0000 
      8 O          40.3400  -45.1500 -118.9700 O.2       1 ALA2        0.0000 
      9 N          39.6000  -42.6800 -118.7000 N.am      1 ALA2        0.0000 
     10 N          41.2500  -44.0100 -118.6200 N.am      1 ALA2        0.0000 
     11 O          40.1300  -41.8700 -116.2900 O.2       1 ALA2        0.0000 
     12 N          40.5000  -41.5300 -118.3500 N.am      1 ALA2        0.0000 
     13 N          41.1400  -42.3700 -117.2800 N.am      1 ALA2        0.0000 
     14 OD1        33.5800  -46.6000 -116.0600 O.co2     2 ASP3        0.0000 
     15 OD1        33.9600  -46.2700 -118.1200 O.co2     2 ASP3        0.0000 
     16 OD1        34.6000  -47.1000 -117.0500 O.co2     2 ASP3        0.0000 
     17 OD1        35.6100  -47.6000 -118.0400 O.co2     2 ASP3        0.0000 
     18 OD1        36.2500  -48.4300 -116.9700 O.co2     2 ASP3        0.0000 
     19 OD1        33.8500  -44.6300 -116.7800 O.co2     2 ASP3        0.0000 
     20 OD1        34.8600  -45.1200 -117.7700 O.co2     2 ASP3        0.0000 
     21 OD1        35.8700  -45.6200 -118.7600 O.co2     2 ASP3        0.0000 
     22 OD1        37.9000  -46.6100 -120.7400 O.co2     2 ASP3        0.0000 
     23 OD1        35.1200  -43.1400 -118.4900 O.co2     2 ASP3        0.0000 
     24 OD1        35.7600  -43.9800 -117.4200 O.co2     2 ASP3        0.0000 
     25 OD1        36.7800  -44.4700 -118.4100 O.co2     2 ASP3        0.0000 
     26 OD1        37.7900  -44.9700 -119.4000 O.co2     2 ASP3        0.0000 
     27 OD1        38.1600  -44.6300 -121.4600 O.co2     2 ASP3        0.0000 
     28 OD1        38.8000  -45.4700 -120.3900 O.co2     2 ASP3        0.0000 
     29 OD1        37.6800  -43.3300 -118.0600 O.co2     2 ASP3        0.0000 
     30 OD1        38.6900  -43.8200 -119.0500 O.co2     2 ASP3        0.0000 
     31 OD1        39.7000  -44.3200 -120.0400 O.co2     2 ASP3        0.0000 
     32 OD1        39.2200  -43.0100 -116.6400 O.co2     2 ASP3        0.0000 
     33 OD1        40.2300  -43.5100 -117.6300 O.co2     2 ASP3        0.0000 
     34 CA         35.3400  -49.5700 -117.3200 C.3       3 GLY6        0.0000 
     35 CA         32.9400  -45.7700 -117.1300 C.3       3 GLY6        0.0000 
     36 CA         33.2100  -43.7900 -117.8500 C.3       3 GLY6        0.0000 
     37 CA         34.4900  -42.3100 -119.5600 C.3       3 GLY6        0.0000 
     38 CA         35.5000  -42.8100 -120.5500 C.3       3 GLY6        0.0000 
     39 CA         36.5100  -43.3100 -121.5400 C.3       3 GLY6        0.0000 
     40 CA         37.1500  -44.1400 -120.4700 C.3       3 GLY6        0.0000 
     41 CA         35.3900  -41.1700 -119.2100 C.3       3 GLY6        0.0000 
     42 CA         36.0300  -42.0000 -118.1400 C.3       3 GLY6        0.0000 
     43 CA         37.0400  -42.5000 -119.1300 C.3       3 GLY6        0.0000 
     44 CA         38.0500  -42.9900 -120.1200 C.3       3 GLY6        0.0000 
     45 CA         37.9400  -41.3500 -118.7800 C.3       3 GLY6        0.0000 
     46 CA         38.9600  -41.8500 -119.7700 C.3       3 GLY6        0.0000 
     47 DU         34.9700  -46.7600 -119.1100 H         4 CUB7        0.0000 
     48 DU         35.9800  -47.2600 -120.1000 H         4 CUB7        0.0000 
     49 DU         34.2200  -44.2900 -118.8400 H         4 CUB7        0.0000 
     50 DU         35.2300  -44.7900 -119.8300 H         4 CUB7        0.0000 
     51 DU         36.2500  -45.2800 -120.8200 H         4 CUB7        0.0000 
     52 DU         36.8900  -46.1100 -119.7500 H         4 CUB7        0.0000 
     53 DU         36.1400  -43.6400 -119.4800 H         4 CUB7        0.0000 
@<TRIPOS>BOND
@<TRIPOS>SUBSTRUCTURE
     1 ALA2        1 GROUP   
     2 ASP3       14 GROUP   
     3 GLY6       34 GROUP   
     4 CUB7       47 GROUP   
@<TRIPOS>SET

