#    Name: 6sy7_1_AMP_CAVITY_N1_8
#    Modification time : Fri May 22 19:31:20 2020

@<TRIPOS>MOLECULE
6sy7_1_AMP_CAVITY_N1_8
   72     0     5     0     0
SMALL
NO_CHARGES


@<TRIPOS>ATOM
      1 OG         44.1700  -50.5600  -91.8600 O.3       1 SER1        0.0000 
      2 OG         45.4500  -52.2200  -89.7200 O.3       1 SER1        0.0000 
      3 OG         45.1800  -51.0600  -92.8500 O.3       1 SER1        0.0000 
      4 OG         46.4600  -52.7200  -90.7100 O.3       1 SER1        0.0000 
      5 OG         45.0700  -49.4200  -91.5100 O.3       1 SER1        0.0000 
      6 OG         46.3500  -51.0800  -89.3700 O.3       1 SER1        0.0000 
      7 OG         46.0800  -49.9100  -92.5000 O.3       1 SER1        0.0000 
      8 OG         47.3600  -51.5800  -90.3600 O.3       1 SER1        0.0000 
      9 OG         48.7900  -46.4800  -91.4500 O.3       1 SER1        0.0000 
     10 OG         44.7900  -39.2300  -85.5400 O.3       1 SER1        0.0000 
     11 OG         45.8000  -39.7300  -86.5300 O.3       1 SER1        0.0000 
     12 OG         46.7100  -38.5800  -86.1800 O.3       1 SER1        0.0000 
     13 O          43.1500  -50.0600  -90.8700 O.2       2 ALA2        0.0000 
     14 O          46.0200  -46.1500  -85.3500 O.2       2 ALA2        0.0000 
     15 O          45.2700  -43.6800  -85.0800 O.2       2 ALA2        0.0000 
     16 O          45.9100  -44.5100  -84.0100 O.2       2 ALA2        0.0000 
     17 O          46.2900  -44.1800  -86.0700 O.2       2 ALA2        0.0000 
     18 N          46.9300  -45.0100  -85.0000 N.am      2 ALA2        0.0000 
     19 N          47.9400  -45.5100  -85.9900 N.am      2 ALA2        0.0000 
     20 N          48.3100  -45.1700  -88.0500 N.am      2 ALA2        0.0000 
     21 O          48.9500  -46.0000  -86.9800 O.2       2 ALA2        0.0000 
     22 N          47.5600  -42.7000  -87.7800 N.am      2 ALA2        0.0000 
     23 N          48.2000  -43.5300  -86.7100 N.am      2 ALA2        0.0000 
     24 N          48.8400  -44.3600  -85.6400 N.am      2 ALA2        0.0000 
     25 N          49.2100  -44.0300  -87.7000 N.am      2 ALA2        0.0000 
     26 N          49.8500  -44.8600  -86.6300 N.am      2 ALA2        0.0000 
     27 N          49.1100  -42.3800  -86.3600 N.am      2 ALA2        0.0000 
     28 OD1        45.3400  -50.5800  -88.3800 O.co2     3 ASP3        0.0000 
     29 OD1        45.6000  -48.6100  -89.1000 O.co2     3 ASP3        0.0000 
     30 OD1        46.2400  -49.4400  -88.0300 O.co2     3 ASP3        0.0000 
     31 OD1        46.6100  -49.1000  -90.0900 O.co2     3 ASP3        0.0000 
     32 OD1        47.2500  -49.9300  -89.0200 O.co2     3 ASP3        0.0000 
     33 OD1        45.4900  -46.9600  -87.7600 O.co2     3 ASP3        0.0000 
     34 OD1        46.5000  -47.4600  -88.7500 O.co2     3 ASP3        0.0000 
     35 OD1        47.1400  -48.2900  -87.6800 O.co2     3 ASP3        0.0000 
     36 OD1        47.5200  -47.9600  -89.7400 O.co2     3 ASP3        0.0000 
     37 OD1        46.6600  -46.9900  -84.2800 O.co2     3 ASP3        0.0000 
     38 OD1        46.4000  -45.8200  -87.4100 O.co2     3 ASP3        0.0000 
     39 OD1        47.0300  -46.6500  -86.3400 O.co2     3 ASP3        0.0000 
     40 OD1        47.6700  -47.4800  -85.2700 O.co2     3 ASP3        0.0000 
     41 OD1        46.7700  -45.4800  -89.4700 O.co2     3 ASP3        0.0000 
     42 OD1        48.0500  -47.1500  -87.3300 O.co2     3 ASP3        0.0000 
     43 OD1        47.7800  -45.9800  -90.4600 O.co2     3 ASP3        0.0000 
     44 OD1        48.4200  -46.8100  -89.3900 O.co2     3 ASP3        0.0000 
     45 OD1        46.6600  -43.8400  -88.1300 O.co2     3 ASP3        0.0000 
     46 OD1        47.6700  -44.3400  -89.1200 O.co2     3 ASP3        0.0000 
     47 OD1        48.6800  -44.8300  -90.1100 O.co2     3 ASP3        0.0000 
     48 OD1        46.8100  -40.2200  -87.5200 O.co2     3 ASP3        0.0000 
     49 CA         44.7000  -49.7500  -89.4500 C.3       4 GLY6        0.0000 
     50 CA         45.9700  -48.2700  -91.1600 C.3       4 GLY6        0.0000 
     51 CA         46.8800  -47.1200  -90.8100 C.3       4 GLY6        0.0000 
     52 CA         45.7600  -44.9900  -88.4800 C.3       4 GLY6        0.0000 
     53 CA         49.3200  -45.6700  -89.0400 C.3       4 GLY6        0.0000 
     54 CA         43.8900  -40.3700  -85.8900 C.3       4 GLY6        0.0000 
     55 CA         44.5300  -41.2100  -84.8200 C.3       4 GLY6        0.0000 
     56 CA         44.9000  -40.8700  -86.8800 C.3       4 GLY6        0.0000 
     57 CA         45.5400  -41.7000  -85.8000 C.3       4 GLY6        0.0000 
     58 CA         46.1800  -42.5400  -84.7300 C.3       4 GLY6        0.0000 
     59 CA         46.5500  -42.2000  -86.7900 C.3       4 GLY6        0.0000 
     60 CA         47.1900  -43.0300  -85.7200 C.3       4 GLY6        0.0000 
     61 CA         45.4300  -40.0600  -84.4700 C.3       4 GLY6        0.0000 
     62 CA         46.4400  -40.5600  -85.4500 C.3       4 GLY6        0.0000 
     63 CA         47.4500  -41.0500  -86.4400 C.3       4 GLY6        0.0000 
     64 CA         47.7200  -39.0800  -87.1700 C.3       4 GLY6        0.0000 
     65 CA         48.3600  -39.9100  -86.0900 C.3       4 GLY6        0.0000 
     66 DU         45.5500  -53.8700  -91.0600 H         5 CUB7        0.0000 
     67 DU         44.8100  -51.3900  -90.7900 H         5 CUB7        0.0000 
     68 DU         45.8200  -51.8900  -91.7800 H         5 CUB7        0.0000 
     69 DU         45.7100  -50.2500  -90.4400 H         5 CUB7        0.0000 
     70 DU         46.7200  -50.7400  -91.4300 H         5 CUB7        0.0000 
     71 DU         47.4100  -46.3200  -88.4000 H         5 CUB7        0.0000 
     72 DU         47.3000  -44.6700  -87.0600 H         5 CUB7        0.0000 
@<TRIPOS>BOND
@<TRIPOS>SUBSTRUCTURE
     1 SER1        1 GROUP   
     2 ALA2       13 GROUP   
     3 ASP3       28 GROUP   
     4 GLY6       49 GROUP   
     5 CUB7       66 GROUP   
@<TRIPOS>SET

