#    Name: 6sy7_2_AMP_CAVITY_N1_4
#    Modification time : Fri May 22 19:31:27 2020

@<TRIPOS>MOLECULE
6sy7_2_AMP_CAVITY_N1_4
    6     0     2     0     0
SMALL
NO_CHARGES


@<TRIPOS>ATOM
      1 OG         68.5000   -6.0400 -107.5000 O.3       1 SER1        0.0000 
      2 OG         68.4000   -4.3900 -106.1600 O.3       1 SER1        0.0000 
      3 OG         69.4100   -4.8900 -107.1500 O.3       1 SER1        0.0000 
      4 OG         69.3000   -3.2500 -105.8100 O.3       1 SER1        0.0000 
      5 OD1        68.2900   -2.7500 -104.8200 O.co2     2 ASP3        0.0000 
      6 OD1        69.9400   -4.0800 -104.7400 O.co2     2 ASP3        0.0000 
@<TRIPOS>BOND
@<TRIPOS>SUBSTRUCTURE
     1 SER1        1 GROUP   
     2 ASP3        5 GROUP   
@<TRIPOS>SET

