#    Name: 6sy7_4_AMP_CAVITY_N1_6
#    Modification time : Fri May 22 19:31:34 2020

@<TRIPOS>MOLECULE
6sy7_4_AMP_CAVITY_N1_6
   21     0     3     0     0
SMALL
NO_CHARGES


@<TRIPOS>ATOM
      1 O          40.3400  -45.1500 -118.9700 O.2       1 ALA2        0.0000 
      2 N          39.6000  -42.6800 -118.7000 N.am      1 ALA2        0.0000 
      3 N          41.2500  -44.0100 -118.6200 N.am      1 ALA2        0.0000 
      4 O          40.1300  -41.8700 -116.2900 O.2       1 ALA2        0.0000 
      5 N          40.5000  -41.5300 -118.3500 N.am      1 ALA2        0.0000 
      6 N          41.1400  -42.3700 -117.2800 N.am      1 ALA2        0.0000 
      7 OD1        34.8600  -45.1200 -117.7700 O.co2     2 ASP3        0.0000 
      8 OD1        35.1200  -43.1400 -118.4900 O.co2     2 ASP3        0.0000 
      9 OD1        35.7600  -43.9800 -117.4200 O.co2     2 ASP3        0.0000 
     10 OD1        36.7800  -44.4700 -118.4100 O.co2     2 ASP3        0.0000 
     11 OD1        37.7900  -44.9700 -119.4000 O.co2     2 ASP3        0.0000 
     12 OD1        37.6800  -43.3300 -118.0600 O.co2     2 ASP3        0.0000 
     13 OD1        38.6900  -43.8200 -119.0500 O.co2     2 ASP3        0.0000 
     14 OD1        39.7000  -44.3200 -120.0400 O.co2     2 ASP3        0.0000 
     15 OD1        39.2200  -43.0100 -116.6400 O.co2     2 ASP3        0.0000 
     16 OD1        40.2300  -43.5100 -117.6300 O.co2     2 ASP3        0.0000 
     17 CA         36.0300  -42.0000 -118.1400 C.3       3 GLY6        0.0000 
     18 CA         37.0400  -42.5000 -119.1300 C.3       3 GLY6        0.0000 
     19 CA         38.0500  -42.9900 -120.1200 C.3       3 GLY6        0.0000 
     20 CA         37.9400  -41.3500 -118.7800 C.3       3 GLY6        0.0000 
     21 CA         38.9600  -41.8500 -119.7700 C.3       3 GLY6        0.0000 
@<TRIPOS>BOND
@<TRIPOS>SUBSTRUCTURE
     1 ALA2        1 GROUP   
     2 ASP3        7 GROUP   
     3 GLY6       17 GROUP   
@<TRIPOS>SET

