#    Name: 6sy7_2_AMP_CAVITY_N1_8
#    Modification time : Fri May 22 19:31:27 2020

@<TRIPOS>MOLECULE
6sy7_2_AMP_CAVITY_N1_8
   68     0     5     0     0
SMALL
NO_CHARGES


@<TRIPOS>ATOM
      1 OG         68.5000   -6.0400 -107.5000 O.3       1 SER1        0.0000 
      2 OG         68.4000   -4.3900 -106.1600 O.3       1 SER1        0.0000 
      3 OG         68.7700   -4.0600 -108.2200 O.3       1 SER1        0.0000 
      4 OG         69.4100   -4.8900 -107.1500 O.3       1 SER1        0.0000 
      5 OG         69.3000   -3.2500 -105.8100 O.3       1 SER1        0.0000 
      6 N          64.9800   -0.1000 -104.9900 N.am      2 ALA2        0.0000 
      7 N          68.6600   -2.4200 -106.8800 N.am      2 ALA2        0.0000 
      8 N          69.6700   -2.9100 -107.8700 N.am      2 ALA2        0.0000 
      9 N          64.2300    2.3800 -104.7200 N.am      2 ALA2        0.0000 
     10 N          64.8700    1.5500 -103.6500 N.am      2 ALA2        0.0000 
     11 N          70.2000   -2.1000 -105.4600 N.am      2 ALA2        0.0000 
     12 N          70.5800   -1.7700 -107.5200 N.am      2 ALA2        0.0000 
     13 N          71.2200   -2.6000 -106.4500 N.am      2 ALA2        0.0000 
     14 N          65.6700    1.1900  -98.1000 N.am      2 ALA2        0.0000 
     15 N          66.6800    0.6900  -99.0900 N.am      2 ALA2        0.0000 
     16 N          68.2200    1.0100  -97.6700 N.am      2 ALA2        0.0000 
     17 OD1        64.6100   -0.4300 -102.9200 O.co2     3 ASP3        0.0000 
     18 OD1        65.6200   -0.9300 -103.9100 O.co2     3 ASP3        0.0000 
     19 OD1        68.2900   -2.7500 -104.8200 O.co2     3 ASP3        0.0000 
     20 OD1        69.9400   -4.0800 -104.7400 O.co2     3 ASP3        0.0000 
     21 OD1        65.1400    0.3800 -100.5100 O.co2     3 ASP3        0.0000 
     22 OD1        65.5100    0.7100 -102.5700 O.co2     3 ASP3        0.0000 
     23 OD1        66.1500   -0.1200 -101.5000 O.co2     3 ASP3        0.0000 
     24 OD1        66.5300    0.2200 -103.5600 O.co2     3 ASP3        0.0000 
     25 OD1        67.5400   -0.2800 -104.5500 O.co2     3 ASP3        0.0000 
     26 OD1        69.1900   -1.6100 -104.4700 O.co2     3 ASP3        0.0000 
     27 OD1        70.8400   -2.9400 -104.3900 O.co2     3 ASP3        0.0000 
     28 OD1        71.8500   -3.4300 -105.3700 O.co2     3 ASP3        0.0000 
     29 OD1        67.0600    1.0300 -101.1500 O.co2     3 ASP3        0.0000 
     30 OD1        67.6900    0.2000 -100.0800 O.co2     3 ASP3        0.0000 
     31 OD1        67.4300    1.3600 -103.2100 O.co2     3 ASP3        0.0000 
     32 OD1        68.0700    0.5300 -102.1400 O.co2     3 ASP3        0.0000 
     33 OD1        69.0800    0.0300 -103.1300 O.co2     3 ASP3        0.0000 
     34 OD1        70.0900   -0.4600 -104.1200 O.co2     3 ASP3        0.0000 
     35 OD1        70.7300   -1.2900 -103.0500 O.co2     3 ASP3        0.0000 
     36 OD1        71.1100   -0.9600 -105.1100 O.co2     3 ASP3        0.0000 
     37 OD1        71.7500   -1.7900 -104.0400 O.co2     3 ASP3        0.0000 
     38 OD1        73.4000   -3.1200 -103.9500 O.co2     3 ASP3        0.0000 
     39 OD1        68.9700    1.6800 -101.7900 O.co2     3 ASP3        0.0000 
     40 OD1        69.6100    0.8400 -100.7200 O.co2     3 ASP3        0.0000 
     41 OD1        71.6400   -0.1500 -102.7000 O.co2     3 ASP3        0.0000 
     42 CA         62.9600    0.9000 -103.0100 C.3       4 GLY6        0.0000 
     43 CA         63.6000    0.0700 -101.9400 C.3       4 GLY6        0.0000 
     44 CA         63.9700    0.4000 -104.0000 C.3       4 GLY6        0.0000 
     45 CA         71.5900   -5.4100 -104.6500 C.3       4 GLY6        0.0000 
     46 CA         63.8600    2.0400 -102.6600 C.3       4 GLY6        0.0000 
     47 CA         65.8900    1.0500 -104.6400 C.3       4 GLY6        0.0000 
     48 CA         71.4800   -3.7700 -103.3100 C.3       4 GLY6        0.0000 
     49 CA         72.4900   -4.2600 -104.3000 C.3       4 GLY6        0.0000 
     50 CA         65.4000    2.3600 -101.2300 C.3       4 GLY6        0.0000 
     51 CA         65.7800    2.6900 -103.3000 C.3       4 GLY6        0.0000 
     52 CA         66.7900    2.1900 -104.2900 C.3       4 GLY6        0.0000 
     53 CA         68.4400    0.8700 -104.2000 C.3       4 GLY6        0.0000 
     54 CA         72.3800   -2.6200 -102.9600 C.3       4 GLY6        0.0000 
     55 CA         67.5900    1.8400  -98.7400 C.3       4 GLY6        0.0000 
     56 CA         67.9600    2.1700 -100.8000 C.3       4 GLY6        0.0000 
     57 CA         68.6000    1.3400  -99.7300 C.3       4 GLY6        0.0000 
     58 CA         68.3300    2.5100 -102.8600 C.3       4 GLY6        0.0000 
     59 CA         69.3500    2.0100 -103.8500 C.3       4 GLY6        0.0000 
     60 CA         69.9800    1.1800 -102.7800 C.3       4 GLY6        0.0000 
     61 CA         70.6200    0.3500 -101.7100 C.3       4 GLY6        0.0000 
     62 CA         71.0000    0.6800 -103.7700 C.3       4 GLY6        0.0000 
     63 DU         70.3100   -3.7500 -106.8000 H         5 CUB7        0.0000 
     64 DU         64.5000    1.2100 -101.5800 H         5 CUB7        0.0000 
     65 DU         72.8700   -3.9300 -106.3600 H         5 CUB7        0.0000 
     66 DU         65.0300    2.0200  -99.1700 H         5 CUB7        0.0000 
     67 DU         66.0400    1.5200 -100.1600 H         5 CUB7        0.0000 
     68 DU         66.4200    1.8600 -102.2200 H         5 CUB7        0.0000 
@<TRIPOS>BOND
@<TRIPOS>SUBSTRUCTURE
     1 SER1        1 GROUP   
     2 ALA2        6 GROUP   
     3 ASP3       17 GROUP   
     4 GLY6       42 GROUP   
     5 CUB7       63 GROUP   
@<TRIPOS>SET

