#    Name: 6sy7_4_AMP
#    Modification time : Fri May 22 19:31:33 2020

@<TRIPOS>MOLECULE
6sy7_4_AMP
   23    25     1     0     1
SMALL
NO_CHARGES


@<TRIPOS>ATOM
      1 P          39.4770  -43.5440 -112.8310 P.3       1 AMP1001     0.0000 
      2 O1P        39.3620  -43.2350 -114.3270 O.co2     1 AMP1001     0.0000 
      3 O2P        38.3550  -42.9220 -112.0190 O.co2     1 AMP1001     0.0000 
      4 O3P        39.7450  -45.0090 -112.4800 O.co2     1 AMP1001     0.0000 
      5 O5'        40.8700  -42.8890 -112.3910 O.3       1 AMP1001     0.0000 
      6 C5'        42.0730  -43.4850 -112.9630 C.3       1 AMP1001     0.0000 
      7 C4'        42.8070  -42.5140 -113.8670 C.3       1 AMP1001     0.0000 
      8 O4'        44.0680  -43.1260 -114.2550 O.3       1 AMP1001     0.0000 
      9 C3'        42.1580  -42.1360 -115.2090 C.3       1 AMP1001     0.0000 
     10 O3'        41.1790  -41.1050 -115.0740 O.3       1 AMP1001     0.0000 
     11 C2'        43.3820  -41.7290 -116.0520 C.3       1 AMP1001     0.0000 
     12 O2'        43.6860  -40.3530 -115.9120 O.3       1 AMP1001     0.0000 
     13 C1'        44.5060  -42.6210 -115.4980 C.3       1 AMP1001     0.0000 
     14 N9         44.8900  -43.7840 -116.2970 N.pl3     1 AMP1001     0.0000 
     15 C8         44.0710  -44.5920 -117.0400 C.2       1 AMP1001     0.0000 
     16 N7         44.7010  -45.5830 -117.6170 N.2       1 AMP1001     0.0000 
     17 C5         46.0250  -45.4400 -117.2220 C.ar      1 AMP1001     0.0000 
     18 C6         47.1970  -46.1880 -117.5040 C.ar      1 AMP1001     0.0000 
     19 N6         47.2380  -47.2680 -118.2890 N.pl3     1 AMP1001     0.0000 
     20 N1         48.3550  -45.7540 -116.9460 N.ar      1 AMP1001     0.0000 
     21 C2         48.3270  -44.6560 -116.1730 C.ar      1 AMP1001     0.0000 
     22 N3         47.2900  -43.8890 -115.8320 N.ar      1 AMP1001     0.0000 
     23 C4         46.1510  -44.3310 -116.3990 C.ar      1 AMP1001     0.0000 
@<TRIPOS>BOND
     1    1    2 ar   
     2    1    3 ar   
     3    1    4 ar   
     4    1    5 1    
     5    5    6 1    
     6    6    7 1    
     7    7    8 1    
     8    7    9 1    
     9    8   13 1    
    10    9   10 1    
    11    9   11 1    
    12   11   12 1    
    13   11   13 1    
    14   13   14 1    
    15   14   15 1    
    16   14   23 1    
    17   15   16 2    
    18   16   17 1    
    19   17   18 ar   
    20   17   23 ar   
    21   18   19 1    
    22   18   20 ar   
    23   20   21 ar   
    24   21   22 ar   
    25   22   23 ar   
@<TRIPOS>SUBSTRUCTURE
     1 AMP1001     1 GROUP   
@<TRIPOS>SET
ATOM$ORANGE STATIC     ATOMS   COLORGROUP SYSTEM 
20 6 6 7 7 9 9 11 11 13 13 15 15 17 17 18 18 21 \
21 23 23 

