#    Name: 6sy7_8_AMP
#    Modification time : Fri May 22 19:31:53 2020

@<TRIPOS>MOLECULE
6sy7_8_AMP
   23    25     1     0     1
SMALL
NO_CHARGES


@<TRIPOS>ATOM
      1 P         122.1090  -72.0880  -91.6230 P.3       1 AMP1001     0.0000 
      2 O1P       120.9850  -71.5290  -92.4770 O.co2     1 AMP1001     0.0000 
      3 O2P       123.4870  -71.5110  -91.9820 O.co2     1 AMP1001     0.0000 
      4 O3P       121.8310  -71.9920  -90.1190 O.co2     1 AMP1001     0.0000 
      5 O5'       122.1360  -73.6560  -92.0350 O.3       1 AMP1001     0.0000 
      6 C5'       122.8440  -74.5990  -91.1770 C.3       1 AMP1001     0.0000 
      7 C4'       121.8620  -75.4560  -90.4120 C.3       1 AMP1001     0.0000 
      8 O4'       122.5510  -76.6430  -89.9360 O.3       1 AMP1001     0.0000 
      9 C3'       121.2440  -74.8370  -89.1470 C.3       1 AMP1001     0.0000 
     10 O3'       120.1220  -74.0130  -89.4600 O.3       1 AMP1001     0.0000 
     11 C2'       120.8910  -76.0880  -88.3300 C.3       1 AMP1001     0.0000 
     12 O2'       119.6330  -76.6200  -88.7030 O.3       1 AMP1001     0.0000 
     13 C1'       122.0260  -77.0570  -88.6870 C.3       1 AMP1001     0.0000 
     14 N9        123.1270  -77.1610  -87.7180 N.pl3     1 AMP1001     0.0000 
     15 C8        123.6480  -76.1800  -86.9040 C.2       1 AMP1001     0.0000 
     16 N7        124.6430  -76.5950  -86.1570 N.2       1 AMP1001     0.0000 
     17 C5        124.8210  -77.9310  -86.5150 C.ar      1 AMP1001     0.0000 
     18 C6        125.7260  -78.9350  -86.0850 C.ar      1 AMP1001     0.0000 
     19 N6        126.6530  -78.7560  -85.1490 N.pl3     1 AMP1001     0.0000 
     20 N1        125.6300  -80.1640  -86.6500 N.ar      1 AMP1001     0.0000 
     21 C2        124.6880  -80.3620  -87.5860 C.ar      1 AMP1001     0.0000 
     22 N3        123.7710  -79.5120  -88.0510 N.ar      1 AMP1001     0.0000 
     23 C4        123.8890  -78.2920  -87.4760 C.ar      1 AMP1001     0.0000 
@<TRIPOS>BOND
     1    1    2 ar   
     2    1    3 ar   
     3    1    4 ar   
     4    1    5 1    
     5    5    6 1    
     6    6    7 1    
     7    7    8 1    
     8    7    9 1    
     9    8   13 1    
    10    9   10 1    
    11    9   11 1    
    12   11   12 1    
    13   11   13 1    
    14   13   14 1    
    15   14   15 1    
    16   14   23 1    
    17   15   16 2    
    18   16   17 1    
    19   17   18 ar   
    20   17   23 ar   
    21   18   19 1    
    22   18   20 ar   
    23   20   21 ar   
    24   21   22 ar   
    25   22   23 ar   
@<TRIPOS>SUBSTRUCTURE
     1 AMP1001     1 GROUP   
@<TRIPOS>SET
ATOM$ORANGE STATIC     ATOMS   COLORGROUP SYSTEM 
20 6 6 7 7 9 9 11 11 13 13 15 15 17 17 18 18 21 \
21 23 23 

