#    Name: 6sy7_1_AMP
#    Modification time : Fri May 22 19:31:19 2020

@<TRIPOS>MOLECULE
6sy7_1_AMP
   23    25     1     0     1
SMALL
NO_CHARGES


@<TRIPOS>ATOM
      1 P          46.5640  -48.3150  -88.9410 P.3       1 AMP503      0.0000 
      2 O1P        47.3290  -49.3820  -89.7110 O.co2     1 AMP503      0.0000 
      3 O2P        45.0350  -48.4100  -88.9760 O.co2     1 AMP503      0.0000 
      4 O3P        47.1040  -48.1820  -87.5170 O.co2     1 AMP503      0.0000 
      5 O5'        46.8590  -46.9240  -89.6650 O.3       1 AMP503      0.0000 
      6 C5'        46.4220  -45.7160  -88.9840 C.3       1 AMP503      0.0000 
      7 C4'        47.6010  -45.0020  -88.3670 C.3       1 AMP503      0.0000 
      8 O4'        47.2300  -43.6170  -88.1370 O.3       1 AMP503      0.0000 
      9 C3'        48.0790  -45.5100  -87.0040 C.3       1 AMP503      0.0000 
     10 O3'        49.0900  -46.4940  -87.1930 O.3       1 AMP503      0.0000 
     11 C2'        48.6650  -44.2490  -86.3610 C.3       1 AMP503      0.0000 
     12 O2'        50.0310  -44.2100  -86.7090 O.3       1 AMP503      0.0000 
     13 C1'        47.8690  -43.1010  -86.9930 C.3       1 AMP503      0.0000 
     14 N9         46.8410  -42.4950  -86.1490 N.pl3     1 AMP503      0.0000 
     15 C8         46.1020  -43.1330  -85.1910 C.2       1 AMP503      0.0000 
     16 N7         45.2600  -42.3400  -84.5760 N.2       1 AMP503      0.0000 
     17 C5         45.4320  -41.0940  -85.1750 C.ar      1 AMP503      0.0000 
     18 C6         44.8160  -39.8330  -84.9660 C.ar      1 AMP503      0.0000 
     19 N6         43.8650  -39.5910  -84.0650 N.pl3     1 AMP503      0.0000 
     20 N1         45.2270  -38.8030  -85.7300 N.ar      1 AMP503      0.0000 
     21 C2         46.1680  -39.0460  -86.6460 C.ar      1 AMP503      0.0000 
     22 N3         46.8290  -40.1720  -86.9170 N.ar      1 AMP503      0.0000 
     23 C4         46.4090  -41.1840  -86.1450 C.ar      1 AMP503      0.0000 
@<TRIPOS>BOND
     1    1    2 ar   
     2    1    3 ar   
     3    1    4 ar   
     4    1    5 1    
     5    5    6 1    
     6    6    7 1    
     7    7    8 1    
     8    7    9 1    
     9    8   13 1    
    10    9   10 1    
    11    9   11 1    
    12   11   12 1    
    13   11   13 1    
    14   13   14 1    
    15   14   15 1    
    16   14   23 1    
    17   15   16 2    
    18   16   17 1    
    19   17   18 ar   
    20   17   23 ar   
    21   18   19 1    
    22   18   20 ar   
    23   20   21 ar   
    24   21   22 ar   
    25   22   23 ar   
@<TRIPOS>SUBSTRUCTURE
     1 AMP503      1 GROUP   
@<TRIPOS>SET
ATOM$ORANGE STATIC     ATOMS   COLORGROUP SYSTEM 
20 6 6 7 7 9 9 11 11 13 13 15 15 17 17 18 18 21 \
21 23 23 

