#    Name: 6sy7_2_AMP_CAVITY_N1_6
#    Modification time : Fri May 22 19:31:27 2020

@<TRIPOS>MOLECULE
6sy7_2_AMP_CAVITY_N1_6
   33     0     5     0     0
SMALL
NO_CHARGES


@<TRIPOS>ATOM
      1 OG         68.5000   -6.0400 -107.5000 O.3       1 SER1        0.0000 
      2 OG         68.4000   -4.3900 -106.1600 O.3       1 SER1        0.0000 
      3 OG         68.7700   -4.0600 -108.2200 O.3       1 SER1        0.0000 
      4 OG         69.4100   -4.8900 -107.1500 O.3       1 SER1        0.0000 
      5 OG         69.3000   -3.2500 -105.8100 O.3       1 SER1        0.0000 
      6 N          64.9800   -0.1000 -104.9900 N.am      2 ALA2        0.0000 
      7 N          68.6600   -2.4200 -106.8800 N.am      2 ALA2        0.0000 
      8 N          69.6700   -2.9100 -107.8700 N.am      2 ALA2        0.0000 
      9 N          70.2000   -2.1000 -105.4600 N.am      2 ALA2        0.0000 
     10 N          71.2200   -2.6000 -106.4500 N.am      2 ALA2        0.0000 
     11 OD1        64.6100   -0.4300 -102.9200 O.co2     3 ASP3        0.0000 
     12 OD1        65.6200   -0.9300 -103.9100 O.co2     3 ASP3        0.0000 
     13 OD1        68.2900   -2.7500 -104.8200 O.co2     3 ASP3        0.0000 
     14 OD1        69.9400   -4.0800 -104.7400 O.co2     3 ASP3        0.0000 
     15 OD1        65.1400    0.3800 -100.5100 O.co2     3 ASP3        0.0000 
     16 OD1        65.5100    0.7100 -102.5700 O.co2     3 ASP3        0.0000 
     17 OD1        66.1500   -0.1200 -101.5000 O.co2     3 ASP3        0.0000 
     18 OD1        66.5300    0.2200 -103.5600 O.co2     3 ASP3        0.0000 
     19 OD1        67.5400   -0.2800 -104.5500 O.co2     3 ASP3        0.0000 
     20 OD1        69.1900   -1.6100 -104.4700 O.co2     3 ASP3        0.0000 
     21 OD1        70.8400   -2.9400 -104.3900 O.co2     3 ASP3        0.0000 
     22 OD1        71.8500   -3.4300 -105.3700 O.co2     3 ASP3        0.0000 
     23 OD1        67.6900    0.2000 -100.0800 O.co2     3 ASP3        0.0000 
     24 OD1        68.0700    0.5300 -102.1400 O.co2     3 ASP3        0.0000 
     25 OD1        69.0800    0.0300 -103.1300 O.co2     3 ASP3        0.0000 
     26 OD1        70.7300   -1.2900 -103.0500 O.co2     3 ASP3        0.0000 
     27 OD1        71.7500   -1.7900 -104.0400 O.co2     3 ASP3        0.0000 
     28 CA         63.6000    0.0700 -101.9400 C.3       4 GLY6        0.0000 
     29 CA         71.5900   -5.4100 -104.6500 C.3       4 GLY6        0.0000 
     30 CA         71.4800   -3.7700 -103.3100 C.3       4 GLY6        0.0000 
     31 CA         72.4900   -4.2600 -104.3000 C.3       4 GLY6        0.0000 
     32 CA         72.3800   -2.6200 -102.9600 C.3       4 GLY6        0.0000 
     33 DU         70.3100   -3.7500 -106.8000 H         5 CUB7        0.0000 
@<TRIPOS>BOND
@<TRIPOS>SUBSTRUCTURE
     1 SER1        1 GROUP   
     2 ALA2        6 GROUP   
     3 ASP3       11 GROUP   
     4 GLY6       28 GROUP   
     5 CUB7       33 GROUP   
@<TRIPOS>SET

