#    Name: 6sy7_2_AMP
#    Modification time : Fri May 22 19:31:26 2020

@<TRIPOS>MOLECULE
6sy7_2_AMP
   23    25     1     0     1
SMALL
NO_CHARGES


@<TRIPOS>ATOM
      1 P          66.9290   -6.0250 -102.7930 P.3       1 AMP1001     0.0000 
      2 O1P        66.8590   -5.9980 -104.3100 O.co2     1 AMP1001     0.0000 
      3 O2P        68.3340   -6.1180 -102.1640 O.co2     1 AMP1001     0.0000 
      4 O3P        66.0600   -4.9520 -102.1280 O.co2     1 AMP1001     0.0000 
      5 O5'        66.3010   -7.4570 -102.4350 O.3       1 AMP1001     0.0000 
      6 C5'        66.1250   -7.7810 -101.0250 C.3       1 AMP1001     0.0000 
      7 C4'        64.6660   -8.0360 -100.7090 C.3       1 AMP1001     0.0000 
      8 O4'        64.5880   -8.5610  -99.3590 O.3       1 AMP1001     0.0000 
      9 C3'        63.7220   -6.8240 -100.6760 C.3       1 AMP1001     0.0000 
     10 O3'        63.2390   -6.4220 -101.9550 O.3       1 AMP1001     0.0000 
     11 C2'        62.5850   -7.3610  -99.8040 C.3       1 AMP1001     0.0000 
     12 O2'        61.6590   -8.0930 -100.5810 O.3       1 AMP1001     0.0000 
     13 C1'        63.3210   -8.2650  -98.8070 C.3       1 AMP1001     0.0000 
     14 N9         63.4930   -7.6910  -97.4640 N.pl3     1 AMP1001     0.0000 
     15 C8         63.8270   -6.3920  -97.1540 C.2       1 AMP1001     0.0000 
     16 N7         63.8900   -6.1680  -95.8560 N.2       1 AMP1001     0.0000 
     17 C5         63.5850   -7.4070  -95.2600 C.ar      1 AMP1001     0.0000 
     18 C6         63.5880   -7.8350  -93.9050 C.ar      1 AMP1001     0.0000 
     19 N6         63.8420   -7.0440  -92.8530 N.pl3     1 AMP1001     0.0000 
     20 N1         63.3920   -9.1440  -93.6780 N.ar      1 AMP1001     0.0000 
     21 C2         63.1520   -9.9490  -94.7320 C.ar      1 AMP1001     0.0000 
     22 N3         63.0540   -9.6560  -96.0360 N.ar      1 AMP1001     0.0000 
     23 C4         63.3330   -8.3550  -96.2440 C.ar      1 AMP1001     0.0000 
@<TRIPOS>BOND
     1    1    2 ar   
     2    1    3 ar   
     3    1    4 ar   
     4    1    5 1    
     5    5    6 1    
     6    6    7 1    
     7    7    8 1    
     8    7    9 1    
     9    8   13 1    
    10    9   10 1    
    11    9   11 1    
    12   11   12 1    
    13   11   13 1    
    14   13   14 1    
    15   14   15 1    
    16   14   23 1    
    17   15   16 2    
    18   16   17 1    
    19   17   18 ar   
    20   17   23 ar   
    21   18   19 1    
    22   18   20 ar   
    23   20   21 ar   
    24   21   22 ar   
    25   22   23 ar   
@<TRIPOS>SUBSTRUCTURE
     1 AMP1001     1 GROUP   
@<TRIPOS>SET
ATOM$ORANGE STATIC     ATOMS   COLORGROUP SYSTEM 
20 6 6 7 7 9 9 11 11 13 13 15 15 17 17 18 18 21 \
21 23 23 

