#    Name: 6sy7_6_AMP
#    Modification time : Fri May 22 19:31:40 2020

@<TRIPOS>MOLECULE
6sy7_6_AMP
   23    25     1     0     1
SMALL
NO_CHARGES


@<TRIPOS>ATOM
      1 P          92.8370 -107.5820 -103.8710 P.3       1 AMP1002     0.0000 
      2 O1P        91.8110 -106.7710 -104.6610 O.co2     1 AMP1002     0.0000 
      3 O2P        92.6540 -107.4220 -102.3630 O.co2     1 AMP1002     0.0000 
      4 O3P        92.9510 -109.0230 -104.3580 O.co2     1 AMP1002     0.0000 
      5 O5'        94.2720 -106.9480 -104.2110 O.3       1 AMP1002     0.0000 
      6 C5'        94.5610 -106.6620 -105.6110 C.3       1 AMP1002     0.0000 
      7 C4'        94.6370 -105.1690 -105.8560 C.3       1 AMP1002     0.0000 
      8 O4'        95.3270 -104.9520 -107.1150 O.3       1 AMP1002     0.0000 
      9 C3'        93.3100 -104.4030 -105.9950 C.3       1 AMP1002     0.0000 
     10 O3'        92.8010 -103.9690 -104.7310 O.3       1 AMP1002     0.0000 
     11 C2'        93.6860 -103.2420 -106.9360 C.3       1 AMP1002     0.0000 
     12 O2'        94.0660 -102.0690 -106.2520 O.3       1 AMP1002     0.0000 
     13 C1'        94.8600 -103.7880 -107.7590 C.3       1 AMP1002     0.0000 
     14 N9         94.5450 -104.1580 -109.1380 N.pl3     1 AMP1002     0.0000 
     15 C8         93.4010 -104.7520 -109.6170 C.2       1 AMP1002     0.0000 
     16 N7         93.4300 -104.9720 -110.9090 N.2       1 AMP1002     0.0000 
     17 C5         94.6820 -104.5180 -111.3120 C.ar      1 AMP1002     0.0000 
     18 C6         95.3340 -104.4800 -112.5670 C.ar      1 AMP1002     0.0000 
     19 N6         94.8070 -104.9260 -113.7040 N.pl3     1 AMP1002     0.0000 
     20 N1         96.5850 -103.9650 -112.6040 N.ar      1 AMP1002     0.0000 
     21 C2         97.1260 -103.5160 -111.4680 C.ar      1 AMP1002     0.0000 
     22 N3         96.6110 -103.4920 -110.2420 N.ar      1 AMP1002     0.0000 
     23 C4         95.3760 -104.0150 -110.2250 C.ar      1 AMP1002     0.0000 
@<TRIPOS>BOND
     1    1    2 ar   
     2    1    3 ar   
     3    1    4 ar   
     4    1    5 1    
     5    5    6 1    
     6    6    7 1    
     7    7    8 1    
     8    7    9 1    
     9    8   13 1    
    10    9   10 1    
    11    9   11 1    
    12   11   12 1    
    13   11   13 1    
    14   13   14 1    
    15   14   15 1    
    16   14   23 1    
    17   15   16 2    
    18   16   17 1    
    19   17   18 ar   
    20   17   23 ar   
    21   18   19 1    
    22   18   20 ar   
    23   20   21 ar   
    24   21   22 ar   
    25   22   23 ar   
@<TRIPOS>SUBSTRUCTURE
     1 AMP1002     1 GROUP   
@<TRIPOS>SET
ATOM$ORANGE STATIC     ATOMS   COLORGROUP SYSTEM 
20 6 6 7 7 9 9 11 11 13 13 15 15 17 17 18 18 21 \
21 23 23 

