#    Name: 6sy7_8_AMP_CAVITY_N1_4
#    Modification time : Fri May 22 19:31:54 2020

@<TRIPOS>MOLECULE
6sy7_8_AMP_CAVITY_N1_4
   81     0     5     0     0
SMALL
NO_CHARGES


@<TRIPOS>ATOM
      1 OG        124.9500  -80.2600  -87.5200 O.3       1 SER1        0.0000 
      2 OG        125.5900  -81.0900  -86.4400 O.3       1 SER1        0.0000 
      3 OG        119.0900  -71.1300  -95.8300 O.3       1 SER1        0.0000 
      4 OG        119.7300  -71.9600  -94.7500 O.3       1 SER1        0.0000 
      5 OG        120.3700  -72.7900  -93.6800 O.3       1 SER1        0.0000 
      6 OG        125.8600  -79.1100  -87.1700 O.3       1 SER1        0.0000 
      7 OG        118.9800  -69.4900  -94.4900 O.3       1 SER1        0.0000 
      8 OG        119.6200  -70.3200  -93.4100 O.3       1 SER1        0.0000 
      9 OG        122.9300  -72.9700  -93.2500 O.3       1 SER1        0.0000 
     10 OG        123.5700  -73.8100  -92.1800 O.3       1 SER1        0.0000 
     11 OG        119.8900  -68.3400  -94.1400 O.3       1 SER1        0.0000 
     12 OG        121.1700  -70.0000  -91.9900 O.3       1 SER1        0.0000 
     13 OG        121.5400  -69.6700  -94.0500 O.3       1 SER1        0.0000 
     14 OG        122.5500  -70.1700  -95.0400 O.3       1 SER1        0.0000 
     15 OG        123.1900  -71.0000  -93.9700 O.3       1 SER1        0.0000 
     16 OG        123.8300  -71.8300  -92.9000 O.3       1 SER1        0.0000 
     17 OG        121.4300  -68.0300  -92.7100 O.3       1 SER1        0.0000 
     18 N         120.3700  -75.9400  -89.8300 N.am      2 ALA2        0.0000 
     19 N         121.0100  -76.7700  -88.7500 N.am      2 ALA2        0.0000 
     20 N         121.3800  -76.4300  -90.8100 N.am      2 ALA2        0.0000 
     21 N         122.6600  -78.1000  -88.6700 N.am      2 ALA2        0.0000 
     22 O         120.2600  -74.2900  -88.4900 O.2       2 ALA2        0.0000 
     23 N         120.9000  -75.1300  -87.4100 N.am      2 ALA2        0.0000 
     24 N         121.9100  -75.6200  -88.4000 N.am      2 ALA2        0.0000 
     25 N         122.5500  -76.4500  -87.3300 N.am      2 ALA2        0.0000 
     26 N         121.8100  -73.9800  -87.0600 N.am      2 ALA2        0.0000 
     27 O         122.8200  -74.4800  -88.0500 O.2       2 ALA2        0.0000 
     28 O         123.4600  -75.3100  -86.9800 O.2       2 ALA2        0.0000 
     29 OD1       120.7500  -75.6000  -91.8900 O.co2     3 ASP3        0.0000 
     30 OD1       124.3100  -79.4200  -88.5900 O.co2     3 ASP3        0.0000 
     31 OD1       120.0000  -73.1300  -91.6200 O.co2     3 ASP3        0.0000 
     32 OD1       120.6400  -73.9600  -90.5500 O.co2     3 ASP3        0.0000 
     33 OD1       121.6500  -74.4600  -91.5400 O.co2     3 ASP3        0.0000 
     34 OD1       122.2900  -75.2900  -90.4600 O.co2     3 ASP3        0.0000 
     35 OD1       122.6600  -74.9500  -92.5300 O.co2     3 ASP3        0.0000 
     36 OD1       121.1700  -73.1500  -88.1400 O.co2     3 ASP3        0.0000 
     37 OD1       120.9000  -71.9800  -91.2700 O.co2     3 ASP3        0.0000 
     38 OD1       121.5400  -72.8100  -90.2000 O.co2     3 ASP3        0.0000 
     39 OD1       122.1800  -73.6500  -89.1300 O.co2     3 ASP3        0.0000 
     40 OD1       121.2700  -71.6500  -93.3300 O.co2     3 ASP3        0.0000 
     41 OD1       121.9100  -72.4800  -92.2600 O.co2     3 ASP3        0.0000 
     42 OD1       123.0800  -72.5000  -88.7800 O.co2     3 ASP3        0.0000 
     43 OD1       122.8200  -71.3300  -91.9100 O.co2     3 ASP3        0.0000 
     44 OD1       123.4600  -72.1600  -90.8400 O.co2     3 ASP3        0.0000 
     45 OD1       124.1000  -73.0000  -89.7600 O.co2     3 ASP3        0.0000 
     46 OD1       122.0700  -68.8600  -91.6400 O.co2     3 ASP3        0.0000 
     47 OD1       123.0800  -69.3600  -92.6300 O.co2     3 ASP3        0.0000 
     48 OD1       122.9700  -67.7100  -91.2900 O.co2     3 ASP3        0.0000 
     49 OD1       123.9800  -68.2100  -92.2800 O.co2     3 ASP3        0.0000 
     50 CA        122.4000  -80.0700  -87.9500 C.3       4 GLY6        0.0000 
     51 CA        123.0400  -80.9100  -86.8800 C.3       4 GLY6        0.0000 
     52 CA        123.4100  -80.5700  -88.9400 C.3       4 GLY6        0.0000 
     53 CA        124.0500  -81.4000  -87.8700 C.3       4 GLY6        0.0000 
     54 CA        121.6500  -77.6000  -87.6800 C.3       4 GLY6        0.0000 
     55 CA        123.3000  -78.9300  -87.6000 C.3       4 GLY6        0.0000 
     56 CA        123.9400  -79.7600  -86.5300 C.3       4 GLY6        0.0000 
     57 CA        121.0100  -73.6200  -92.6100 C.3       4 GLY6        0.0000 
     58 CA        122.9300  -76.1200  -89.3900 C.3       4 GLY6        0.0000 
     59 CA        123.5700  -76.9500  -88.3200 C.3       4 GLY6        0.0000 
     60 CA        124.2100  -77.7800  -87.2500 C.3       4 GLY6        0.0000 
     61 CA        124.8500  -78.6100  -86.1800 C.3       4 GLY6        0.0000 
     62 CA        120.7400  -72.4600  -95.7400 C.3       4 GLY6        0.0000 
     63 CA        125.2200  -78.2800  -88.2400 C.3       4 GLY6        0.0000 
     64 CA        123.1900  -74.1400  -90.1100 C.3       4 GLY6        0.0000 
     65 CA        123.8300  -74.9700  -89.0400 C.3       4 GLY6        0.0000 
     66 CA        124.4700  -75.8100  -87.9700 C.3       4 GLY6        0.0000 
     67 CA        125.1100  -76.6400  -86.9000 C.3       4 GLY6        0.0000 
     68 CA        121.6500  -71.3100  -95.3900 C.3       4 GLY6        0.0000 
     69 CA        122.2900  -72.1400  -94.3200 C.3       4 GLY6        0.0000 
     70 CA        124.2000  -74.6400  -91.1000 C.3       4 GLY6        0.0000 
     71 CA        124.4700  -72.6600  -91.8300 C.3       4 GLY6        0.0000 
     72 CA        124.0900  -69.8500  -93.6200 C.3       4 GLY6        0.0000 
     73 CA        125.0000  -68.7100  -93.2700 C.3       4 GLY6        0.0000 
     74 DU        121.2800  -74.7900  -89.4800 H         5 CUB7        0.0000 
     75 DU        120.0000  -69.9800  -95.4800 H         5 CUB7        0.0000 
     76 DU        120.6400  -70.8100  -94.4000 H         5 CUB7        0.0000 
     77 DU        122.5500  -73.3100  -91.1900 H         5 CUB7        0.0000 
     78 DU        120.9000  -68.8400  -95.1300 H         5 CUB7        0.0000 
     79 DU        122.1800  -70.5000  -92.9800 H         5 CUB7        0.0000 
     80 DU        122.4400  -68.5200  -93.7000 H         5 CUB7        0.0000 
     81 DU        123.4500  -69.0200  -94.6900 H         5 CUB7        0.0000 
@<TRIPOS>BOND
@<TRIPOS>SUBSTRUCTURE
     1 SER1        1 GROUP   
     2 ALA2       18 GROUP   
     3 ASP3       29 GROUP   
     4 GLY6       50 GROUP   
     5 CUB7       74 GROUP   
@<TRIPOS>SET

