#    Name: 6sy7_7_AMP_CAVITY_N1_8
#    Modification time : Fri May 22 19:31:48 2020

@<TRIPOS>MOLECULE
6sy7_7_AMP_CAVITY_N1_8
  126     0     6     0     0
SMALL
NO_CHARGES


@<TRIPOS>ATOM
      1 OG        112.7200 -123.4200 -101.1200 O.3       1 SER1        0.0000 
      2 OG        113.3500 -124.2500 -100.0500 O.3       1 SER1        0.0000 
      3 OG        110.5800 -120.7900  -97.8100 O.3       1 SER1        0.0000 
      4 OG        110.3200 -119.6200 -100.9400 O.3       1 SER1        0.0000 
      5 OG        110.9500 -120.4500  -99.8700 O.3       1 SER1        0.0000 
      6 OG        111.5900 -121.2800  -98.8000 O.3       1 SER1        0.0000 
      7 OG        112.6100 -121.7800  -99.7900 O.3       1 SER1        0.0000 
      8 OG        113.2500 -122.6100  -98.7100 O.3       1 SER1        0.0000 
      9 OG        112.9800 -121.4500 -101.8500 O.3       1 SER1        0.0000 
     10 OG        114.9000 -123.9400  -98.6300 O.3       1 SER1        0.0000 
     11 OG        112.5000 -120.1400  -98.4500 O.3       1 SER1        0.0000 
     12 OG        113.2400 -119.4700 -102.5700 O.3       1 SER1        0.0000 
     13 OG        114.5200 -121.1300 -100.4200 O.3       1 SER1        0.0000 
     14 OG        113.7700 -118.6600 -100.1600 O.3       1 SER1        0.0000 
     15 OG        114.6800 -117.5100  -99.8100 O.3       1 SER1        0.0000 
     16 OG        116.2700 -118.2300  -88.7200 O.3       1 SER1        0.0000 
     17 OG        115.5200 -115.7500  -88.4500 O.3       1 SER1        0.0000 
     18 OG        115.8900 -115.4200  -90.5100 O.3       1 SER1        0.0000 
     19 N         111.4400 -124.9000  -99.4100 N.am      2 ALA2        0.0000 
     20 N         111.8100 -124.5700 -101.4700 N.am      2 ALA2        0.0000 
     21 N         112.4500 -125.4000 -100.4000 N.am      2 ALA2        0.0000 
     22 N         113.9900 -125.0900  -98.9800 N.am      2 ALA2        0.0000 
     23 N         118.8400 -127.4300  -97.3900 N.am      2 ALA2        0.0000 
     24 N         116.3300 -125.1300  -92.0100 N.am      2 ALA2        0.0000 
     25 N         116.7100 -124.8000  -94.0800 N.am      2 ALA2        0.0000 
     26 N         117.3400 -125.6300  -93.0000 N.am      2 ALA2        0.0000 
     27 N         117.6100 -123.6500  -93.7300 N.am      2 ALA2        0.0000 
     28 O         116.2200 -120.3400  -94.5300 O.2       2 ALA2        0.0000 
     29 O         117.8700 -121.6700  -94.4500 O.2       2 ALA2        0.0000 
     30 O         118.5100 -122.5000  -93.3800 O.2       2 ALA2        0.0000 
     31 O         116.1100 -118.7000  -93.1900 O.2       2 ALA2        0.0000 
     32 N         117.1200 -119.2000  -94.1800 N.am      2 ALA2        0.0000 
     33 N         117.7600 -120.0300  -93.1100 N.am      2 ALA2        0.0000 
     34 O         116.8600 -118.0300  -97.3100 O.2       2 ALA2        0.0000 
     35 O         117.5000 -118.8600  -96.2400 O.2       2 ALA2        0.0000 
     36 O         116.6400 -117.8900  -90.7800 O.2       2 ALA2        0.0000 
     37 N         116.3800 -116.7300  -93.9100 N.am      2 ALA2        0.0000 
     38 N         116.7500 -116.3900  -95.9700 N.am      2 ALA2        0.0000 
     39 N         117.3900 -117.2200  -94.9000 N.am      2 ALA2        0.0000 
     40 N         118.4000 -117.7200  -95.8900 N.am      2 ALA2        0.0000 
     41 N         117.2800 -115.5800  -93.5600 N.am      2 ALA2        0.0000 
     42 OD1       112.0800 -125.7300  -98.3400 O.co2     3 ASP3        0.0000 
     43 OD1       111.3300 -123.2600  -98.0700 O.co2     3 ASP3        0.0000 
     44 OD1       112.3400 -123.7600  -99.0600 O.co2     3 ASP3        0.0000 
     45 OD1       112.9800 -124.5900  -97.9900 O.co2     3 ASP3        0.0000 
     46 OD1       114.6300 -125.9200  -97.9100 O.co2     3 ASP3        0.0000 
     47 OD1       115.2700 -126.7500  -96.8400 O.co2     3 ASP3        0.0000 
     48 OD1       115.9100 -127.5800  -95.7600 O.co2     3 ASP3        0.0000 
     49 OD1       115.4300 -126.2800  -92.3600 O.co2     3 ASP3        0.0000 
     50 OD1       113.8800 -123.4400  -97.6400 O.co2     3 ASP3        0.0000 
     51 OD1       115.8000 -125.9400  -94.4300 O.co2     3 ASP3        0.0000 
     52 OD1       116.4400 -126.7700  -93.3500 O.co2     3 ASP3        0.0000 
     53 OD1       115.5400 -124.7700  -97.5600 O.co2     3 ASP3        0.0000 
     54 OD1       116.1800 -125.6000  -96.4900 O.co2     3 ASP3        0.0000 
     55 OD1       116.8100 -126.4400  -95.4100 O.co2     3 ASP3        0.0000 
     56 OD1       113.5100 -120.6400  -99.4400 O.co2     3 ASP3        0.0000 
     57 OD1       114.1500 -121.4700  -98.3600 O.co2     3 ASP3        0.0000 
     58 OD1       114.7900 -122.3000  -97.2900 O.co2     3 ASP3        0.0000 
     59 OD1       115.4300 -123.1300  -96.2200 O.co2     3 ASP3        0.0000 
     60 OD1       116.0700 -123.9600  -95.1500 O.co2     3 ASP3        0.0000 
     61 OD1       113.8800 -120.3000 -101.5000 O.co2     3 ASP3        0.0000 
     62 OD1       114.4100 -119.4900  -99.0900 O.co2     3 ASP3        0.0000 
     63 OD1       115.0500 -120.3200  -98.0100 O.co2     3 ASP3        0.0000 
     64 OD1       115.6900 -121.1500  -96.9400 O.co2     3 ASP3        0.0000 
     65 OD1       116.3300 -121.9900  -95.8700 O.co2     3 ASP3        0.0000 
     66 OD1       116.9700 -122.8200  -94.8000 O.co2     3 ASP3        0.0000 
     67 OD1       118.2500 -124.4800  -92.6500 O.co2     3 ASP3        0.0000 
     68 OD1       118.8900 -125.3100  -91.5800 O.co2     3 ASP3        0.0000 
     69 OD1       114.7900 -119.1500 -101.1500 O.co2     3 ASP3        0.0000 
     70 OD1       119.2600 -124.9800  -93.6400 O.co2     3 ASP3        0.0000 
     71 OD1       115.3200 -118.3500  -98.7400 O.co2     3 ASP3        0.0000 
     72 OD1       115.9600 -119.1800  -97.6600 O.co2     3 ASP3        0.0000 
     73 OD1       116.5900 -120.0100  -96.5900 O.co2     3 ASP3        0.0000 
     74 OD1       117.2300 -120.8400  -95.5200 O.co2     3 ASP3        0.0000 
     75 OD1       120.1600 -123.8300  -93.2900 O.co2     3 ASP3        0.0000 
     76 OD1       114.8300 -117.0400  -95.3400 O.co2     3 ASP3        0.0000 
     77 OD1       115.8500 -117.5400  -96.3200 O.co2     3 ASP3        0.0000 
     78 OD1       116.2200 -117.2000  -98.3900 O.co2     3 ASP3        0.0000 
     79 OD1       117.2300 -117.7000  -99.3700 O.co2     3 ASP3        0.0000 
     80 OD1       116.2700 -115.0800  -92.5700 O.co2     3 ASP3        0.0000 
     81 CZ        115.6900 -118.0100 -100.8000 C.ar      4 PHE5        0.0000 
     82 CA        108.7700 -123.0800  -98.5100 C.3       5 GLY6        0.0000 
     83 CA        109.6800 -121.9300  -98.1600 C.3       5 GLY6        0.0000 
     84 CA        110.0500 -121.6000 -100.2200 C.3       5 GLY6        0.0000 
     85 CA        116.2800 -127.2500  -97.8300 C.3       5 GLY6        0.0000 
     86 CA        116.9200 -128.0800  -96.7500 C.3       5 GLY6        0.0000 
     87 CA        112.2300 -122.1200  -97.7200 C.3       5 GLY6        0.0000 
     88 CA        116.5500 -125.2700  -98.5500 C.3       5 GLY6        0.0000 
     89 CA        111.8600 -119.3100  -99.5200 C.3       5 GLY6        0.0000 
     90 CA        113.1400 -120.9700  -97.3700 C.3       5 GLY6        0.0000 
     91 CA        112.8700 -119.8000 -100.5100 C.3       5 GLY6        0.0000 
     92 CA        113.6700 -120.1600  -94.9600 C.3       5 GLY6        0.0000 
     93 CA        113.4000 -118.9900  -98.1000 C.3       5 GLY6        0.0000 
     94 CA        114.6800 -120.6600  -95.9500 C.3       5 GLY6        0.0000 
     95 CA        115.3200 -121.4900  -94.8800 C.3       5 GLY6        0.0000 
     96 CA        120.2700 -125.4800  -94.6300 C.3       5 GLY6        0.0000 
     97 CA        114.5700 -119.0200  -94.6100 C.3       5 GLY6        0.0000 
     98 CA        114.3000 -117.8500  -97.7500 C.3       5 GLY6        0.0000 
     99 CA        119.5300 -123.0000  -94.3600 C.3       5 GLY6        0.0000 
    100 CA        115.4700 -117.8700  -94.2600 C.3       5 GLY6        0.0000 
    101 CA        114.9900 -116.5600  -90.8600 C.3       5 GLY6        0.0000 
    102 CA        115.6300 -117.4000  -89.7900 C.3       5 GLY6        0.0000 
    103 CA        116.0000 -117.0600  -91.8500 C.3       5 GLY6        0.0000 
    104 CA        117.0200 -117.5600  -92.8400 C.3       5 GLY6        0.0000 
    105 CA        117.7600 -116.8900  -96.9600 C.3       5 GLY6        0.0000 
    106 CA        116.5300 -116.2500  -89.4400 C.3       5 GLY6        0.0000 
    107 CA        117.1700 -117.0800  -88.3700 C.3       5 GLY6        0.0000 
    108 CA        116.9100 -115.9200  -91.5000 C.3       5 GLY6        0.0000 
    109 CA        116.8000 -114.2700  -90.1600 C.3       5 GLY6        0.0000 
    110 CA        117.1700 -113.9400  -92.2200 C.3       5 GLY6        0.0000 
    111 DU        109.7900 -123.5700  -99.5000 H         6 CUB7        0.0000 
    112 DU        110.4300 -124.4100  -98.4200 H         6 CUB7        0.0000 
    113 DU        110.8000 -124.0700 -100.4900 H         6 CUB7        0.0000 
    114 DU        110.6900 -122.4300  -99.1500 H         6 CUB7        0.0000 
    115 DU        111.0600 -122.0900 -101.2100 H         6 CUB7        0.0000 
    116 DU        111.7000 -122.9300 -100.1400 H         6 CUB7        0.0000 
    117 DU        112.0800 -122.5900 -102.2000 H         6 CUB7        0.0000 
    118 DU        111.3300 -120.1200 -101.9300 H         6 CUB7        0.0000 
    119 DU        111.9700 -120.9500 -100.8600 H         6 CUB7        0.0000 
    120 DU        117.4500 -127.2700  -94.3400 H         6 CUB7        0.0000 
    121 DU        118.3600 -126.1200  -93.9900 H         6 CUB7        0.0000 
    122 DU        119.3700 -126.6200  -94.9800 H         6 CUB7        0.0000 
    123 DU        114.0400 -119.8300  -97.0200 H         6 CUB7        0.0000 
    124 DU        114.9400 -118.6800  -96.6700 H         6 CUB7        0.0000 
    125 DU        115.5800 -119.5100  -95.6000 H         6 CUB7        0.0000 
    126 DU        116.4900 -118.3700  -95.2500 H         6 CUB7        0.0000 
@<TRIPOS>BOND
@<TRIPOS>SUBSTRUCTURE
     1 SER1        1 GROUP   
     2 ALA2       19 GROUP   
     3 ASP3       42 GROUP   
     4 PHE5       81 GROUP   
     5 GLY6       82 GROUP   
     6 CUB7      111 GROUP   
@<TRIPOS>SET

