#    Name: 6sy7_6_AMP_CAVITY_N1_4
#    Modification time : Fri May 22 19:31:41 2020

@<TRIPOS>MOLECULE
6sy7_6_AMP_CAVITY_N1_4
   70     0     6     0     0
SMALL
NO_CHARGES


@<TRIPOS>ATOM
      1 OG         93.6400 -109.9500 -102.3900 O.3       1 SER1        0.0000 
      2 OG         94.2800 -110.7900 -101.3200 O.3       1 SER1        0.0000 
      3 OG         94.0200 -109.6200 -104.4500 O.3       1 SER1        0.0000 
      4 OG         94.9200 -108.4700 -104.1000 O.3       1 SER1        0.0000 
      5 OG         93.4200 -106.6700  -99.7100 O.3       1 SER1        0.0000 
      6 OG         94.4400 -107.1700 -100.7000 O.3       1 SER1        0.0000 
      7 OG         95.0800 -108.0000  -99.6300 O.3       1 SER1        0.0000 
      8 OG         95.6700 -104.6600 -112.0800 O.3       1 SER1        0.0000 
      9 OG         95.7100 -105.6900 -102.4100 O.3       1 SER1        0.0000 
     10 O          92.3600 -105.1500 -108.3900 O.2       2 ALA2        0.0000 
     11 O          93.0000 -105.9800 -107.3200 O.2       2 ALA2        0.0000 
     12 O          93.3800 -105.6400 -109.3800 O.2       2 ALA2        0.0000 
     13 N          92.2500 -103.5000 -107.0500 N.am      2 ALA2        0.0000 
     14 O          92.8900 -104.3400 -105.9800 O.2       2 ALA2        0.0000 
     15 N          93.2700 -104.0000 -108.0400 N.am      2 ALA2        0.0000 
     16 O          93.4200 -103.5300 -103.5700 O.2       2 ALA2        0.0000 
     17 N          93.8000 -103.1900 -105.6300 N.am      2 ALA2        0.0000 
     18 N          94.4400 -104.0200 -104.5500 N.am      2 ALA2        0.0000 
     19 N          94.1700 -102.8600 -107.6900 N.am      2 ALA2        0.0000 
     20 N          94.8100 -103.6900 -106.6200 N.am      2 ALA2        0.0000 
     21 N          95.4500 -104.5200 -105.5400 N.am      2 ALA2        0.0000 
     22 N          95.1800 -103.3500 -108.6800 N.am      2 ALA2        0.0000 
     23 OD1        92.3600 -108.2900 -104.5300 O.co2     3 ASP3        0.0000 
     24 OD1        93.0000 -109.1200 -103.4600 O.co2     3 ASP3        0.0000 
     25 OD1        92.7400 -107.9500 -106.5900 O.co2     3 ASP3        0.0000 
     26 OD1        91.6200 -105.8200 -104.2700 O.co2     3 ASP3        0.0000 
     27 OD1        92.8900 -107.4800 -102.1200 O.co2     3 ASP3        0.0000 
     28 OD1        91.9900 -105.4800 -106.3300 O.co2     3 ASP3        0.0000 
     29 OD1        92.6300 -106.3100 -105.2500 O.co2     3 ASP3        0.0000 
     30 OD1        93.2700 -107.1400 -104.1800 O.co2     3 ASP3        0.0000 
     31 OD1        92.5200 -104.6700 -103.9200 O.co2     3 ASP3        0.0000 
     32 OD1        93.8000 -106.3400 -101.7700 O.co2     3 ASP3        0.0000 
     33 OD1        94.1700 -106.0000 -103.8300 O.co2     3 ASP3        0.0000 
     34 OD1        94.5500 -105.6600 -105.8900 O.co2     3 ASP3        0.0000 
     35 OD1        95.1800 -106.5000 -104.8200 O.co2     3 ASP3        0.0000 
     36 OD1        95.5600 -106.1600 -106.8800 O.co2     3 ASP3        0.0000 
     37 OD1        94.0600 -104.3600 -102.4900 O.co2     3 ASP3        0.0000 
     38 OD1        96.0900 -105.3500 -104.4700 O.co2     3 ASP3        0.0000 
     39 OD1        96.2000 -103.8500 -109.6700 O.co2     3 ASP3        0.0000 
     40 OD1        97.2100 -104.3400 -110.6500 O.co2     3 ASP3        0.0000 
     41 CZ         94.7000 -105.1900 -101.4200 C.ar      4 PHE5        0.0000 
     42 CZ         95.0800 -104.8500 -103.4800 C.ar      4 PHE5        0.0000 
     43 CA         92.1000 -110.2700 -103.8100 C.3       5 GLY6        0.0000 
     44 CA         92.7400 -111.1000 -102.7400 C.3       5 GLY6        0.0000 
     45 CA         93.3800 -111.9300 -101.6700 C.3       5 GLY6        0.0000 
     46 CA         93.7500 -111.6000 -103.7300 C.3       5 GLY6        0.0000 
     47 CA         93.3800 -108.7900 -105.5200 C.3       5 GLY6        0.0000 
     48 CA         94.1700 -109.1400  -99.9800 C.3       5 GLY6        0.0000 
     49 CA         93.9100 -107.9800 -103.1100 C.3       5 GLY6        0.0000 
     50 CA         94.5500 -108.8100 -102.0400 C.3       5 GLY6        0.0000 
     51 CA         95.1900 -109.6400 -100.9700 C.3       5 GLY6        0.0000 
     52 CA         93.6400 -106.8100 -106.2400 C.3       5 GLY6        0.0000 
     53 CA         95.2900 -108.1400 -106.1600 C.3       5 GLY6        0.0000 
     54 CA         93.7500 -105.3100 -111.4400 C.3       5 GLY6        0.0000 
     55 CA         94.8100 -106.8300 -102.7600 C.3       5 GLY6        0.0000 
     56 CA         93.6400 -103.6600 -110.1000 C.3       5 GLY6        0.0000 
     57 CA         94.2800 -104.5000 -109.0300 C.3       5 GLY6        0.0000 
     58 CA         94.9200 -105.3300 -107.9500 C.3       5 GLY6        0.0000 
     59 CA         94.6500 -104.1600 -111.0900 C.3       5 GLY6        0.0000 
     60 CA         95.2900 -104.9900 -110.0200 C.3       5 GLY6        0.0000 
     61 CA         96.7300 -106.1800 -103.4000 C.3       5 GLY6        0.0000 
     62 CA         95.5600 -103.0200 -110.7400 C.3       5 GLY6        0.0000 
     63 CA         95.9800 -103.7100 -103.1300 C.3       5 GLY6        0.0000 
     64 CA         96.4600 -101.8700 -110.3900 C.3       5 GLY6        0.0000 
     65 DU         93.2700 -110.2900 -100.3300 H         6 CUB7        0.0000 
     66 DU         93.1600 -108.6500  -98.9900 H         6 CUB7        0.0000 
     67 DU         93.5300 -108.3100 -101.0500 H         6 CUB7        0.0000 
     68 DU         94.2800 -107.6400 -105.1700 H         6 CUB7        0.0000 
     69 DU         93.5300 -105.1700 -104.9000 H         6 CUB7        0.0000 
     70 DU         93.9100 -104.8300 -106.9700 H         6 CUB7        0.0000 
@<TRIPOS>BOND
@<TRIPOS>SUBSTRUCTURE
     1 SER1        1 GROUP   
     2 ALA2       10 GROUP   
     3 ASP3       23 GROUP   
     4 PHE5       41 GROUP   
     5 GLY6       43 GROUP   
     6 CUB7       65 GROUP   
@<TRIPOS>SET

