#    Name: 6sy7_7_AMP
#    Modification time : Fri May 22 19:31:47 2020

@<TRIPOS>MOLECULE
6sy7_7_AMP
   23    25     1     0     1
SMALL
NO_CHARGES


@<TRIPOS>ATOM
      1 P         114.1940 -119.8930  -97.7770 P.3       1 AMP503      0.0000 
      2 O1P       113.8220 -120.0990  -99.2470 O.co2     1 AMP503      0.0000 
      3 O2P       113.2160 -120.5110  -96.7670 O.co2     1 AMP503      0.0000 
      4 O3P       115.6460 -120.2510  -97.5020 O.co2     1 AMP503      0.0000 
      5 O5'       114.1030 -118.3000  -97.5370 O.3       1 AMP503      0.0000 
      6 C5'       114.2270 -117.8140  -96.1830 C.3       1 AMP503      0.0000 
      7 C4'       115.5630 -117.1410  -95.9770 C.3       1 AMP503      0.0000 
      8 O4'       115.5150 -116.5200  -94.6680 O.3       1 AMP503      0.0000 
      9 C3'       116.8110 -118.0360  -95.9280 C.3       1 AMP503      0.0000 
     10 O3'       117.4050 -118.1990  -97.2130 O.3       1 AMP503      0.0000 
     11 C2'       117.7490 -117.2710  -94.9810 C.3       1 AMP503      0.0000 
     12 O2'       118.6450 -116.4230  -95.6720 O.3       1 AMP503      0.0000 
     13 C1'       116.8160 -116.4050  -94.1290 C.3       1 AMP503      0.0000 
     14 N9        116.7950 -116.7280  -92.6890 N.pl3     1 AMP503      0.0000 
     15 C8        116.9050 -117.9560  -92.0700 C.2       1 AMP503      0.0000 
     16 N7        116.8590 -117.8950  -90.7470 N.2       1 AMP503      0.0000 
     17 C5        116.6840 -116.5300  -90.4720 C.ar      1 AMP503      0.0000 
     18 C6        116.4880 -115.8010  -89.2610 C.ar      1 AMP503      0.0000 
     19 N6        116.4900 -116.3560  -88.0480 N.pl3     1 AMP503      0.0000 
     20 N1        116.3280 -114.4570  -89.3620 N.ar      1 AMP503      0.0000 
     21 C2        116.3680 -113.8990  -90.5830 C.ar      1 AMP503      0.0000 
     22 N3        116.5520 -114.4710  -91.7820 N.ar      1 AMP503      0.0000 
     23 C4        116.6860 -115.8030  -91.6600 C.ar      1 AMP503      0.0000 
@<TRIPOS>BOND
     1    1    2 ar   
     2    1    3 ar   
     3    1    4 ar   
     4    1    5 1    
     5    5    6 1    
     6    6    7 1    
     7    7    8 1    
     8    7    9 1    
     9    8   13 1    
    10    9   10 1    
    11    9   11 1    
    12   11   12 1    
    13   11   13 1    
    14   13   14 1    
    15   14   15 1    
    16   14   23 1    
    17   15   16 2    
    18   16   17 1    
    19   17   18 ar   
    20   17   23 ar   
    21   18   19 1    
    22   18   20 ar   
    23   20   21 ar   
    24   21   22 ar   
    25   22   23 ar   
@<TRIPOS>SUBSTRUCTURE
     1 AMP503      1 GROUP   
@<TRIPOS>SET
ATOM$ORANGE STATIC     ATOMS   COLORGROUP SYSTEM 
20 6 6 7 7 9 9 11 11 13 13 15 15 17 17 18 18 21 \
21 23 23 

