#    Name: 5oja_1_IMD_CAVITY_N1_4
#    Modification time : Fri May 22 19:14:37 2020

@<TRIPOS>MOLECULE
5oja_1_IMD_CAVITY_N1_4
   45     0     4     0     0
SMALL
NO_CHARGES


@<TRIPOS>ATOM
      1 OG          1.1700    4.9200   17.2100 O.3       1 SER1        0.0000 
      2 OG          2.3100    4.6300   16.2800 O.3       1 SER1        0.0000 
      3 OG          0.9500    6.2400   16.5400 O.3       1 SER1        0.0000 
      4 OG          2.0900    5.9500   15.6100 O.3       1 SER1        0.0000 
      5 OG          4.6200    3.6700   16.9900 O.3       1 SER1        0.0000 
      6 OG          4.4000    4.9900   16.3200 O.3       1 SER1        0.0000 
      7 OG          3.0400    6.6000   16.5700 O.3       1 SER1        0.0000 
      8 OG          1.6800    8.2100   16.8200 O.3       1 SER1        0.0000 
      9 OG          2.8200    7.9200   15.8900 O.3       1 SER1        0.0000 
     10 OG          5.3500    5.6500   17.2800 O.3       1 SER1        0.0000 
     11 OG          5.1300    6.9700   16.6000 O.3       1 SER1        0.0000 
     12 OG          2.6300    8.8600   17.7900 O.3       1 SER1        0.0000 
     13 OG          3.7700    8.5700   16.8600 O.3       1 SER1        0.0000 
     14 CZ         -0.7500    4.0000   12.7200 C.ar      2 PHE5        0.0000 
     15 CZ          1.7800    1.7200   14.1000 C.ar      2 PHE5        0.0000 
     16 CZ         -0.7300    3.6100   15.2900 C.ar      2 PHE5        0.0000 
     17 CZ          0.4200    3.3300   14.3600 C.ar      2 PHE5        0.0000 
     18 CZ          1.5600    3.0400   13.4300 C.ar      2 PHE5        0.0000 
     19 CZ          2.7300    2.3700   15.0700 C.ar      2 PHE5        0.0000 
     20 CZ          0.2200    4.2600   16.2500 C.ar      2 PHE5        0.0000 
     21 CZ          0.0000    5.5800   15.5700 C.ar      2 PHE5        0.0000 
     22 CZ          1.1400    5.3000   14.6400 C.ar      2 PHE5        0.0000 
     23 CZ          2.0700    6.3300   13.0400 C.ar      2 PHE5        0.0000 
     24 CZ          2.5300    3.3100   16.9600 C.ar      2 PHE5        0.0000 
     25 CZ          0.7300    7.5600   15.8600 C.ar      2 PHE5        0.0000 
     26 CZ          1.8700    7.2700   14.9300 C.ar      2 PHE5        0.0000 
     27 CZ          1.6500    8.5900   14.2500 C.ar      2 PHE5        0.0000 
     28 CZ          1.4600    9.5300   16.1500 C.ar      2 PHE5        0.0000 
     29 CA          0.6100    2.3900   12.4600 C.3       3 GLY6        0.0000 
     30 CA          1.3400    4.3600   12.7500 C.3       3 GLY6        0.0000 
     31 CA          1.5800    2.6600   16.0000 C.3       3 GLY6        0.0000 
     32 CA          3.8700    2.0800   14.1400 C.3       3 GLY6        0.0000 
     33 CA          2.5100    3.6900   14.3900 C.3       3 GLY6        0.0000 
     34 CA          2.2900    5.0100   13.7100 C.3       3 GLY6        0.0000 
     35 CA          3.6700    3.0200   16.0300 C.3       3 GLY6        0.0000 
     36 CA          3.4500    4.3400   15.3500 C.3       3 GLY6        0.0000 
     37 CA          3.2300    5.6600   14.6800 C.3       3 GLY6        0.0000 
     38 CA          3.0100    6.9800   14.0000 C.3       3 GLY6        0.0000 
     39 CA          4.1800    6.3200   15.6400 C.3       3 GLY6        0.0000 
     40 CA          3.9600    7.6400   14.9600 C.3       3 GLY6        0.0000 
     41 CA          6.4900    5.3600   16.3500 C.3       3 GLY6        0.0000 
     42 CA          6.2700    6.6800   15.6700 C.3       3 GLY6        0.0000 
     43 CA          4.9100    8.2900   15.9300 C.3       3 GLY6        0.0000 
     44 CA          5.8600    8.9400   16.8900 C.3       3 GLY6        0.0000 
     45 DU          1.3600    3.9800   15.3200 H         4 CUB7        0.0000 
@<TRIPOS>BOND
@<TRIPOS>SUBSTRUCTURE
     1 SER1        1 GROUP   
     2 PHE5       14 GROUP   
     3 GLY6       29 GROUP   
     4 CUB7       45 GROUP   
@<TRIPOS>SET

