#    Name: 5oja_1_IMD
#    Modification time : Fri May 22 19:14:37 2020

@<TRIPOS>MOLECULE
5oja_1_IMD
    5     5     1     0     0
SMALL
NO_CHARGES


@<TRIPOS>ATOM
      1 N1          2.9150    6.3920   14.9200 N.pl3     1 IMD201      0.0000 
      2 C2          3.4190    7.5160   14.3900 C.2       1 IMD201      0.0000 
      3 N3          3.1330    7.4840   13.0860 N.2       1 IMD201      0.0000 
      4 C4          2.4830    6.3460   12.8040 C.2       1 IMD201      0.0000 
      5 C5          2.3240    5.6330   13.9760 C.2       1 IMD201      0.0000 
@<TRIPOS>BOND
     1    1    2 1    
     2    1    5 1    
     3    2    3 2    
     4    3    4 1    
     5    4    5 2    
@<TRIPOS>SUBSTRUCTURE
     1 IMD201      1 GROUP   
@<TRIPOS>SET

