#    Name: 6b1u_1_STU
#    Modification time : Fri May 22 19:32:43 2020

@<TRIPOS>MOLECULE
6b1u_1_STU
   35    42     1     0     0
SMALL
NO_CHARGES


@<TRIPOS>ATOM
      1 O4        -14.7800   44.8960  -10.1750 O.3       1 STU601      0.0000 
      2 C25       -15.5900   46.0220   -9.8210 C.3       1 STU601      0.0000 
      3 C24       -15.8320   47.0020  -10.9660 C.3       1 STU601      0.0000 
      4 C23       -15.3080   46.4910  -12.2980 C.3       1 STU601      0.0000 
      5 C22       -13.8620   46.0160  -12.1920 C.3       1 STU601      0.0000 
      6 C21       -13.6340   45.0710  -11.0130 C.3       1 STU601      0.0000 
      7 C26       -13.3740   43.6800  -11.5870 C.3       1 STU601      0.0000 
      8 N2        -12.4420   45.5140  -10.2200 N.pl3     1 STU601      0.0000 
      9 C18       -12.5050   46.2720   -9.0970 C.ar      1 STU601      0.0000 
     10 C19       -13.6790   46.8460   -8.3760 C.ar      1 STU601      0.0000 
     11 C6        -13.4630   47.6410   -7.1670 C.ar      1 STU601      0.0000 
     12 C7        -12.0640   47.8420   -6.7100 C.ar      1 STU601      0.0000 
     13 C10       -10.8860   47.3030   -7.3820 C.ar      1 STU601      0.0000 
     14 C11       -11.1280   46.4940   -8.6140 C.ar      1 STU601      0.0000 
     15 C12       -10.2730   45.7890   -9.5700 C.ar      1 STU601      0.0000 
     16 C17       -11.1650   45.1780  -10.5860 C.ar      1 STU601      0.0000 
     17 C16       -10.5760   44.4450  -11.6060 C.ar      1 STU601      0.0000 
     18 C15        -9.1850   44.3270  -11.6270 C.ar      1 STU601      0.0000 
     19 C14        -8.3650   44.9160  -10.6570 C.ar      1 STU601      0.0000 
     20 C13        -8.8960   45.6610   -9.6060 C.ar      1 STU601      0.0000 
     21 C9         -9.6750   47.6870   -6.6730 C.3       1 STU601      0.0000 
     22 N1        -10.1520   48.4990   -5.5160 N.am      1 STU601      0.0000 
     23 C8        -11.5080   48.5730   -5.5580 C.2       1 STU601      0.0000 
     24 O5        -12.2210   49.2050   -4.6950 O.2       1 STU601      0.0000 
     25 C5        -14.7970   48.0280   -6.7380 C.ar      1 STU601      0.0000 
     26 C20       -15.7300   47.4340   -7.7280 C.ar      1 STU601      0.0000 
     27 C1        -17.0840   47.6690   -7.5300 C.ar      1 STU601      0.0000 
     28 C2        -17.4880   48.4350   -6.4340 C.ar      1 STU601      0.0000 
     29 C3        -16.5810   48.9800   -5.5190 C.ar      1 STU601      0.0000 
     30 C4        -15.2090   48.7850   -5.6560 C.ar      1 STU601      0.0000 
     31 N3        -14.9990   46.7480   -8.6700 N.pl3     1 STU601      0.0000 
     32 O6        -12.9390   47.1130  -12.1800 O.3       1 STU601      0.0000 
     33 C27       -13.2050   48.0950  -11.1800 C.3       1 STU601      0.0000 
     34 N4        -15.4110   47.5350  -13.3000 N.4       1 STU601      0.0000 
     35 C28       -15.6680   47.1870  -14.6840 C.3       1 STU601      0.0000 
@<TRIPOS>BOND
     1    1    2 1    
     2    1    6 1    
     3    2    3 1    
     4    2   31 1    
     5    3    4 1    
     6    4    5 1    
     7    4   34 1    
     8    5    6 1    
     9    5   32 1    
    10    6    7 1    
    11    6    8 1    
    12    8    9 1    
    13    8   16 1    
    14    9   10 ar   
    15    9   14 ar   
    16   10   11 ar   
    17   10   31 1    
    18   11   12 ar   
    19   11   25 1    
    20   12   13 ar   
    21   12   23 1    
    22   13   14 ar   
    23   13   21 1    
    24   14   15 1    
    25   15   16 ar   
    26   15   20 ar   
    27   16   17 ar   
    28   17   18 ar   
    29   18   19 ar   
    30   19   20 ar   
    31   21   22 1    
    32   22   23 am   
    33   23   24 2    
    34   25   26 ar   
    35   25   30 ar   
    36   26   27 ar   
    37   26   31 1    
    38   27   28 ar   
    39   28   29 ar   
    40   29   30 ar   
    41   32   33 1    
    42   34   35 1    
@<TRIPOS>SUBSTRUCTURE
     1 STU601      1 GROUP   
@<TRIPOS>SET

