#    Name: 6b1u_2_STU
#    Modification time : Fri May 22 19:32:50 2020

@<TRIPOS>MOLECULE
6b1u_2_STU
   35    42     1     0     0
SMALL
NO_CHARGES


@<TRIPOS>ATOM
      1 O4        -51.0780   14.8360  -64.3060 O.3       1 STU601      0.0000 
      2 C25       -51.8070   13.7440  -64.8850 C.3       1 STU601      0.0000 
      3 C24       -52.2200   12.6550  -63.8950 C.3       1 STU601      0.0000 
      4 C23       -51.9520   13.0680  -62.4590 C.3       1 STU601      0.0000 
      5 C22       -50.4830   13.4310  -62.3450 C.3       1 STU601      0.0000 
      6 C21       -50.0940   14.5620  -63.3020 C.3       1 STU601      0.0000 
      7 C26       -49.9800   15.8500  -62.4910 C.3       1 STU601      0.0000 
      8 N2        -48.7750   14.2450  -63.9370 N.pl3     1 STU601      0.0000 
      9 C18       -48.6390   13.6140  -65.1290 C.ar      1 STU601      0.0000 
     10 C19       -49.6680   13.1160  -66.0890 C.ar      1 STU601      0.0000 
     11 C6        -49.2400   12.4700  -67.3300 C.ar      1 STU601      0.0000 
     12 C7        -47.7800   12.3420  -67.5760 C.ar      1 STU601      0.0000 
     13 C10       -46.7390   12.8150  -66.6690 C.ar      1 STU601      0.0000 
     14 C11       -47.1970   13.4710  -65.4080 C.ar      1 STU601      0.0000 
     15 C12       -46.5260   14.0720  -64.2540 C.ar      1 STU601      0.0000 
     16 C17       -47.5850   14.5490  -63.3300 C.ar      1 STU601      0.0000 
     17 C16       -47.1890   15.1650  -62.1530 C.ar      1 STU601      0.0000 
     18 C15       -45.8230   15.2990  -61.8960 C.ar      1 STU601      0.0000 
     19 C14       -44.8420   14.8380  -62.7820 C.ar      1 STU601      0.0000 
     20 C13       -45.1770   14.2140  -63.9820 C.ar      1 STU601      0.0000 
     21 C9        -45.4210   12.5310  -67.2150 C.3       1 STU601      0.0000 
     22 N1        -45.6850   11.8530  -68.5170 N.am      1 STU601      0.0000 
     23 C8        -47.0280   11.7570  -68.7010 C.2       1 STU601      0.0000 
     24 O5        -47.5770   11.2200  -69.7320 O.2       1 STU601      0.0000 
     25 C5        -50.4770   12.1170  -68.0070 C.ar      1 STU601      0.0000 
     26 C20       -51.5730   12.5790  -67.1180 C.ar      1 STU601      0.0000 
     27 C1        -52.8700   12.3510  -67.5560 C.ar      1 STU601      0.0000 
     28 C2        -53.0720   11.7130  -68.7820 C.ar      1 STU601      0.0000 
     29 C3        -52.0160   11.2900  -69.5950 C.ar      1 STU601      0.0000 
     30 C4        -50.6890   11.4860  -69.2190 C.ar      1 STU601      0.0000 
     31 N3        -51.0210   13.1580  -66.0000 N.pl3     1 STU601      0.0000 
     32 O6        -49.7050   12.2570  -62.5860 O.3       1 STU601      0.0000 
     33 C27       -48.8000   11.9920  -61.5160 C.3       1 STU601      0.0000 
     34 N4        -52.2770   11.9840  -61.5540 N.4       1 STU601      0.0000 
     35 C28       -52.6730   12.2740  -60.1890 C.3       1 STU601      0.0000 
@<TRIPOS>BOND
     1    1    2 1    
     2    1    6 1    
     3    2    3 1    
     4    2   31 1    
     5    3    4 1    
     6    4    5 1    
     7    4   34 1    
     8    5    6 1    
     9    5   32 1    
    10    6    7 1    
    11    6    8 1    
    12    8    9 1    
    13    8   16 1    
    14    9   10 ar   
    15    9   14 ar   
    16   10   11 ar   
    17   10   31 1    
    18   11   12 ar   
    19   11   25 1    
    20   12   13 ar   
    21   12   23 1    
    22   13   14 ar   
    23   13   21 1    
    24   14   15 1    
    25   15   16 ar   
    26   15   20 ar   
    27   16   17 ar   
    28   17   18 ar   
    29   18   19 ar   
    30   19   20 ar   
    31   21   22 1    
    32   22   23 am   
    33   23   24 2    
    34   25   26 ar   
    35   25   30 ar   
    36   26   27 ar   
    37   26   31 1    
    38   27   28 ar   
    39   28   29 ar   
    40   29   30 ar   
    41   32   33 1    
    42   34   35 1    
@<TRIPOS>SUBSTRUCTURE
     1 STU601      1 GROUP   
@<TRIPOS>SET

