#    Name: 6b1u_4_AMP
#    Modification time : Fri May 22 19:32:59 2020

@<TRIPOS>MOLECULE
6b1u_4_AMP
   23    25     1     0     1
SMALL
NO_CHARGES


@<TRIPOS>ATOM
      1 P          32.0470   82.1550  -34.2180 P.3       1 AMP401      0.0000 
      2 O1P        33.4810   82.1030  -34.6930 O.co2     1 AMP401      0.0000 
      3 O2P        31.5180   80.8100  -33.7910 O.co2     1 AMP401      0.0000 
      4 O3P        31.7490   83.2660  -33.2380 O.co2     1 AMP401      0.0000 
      5 O5'        31.2160   82.5300  -35.5510 O.3       1 AMP401      0.0000 
      6 C5'        29.7860   82.5630  -35.6210 C.3       1 AMP401      0.0000 
      7 C4'        29.2720   83.7400  -36.4650 C.3       1 AMP401      0.0000 
      8 O4'        29.1470   84.9190  -35.6630 O.3       1 AMP401      0.0000 
      9 C3'        30.1240   84.1040  -37.6830 C.3       1 AMP401      0.0000 
     10 O3'        29.2620   84.2420  -38.8210 O.3       1 AMP401      0.0000 
     11 C2'        30.7470   85.4480  -37.3310 C.3       1 AMP401      0.0000 
     12 O2'        30.8440   86.3370  -38.4510 O.3       1 AMP401      0.0000 
     13 C1'        29.8450   86.0230  -36.2480 C.3       1 AMP401      0.0000 
     14 N9         30.6390   86.7120  -35.2000 N.pl3     1 AMP401      0.0000 
     15 C8         31.5930   86.1490  -34.4330 C.2       1 AMP401      0.0000 
     16 N7         32.1140   87.0270  -33.5450 N.2       1 AMP401      0.0000 
     17 C5         31.4670   88.1920  -33.7240 C.ar      1 AMP401      0.0000 
     18 C6         31.5330   89.5560  -33.1390 C.ar      1 AMP401      0.0000 
     19 N6         32.3940   89.8450  -32.1350 N.pl3     1 AMP401      0.0000 
     20 N1         30.7000   90.5000  -33.6420 N.ar      1 AMP401      0.0000 
     21 C2         29.8210   90.2420  -34.6360 C.ar      1 AMP401      0.0000 
     22 N3         29.7210   89.0330  -35.2270 N.ar      1 AMP401      0.0000 
     23 C4         30.4940   87.9850  -34.8200 C.ar      1 AMP401      0.0000 
@<TRIPOS>BOND
     1    1    2 ar   
     2    1    3 ar   
     3    1    4 ar   
     4    1    5 1    
     5    5    6 1    
     6    6    7 1    
     7    7    8 1    
     8    7    9 1    
     9    8   13 1    
    10    9   10 1    
    11    9   11 1    
    12   11   12 1    
    13   11   13 1    
    14   13   14 1    
    15   14   15 1    
    16   14   23 1    
    17   15   16 2    
    18   16   17 1    
    19   17   18 ar   
    20   17   23 ar   
    21   18   19 1    
    22   18   20 ar   
    23   20   21 ar   
    24   21   22 ar   
    25   22   23 ar   
@<TRIPOS>SUBSTRUCTURE
     1 AMP401      1 GROUP   
@<TRIPOS>SET
ATOM$ORANGE STATIC     ATOMS   COLORGROUP SYSTEM 
20 6 6 7 7 9 9 11 11 13 13 15 15 17 17 18 18 21 \
21 23 23 

