#    Name: 6b1u_7_AMP
#    Modification time : Fri May 22 19:33:16 2020

@<TRIPOS>MOLECULE
6b1u_7_AMP
   23    25     1     0     1
SMALL
NO_CHARGES


@<TRIPOS>ATOM
      1 P           3.0790  -19.0470  -38.5130 P.3       1 AMP402      0.0000 
      2 O1P         2.6660  -18.0860  -39.6030 O.co2     1 AMP402      0.0000 
      3 O2P         2.2560  -20.3110  -38.4760 O.co2     1 AMP402      0.0000 
      4 O3P         3.3910  -18.4240  -37.1720 O.co2     1 AMP402      0.0000 
      5 O5'         4.5120  -19.5950  -38.9540 O.3       1 AMP402      0.0000 
      6 C5'         5.5290  -18.7980  -39.5570 C.3       1 AMP402      0.0000 
      7 C4'         6.6240  -19.7510  -40.0240 C.3       1 AMP402      0.0000 
      8 O4'         6.9620  -20.6470  -38.9600 O.3       1 AMP402      0.0000 
      9 C3'         6.1670  -20.6030  -41.2060 C.3       1 AMP402      0.0000 
     10 O3'         7.2210  -20.5840  -42.1750 O.3       1 AMP402      0.0000 
     11 C2'         5.9570  -22.0050  -40.6380 C.3       1 AMP402      0.0000 
     12 O2'         6.3960  -23.0390  -41.5280 O.3       1 AMP402      0.0000 
     13 C1'         6.7480  -22.0110  -39.3370 C.3       1 AMP402      0.0000 
     14 N9          6.0620  -22.7360  -38.2340 N.pl3     1 AMP402      0.0000 
     15 C8          4.7850  -22.5950  -37.8190 C.2       1 AMP402      0.0000 
     16 N7          4.5120  -23.3970  -36.7550 N.2       1 AMP402      0.0000 
     17 C5          5.6450  -24.0570  -36.4560 C.ar      1 AMP402      0.0000 
     18 C6          6.0730  -25.0660  -35.4510 C.ar      1 AMP402      0.0000 
     19 N6          5.2150  -25.5490  -34.5200 N.pl3     1 AMP402      0.0000 
     20 N1          7.3600  -25.4960  -35.4990 N.ar      1 AMP402      0.0000 
     21 C2          8.2490  -25.0300  -36.4060 C.ar      1 AMP402      0.0000 
     22 N3          7.9270  -24.1240  -37.3500 N.ar      1 AMP402      0.0000 
     23 C4          6.6670  -23.6100  -37.4260 C.ar      1 AMP402      0.0000 
@<TRIPOS>BOND
     1    1    2 ar   
     2    1    3 ar   
     3    1    4 ar   
     4    1    5 1    
     5    5    6 1    
     6    6    7 1    
     7    7    8 1    
     8    7    9 1    
     9    8   13 1    
    10    9   10 1    
    11    9   11 1    
    12   11   12 1    
    13   11   13 1    
    14   13   14 1    
    15   14   15 1    
    16   14   23 1    
    17   15   16 2    
    18   16   17 1    
    19   17   18 ar   
    20   17   23 ar   
    21   18   19 1    
    22   18   20 ar   
    23   20   21 ar   
    24   21   22 ar   
    25   22   23 ar   
@<TRIPOS>SUBSTRUCTURE
     1 AMP402      1 GROUP   
@<TRIPOS>SET
ATOM$ORANGE STATIC     ATOMS   COLORGROUP SYSTEM 
20 6 6 7 7 9 9 11 11 13 13 15 15 17 17 18 18 21 \
21 23 23 

