#    Name: 6b1u_5_AMP
#    Modification time : Fri May 22 19:33:04 2020

@<TRIPOS>MOLECULE
6b1u_5_AMP
   23    25     1     0     1
SMALL
NO_CHARGES


@<TRIPOS>ATOM
      1 P          40.3320   81.6060  -30.2880 P.3       1 AMP402      0.0000 
      2 O1P        40.6940   80.8680  -31.5530 O.co2     1 AMP402      0.0000 
      3 O2P        39.4040   82.7800  -30.4900 O.co2     1 AMP402      0.0000 
      4 O3P        39.9750   80.7150  -29.1190 O.co2     1 AMP402      0.0000 
      5 O5'        41.7270   82.2900  -29.8840 O.3       1 AMP402      0.0000 
      6 C5'        42.7380   81.6550  -29.1000 C.3       1 AMP402      0.0000 
      7 C4'        43.6510   82.7360  -28.5210 C.3       1 AMP402      0.0000 
      8 O4'        44.0060   83.6830  -29.5330 O.3       1 AMP402      0.0000 
      9 C3'        42.9890   83.5230  -27.3970 C.3       1 AMP402      0.0000 
     10 O3'        43.9650   83.6790  -26.3600 O.3       1 AMP402      0.0000 
     11 C2'        42.6310   84.8750  -28.0050 C.3       1 AMP402      0.0000 
     12 O2'        42.8140   85.9520  -27.0800 O.3       1 AMP402      0.0000 
     13 C1'        43.5720   85.0040  -29.1950 C.3       1 AMP402      0.0000 
     14 N9         42.9550   85.6270  -30.3960 N.pl3     1 AMP402      0.0000 
     15 C8         41.7630   85.3320  -30.9550 C.2       1 AMP402      0.0000 
     16 N7         41.5510   86.0560  -32.0820 N.2       1 AMP402      0.0000 
     17 C5         42.6400   86.8200  -32.2780 C.ar      1 AMP402      0.0000 
     18 C6         43.0980   87.8090  -33.2910 C.ar      1 AMP402      0.0000 
     19 N6         42.3120   88.1610  -34.3360 N.pl3     1 AMP402      0.0000 
     20 N1         44.3240   88.3670  -33.1200 N.ar      1 AMP402      0.0000 
     21 C2         45.1280   88.0300  -32.0850 C.ar      1 AMP402      0.0000 
     22 N3         44.7790   87.1430  -31.1320 N.ar      1 AMP402      0.0000 
     23 C4         43.5680   86.5240  -31.1680 C.ar      1 AMP402      0.0000 
@<TRIPOS>BOND
     1    1    2 ar   
     2    1    3 ar   
     3    1    4 ar   
     4    1    5 1    
     5    5    6 1    
     6    6    7 1    
     7    7    8 1    
     8    7    9 1    
     9    8   13 1    
    10    9   10 1    
    11    9   11 1    
    12   11   12 1    
    13   11   13 1    
    14   13   14 1    
    15   14   15 1    
    16   14   23 1    
    17   15   16 2    
    18   16   17 1    
    19   17   18 ar   
    20   17   23 ar   
    21   18   19 1    
    22   18   20 ar   
    23   20   21 ar   
    24   21   22 ar   
    25   22   23 ar   
@<TRIPOS>SUBSTRUCTURE
     1 AMP402      1 GROUP   
@<TRIPOS>SET
ATOM$ORANGE STATIC     ATOMS   COLORGROUP SYSTEM 
20 6 6 7 7 9 9 11 11 13 13 15 15 17 17 18 18 21 \
21 23 23 

