#    Name: 6b1u_6_AMP
#    Modification time : Fri May 22 19:33:12 2020

@<TRIPOS>MOLECULE
6b1u_6_AMP
   23    25     1     0     1
SMALL
NO_CHARGES


@<TRIPOS>ATOM
      1 P          -5.6150  -20.5650  -35.5830 P.3       1 AMP401      0.0000 
      2 O1P        -5.7160  -21.5090  -36.7560 O.co2     1 AMP401      0.0000 
      3 O2P        -4.2160  -20.4060  -35.0330 O.co2     1 AMP401      0.0000 
      4 O3P        -6.3410  -19.2570  -35.7830 O.co2     1 AMP401      0.0000 
      5 O5'        -6.3940  -21.3340  -34.3940 O.3       1 AMP401      0.0000 
      6 C5'        -7.8040  -21.2210  -34.1590 C.3       1 AMP401      0.0000 
      7 C4'        -8.3880  -22.5010  -33.5530 C.3       1 AMP401      0.0000 
      8 O4'        -8.3470  -23.5900  -34.4800 O.3       1 AMP401      0.0000 
      9 C3'        -7.6950  -22.9680  -32.2830 C.3       1 AMP401      0.0000 
     10 O3'        -8.7280  -23.3250  -31.3570 O.3       1 AMP401      0.0000 
     11 C2'        -6.9210  -24.2070  -32.7080 C.3       1 AMP401      0.0000 
     12 O2'        -6.8460  -25.2080  -31.6920 O.3       1 AMP401      0.0000 
     13 C1'        -7.6470  -24.7180  -33.9430 C.3       1 AMP401      0.0000 
     14 N9         -6.6850  -25.2480  -34.9510 N.pl3     1 AMP401      0.0000 
     15 C8         -5.7410  -24.5360  -35.5980 C.2       1 AMP401      0.0000 
     16 N7         -5.0370  -25.3010  -36.4670 N.2       1 AMP401      0.0000 
     17 C5         -5.5500  -26.5390  -36.4000 C.ar      1 AMP401      0.0000 
     18 C6         -5.2820  -27.8430  -37.0560 C.ar      1 AMP401      0.0000 
     19 N6         -4.3040  -27.9650  -37.9860 N.pl3     1 AMP401      0.0000 
     20 N1         -6.0560  -28.9000  -36.6980 N.ar      1 AMP401      0.0000 
     21 C2         -7.0410  -28.8040  -35.7740 C.ar      1 AMP401      0.0000 
     22 N3         -7.3430  -27.6480  -35.1470 N.ar      1 AMP401      0.0000 
     23 C4         -6.6480  -26.5020  -35.4100 C.ar      1 AMP401      0.0000 
@<TRIPOS>BOND
     1    1    2 ar   
     2    1    3 ar   
     3    1    4 ar   
     4    1    5 1    
     5    5    6 1    
     6    6    7 1    
     7    7    8 1    
     8    7    9 1    
     9    8   13 1    
    10    9   10 1    
    11    9   11 1    
    12   11   12 1    
    13   11   13 1    
    14   13   14 1    
    15   14   15 1    
    16   14   23 1    
    17   15   16 2    
    18   16   17 1    
    19   17   18 ar   
    20   17   23 ar   
    21   18   19 1    
    22   18   20 ar   
    23   20   21 ar   
    24   21   22 ar   
    25   22   23 ar   
@<TRIPOS>SUBSTRUCTURE
     1 AMP401      1 GROUP   
@<TRIPOS>SET
ATOM$ORANGE STATIC     ATOMS   COLORGROUP SYSTEM 
20 6 6 7 7 9 9 11 11 13 13 15 15 17 17 18 18 21 \
21 23 23 

