#    Name: 6b1u_4_AMP_CAVITY_N1_4
#    Modification time : Fri May 22 19:33:00 2020

@<TRIPOS>MOLECULE
6b1u_4_AMP_CAVITY_N1_4
   65     0     7     0     0
SMALL
NO_CHARGES


@<TRIPOS>ATOM
      1 OG         27.1900   84.9300  -42.0000 O.3       1 SER1        0.0000 
      2 N          26.3400   84.4400  -39.1600 N.am      2 ALA2        0.0000 
      3 N          27.9100   84.5500  -37.0900 N.am      2 ALA2        0.0000 
      4 N          29.1200   83.7000  -36.8700 N.am      2 ALA2        0.0000 
      5 O          31.4700   82.7100  -33.1600 O.2       2 ALA2        0.0000 
      6 N          26.1800   90.5100  -35.0100 N.am      2 ALA2        0.0000 
      7 OD1        29.4800   82.3600  -33.8200 O.co2     3 ASP3        0.0000 
      8 OD1        29.9000   82.6000  -35.2400 O.co2     3 ASP3        0.0000 
      9 OD1        31.1100   81.7400  -35.0200 O.co2     3 ASP3        0.0000 
     10 OD1        27.1200   85.6500  -38.7200 O.co2     3 ASP3        0.0000 
     11 OD1        28.3300   84.7900  -38.5100 O.co2     3 ASP3        0.0000 
     12 OD1        27.5400   85.8900  -40.1400 O.co2     3 ASP3        0.0000 
     13 OD1        30.6800   83.8000  -34.8000 O.co2     3 ASP3        0.0000 
     14 OD1        31.8900   82.9500  -34.5800 O.co2     3 ASP3        0.0000 
     15 OD1        26.2600   87.4800  -37.0900 O.co2     3 ASP3        0.0000 
     16 OD1        27.4700   86.6200  -36.8700 O.co2     3 ASP3        0.0000 
     17 OD1        28.6800   85.7600  -36.6500 O.co2     3 ASP3        0.0000 
     18 OD1        31.4600   85.0100  -34.3600 O.co2     3 ASP3        0.0000 
     19 OD1        27.0400   88.6800  -36.6500 O.co2     3 ASP3        0.0000 
     20 OD1        28.2500   87.8300  -36.4300 O.co2     3 ASP3        0.0000 
     21 OD1        29.4600   86.9700  -36.2200 O.co2     3 ASP3        0.0000 
     22 OD1        31.0900   86.3500  -37.4200 O.co2     3 ASP3        0.0000 
     23 OD1        29.0200   89.0300  -36.0000 O.co2     3 ASP3        0.0000 
     24 OD1        32.6600   86.4600  -35.3400 O.co2     3 ASP3        0.0000 
     25 NZ         26.7700   84.6800  -40.5800 N.4       4 LYS4        0.0000 
     26 NZ         27.9800   83.8300  -40.3600 N.4       4 LYS4        0.0000 
     27 NZ         30.3200   85.1400  -37.8500 N.4       4 LYS4        0.0000 
     28 CZ         29.5500   81.6300  -37.0900 C.ar      5 PHE5        0.0000 
     29 CZ         30.3300   82.8400  -36.6500 C.ar      5 PHE5        0.0000 
     30 CZ         29.5400   83.9400  -38.2900 C.ar      5 PHE5        0.0000 
     31 CZ         30.7500   83.0800  -38.0700 C.ar      5 PHE5        0.0000 
     32 CZ         26.6000   90.7500  -36.4300 C.ar      5 PHE5        0.0000 
     33 CZ         27.8100   89.8900  -36.2100 C.ar      5 PHE5        0.0000 
     34 CA         29.1300   81.3900  -35.6700 C.3       6 GLY6        0.0000 
     35 CA         28.6900   83.4600  -35.4500 C.3       6 GLY6        0.0000 
     36 CA         26.6900   85.4100  -37.3100 C.3       6 GLY6        0.0000 
     37 CA         31.5400   81.9800  -36.4400 C.3       6 GLY6        0.0000 
     38 CA         26.6200   86.1400  -34.0300 C.3       6 GLY6        0.0000 
     39 CA         29.0400   84.4200  -33.6000 C.3       6 GLY6        0.0000 
     40 CA         30.2600   83.5600  -33.3800 C.3       6 GLY6        0.0000 
     41 CA         27.0500   86.3800  -35.4500 C.3       6 GLY6        0.0000 
     42 CA         28.2600   85.5200  -35.2300 C.3       6 GLY6        0.0000 
     43 CA         29.4700   84.6600  -35.0200 C.3       6 GLY6        0.0000 
     44 CA         31.1000   84.0500  -36.2200 C.3       6 GLY6        0.0000 
     45 CA         31.5300   84.2900  -37.6400 C.3       6 GLY6        0.0000 
     46 CA         26.1900   88.2000  -33.8100 C.3       6 GLY6        0.0000 
     47 CA         27.8200   87.5900  -35.0100 C.3       6 GLY6        0.0000 
     48 CA         29.0300   86.7300  -34.8000 C.3       6 GLY6        0.0000 
     49 CA         30.2500   85.8700  -34.5800 C.3       6 GLY6        0.0000 
     50 CA         31.8800   85.2500  -35.7800 C.3       6 GLY6        0.0000 
     51 CA         27.3900   89.6500  -34.7900 C.3       6 GLY6        0.0000 
     52 CA         28.6000   88.7900  -34.5800 C.3       6 GLY6        0.0000 
     53 CA         29.8100   87.9300  -34.3600 C.3       6 GLY6        0.0000 
     54 CA         31.0200   87.0800  -34.1400 C.3       6 GLY6        0.0000 
     55 CA         30.2300   88.1700  -35.7800 C.3       6 GLY6        0.0000 
     56 CA         31.4500   87.3200  -35.5600 C.3       6 GLY6        0.0000 
     57 CA         30.6600   88.4100  -37.2000 C.3       6 GLY6        0.0000 
     58 CA         31.8700   87.5600  -36.9800 C.3       6 GLY6        0.0000 
     59 CA         29.3800   90.0000  -34.1400 C.3       6 GLY6        0.0000 
     60 CA         30.5900   89.1400  -33.9200 C.3       6 GLY6        0.0000 
     61 CA         31.8000   88.2800  -33.7100 C.3       6 GLY6        0.0000 
     62 CA         29.8000   90.2400  -35.5600 C.3       6 GLY6        0.0000 
     63 DU         29.8900   84.9000  -36.4300 H         7 CUB7        0.0000 
     64 DU         26.6100   88.4400  -35.2300 H         7 CUB7        0.0000 
     65 DU         30.6700   86.1100  -36.0000 H         7 CUB7        0.0000 
@<TRIPOS>BOND
@<TRIPOS>SUBSTRUCTURE
     1 SER1        1 GROUP   
     2 ALA2        2 GROUP   
     3 ASP3        7 GROUP   
     4 LYS4       25 GROUP   
     5 PHE5       28 GROUP   
     6 GLY6       34 GROUP   
     7 CUB7       63 GROUP   
@<TRIPOS>SET

