#    Name: 6r4l_1_ERG
#    Modification time : Fri May 22 19:28:26 2020

@<TRIPOS>MOLECULE
6r4l_1_ERG
   29    32     1     0     0
SMALL
NO_CHARGES


@<TRIPOS>ATOM
      1 C1        -23.7440   28.8590   47.5930 C.3       1 ERG1201     0.0000 
      2 C2        -23.3950   28.2740   48.9640 C.3       1 ERG1201     0.0000 
      3 C3        -22.4450   29.1850   49.7210 C.3       1 ERG1201     0.0000 
      4 C4        -23.0620   30.5610   49.8880 C.3       1 ERG1201     0.0000 
      5 C5        -23.5050   31.1230   48.5600 C.2       1 ERG1201     0.0000 
      6 C6        -23.1090   32.3360   48.1490 C.2       1 ERG1201     0.0000 
      7 C7        -23.4570   32.8690   46.8750 C.2       1 ERG1201     0.0000 
      8 C8        -24.1560   32.1600   45.9830 C.2       1 ERG1201     0.0000 
      9 C9        -24.6990   30.7900   46.3080 C.3       1 ERG1201     0.0000 
     10 C10       -24.4210   30.2310   47.7310 C.3       1 ERG1201     0.0000 
     11 C11       -26.1740   30.7350   45.8890 C.3       1 ERG1201     0.0000 
     12 C12       -26.3460   31.0750   44.4060 C.3       1 ERG1201     0.0000 
     13 C13       -25.8290   32.4840   44.0450 C.3       1 ERG1201     0.0000 
     14 C14       -24.3600   32.5550   44.5420 C.3       1 ERG1201     0.0000 
     15 C15       -23.8420   33.8850   43.9700 C.3       1 ERG1201     0.0000 
     16 C16       -24.6070   34.0250   42.6310 C.3       1 ERG1201     0.0000 
     17 C17       -25.5510   32.8080   42.5560 C.3       1 ERG1201     0.0000 
     18 C18       -26.6750   33.5670   44.7380 C.3       1 ERG1201     0.0000 
     19 C19       -25.7410   30.0500   48.5050 C.3       1 ERG1201     0.0000 
     20 C20       -26.7030   33.0460   41.5560 C.3       1 ERG1201     0.0000 
     21 C21       -27.8490   32.0420   41.6700 C.3       1 ERG1201     0.0000 
     22 C22       -26.1390   32.9130   40.1630 C.2       1 ERG1201     0.0000 
     23 C23       -25.6710   31.7950   39.6420 C.2       1 ERG1201     0.0000 
     24 C24       -24.9320   31.6450   38.3380 C.3       1 ERG1201     0.0000 
     25 C25       -24.1730   30.3050   38.2530 C.3       1 ERG1201     0.0000 
     26 C26       -25.1050   29.1100   38.3590 C.3       1 ERG1201     0.0000 
     27 C27       -23.3160   30.1900   36.9980 C.3       1 ERG1201     0.0000 
     28 C28       -25.8760   31.8510   37.1520 C.3       1 ERG1201     0.0000 
     29 O1        -22.1220   28.6280   50.9960 O.3       1 ERG1201     0.0000 
@<TRIPOS>BOND
     1    1    2 1    
     2    1   10 1    
     3    2    3 1    
     4    3    4 1    
     5    3   29 1    
     6    4    5 1    
     7    5    6 2    
     8    5   10 1    
     9    6    7 1    
    10    7    8 2    
    11    8    9 1    
    12    8   14 1    
    13    9   10 1    
    14    9   11 1    
    15   10   19 1    
    16   11   12 1    
    17   12   13 1    
    18   13   14 1    
    19   13   17 1    
    20   13   18 1    
    21   14   15 1    
    22   15   16 1    
    23   16   17 1    
    24   17   20 1    
    25   20   21 1    
    26   20   22 1    
    27   22   23 2    
    28   23   24 1    
    29   24   25 1    
    30   24   28 1    
    31   25   26 1    
    32   25   27 1    
@<TRIPOS>SUBSTRUCTURE
     1 ERG1201     1 GROUP   
@<TRIPOS>SET

