#    Name: 6rts_2_NAD
#    Modification time : Fri May 22 19:25:48 2020

@<TRIPOS>MOLECULE
6rts_2_NAD
   44    48     1     0     1
SMALL
NO_CHARGES


@<TRIPOS>ATOM
      1 PA        -49.1320  -20.7390   -7.9860 P.3       1 NAD601      0.0000 
      2 O1A       -48.9470  -19.2360   -8.1840 O.co2     1 NAD601      0.0000 
      3 O2A       -49.0640  -21.2990   -6.5840 O.co2     1 NAD601      0.0000 
      4 O5B       -48.0530  -21.5000   -8.9110 O.3       1 NAD601      0.0000 
      5 C5B       -48.0700  -21.3280  -10.3250 C.3       1 NAD601      0.0000 
      6 C4B       -46.7400  -21.7530  -10.9060 C.3       1 NAD601      0.0000 
      7 O4B       -45.7670  -20.7680  -10.5520 O.3       1 NAD601      0.0000 
      8 C3B       -46.1720  -23.0840  -10.4060 C.3       1 NAD601      0.0000 
      9 O3B       -45.5350  -23.7550  -11.5130 O.3       1 NAD601      0.0000 
     10 C2B       -45.1760  -22.6720   -9.3270 C.3       1 NAD601      0.0000 
     11 O2B       -44.1070  -23.5980   -9.1030 O.3       1 NAD601      0.0000 
     12 C1B       -44.6370  -21.3750   -9.9140 C.3       1 NAD601      0.0000 
     13 N9A       -44.1160  -20.3350   -8.9980 N.pl3     1 NAD601      0.0000 
     14 C8A       -44.6540  -19.9080   -7.8360 C.2       1 NAD601      0.0000 
     15 N7A       -43.9240  -18.9020   -7.2890 N.2       1 NAD601      0.0000 
     16 C5A       -42.9100  -18.6600   -8.1340 C.ar      1 NAD601      0.0000 
     17 C6A       -41.7760  -17.7140   -8.1880 C.ar      1 NAD601      0.0000 
     18 N6A       -41.5840  -16.8200   -7.1960 N.pl3     1 NAD601      0.0000 
     19 N1A       -40.9540  -17.7810   -9.2550 N.ar      1 NAD601      0.0000 
     20 C2A       -41.1380  -18.6730  -10.2430 C.ar      1 NAD601      0.0000 
     21 N3A       -42.1430  -19.5610  -10.2680 N.ar      1 NAD601      0.0000 
     22 C4A       -43.0410  -19.6000   -9.2580 C.ar      1 NAD601      0.0000 
     23 O3        -50.5820  -21.0630   -8.6570 O.3       1 NAD601      0.0000 
     24 PN        -51.5000  -22.4250   -8.5640 P.3       1 NAD601      0.0000 
     25 O1N       -50.7480  -23.5670   -9.2610 O.co2     1 NAD601      0.0000 
     26 O2N       -52.0320  -22.6400   -7.1550 O.co2     1 NAD601      0.0000 
     27 O5D       -52.8000  -22.0530   -9.4710 O.3       1 NAD601      0.0000 
     28 C5D       -53.9110  -21.2630   -9.0270 C.3       1 NAD601      0.0000 
     29 C4D       -53.6580  -19.7650   -9.2270 C.3       1 NAD601      0.0000 
     30 O4D       -53.3190  -19.4630  -10.5870 O.3       1 NAD601      0.0000 
     31 C3D       -54.9270  -18.9610   -8.9480 C.3       1 NAD601      0.0000 
     32 O3D       -54.5930  -17.7740   -8.2150 O.3       1 NAD601      0.0000 
     33 C2D       -55.5160  -18.6920  -10.3370 C.3       1 NAD601      0.0000 
     34 O2D       -56.3700  -17.5440  -10.4290 O.3       1 NAD601      0.0000 
     35 C1D       -54.2720  -18.5660  -11.2000 C.3       1 NAD601      0.0000 
     36 N1N       -54.5260  -18.8820  -12.6230 N.pl3     1 NAD601      0.0000 
     37 C2N       -54.5980  -17.8770  -13.5200 C.ar      1 NAD601      0.0000 
     38 C3N       -54.8410  -18.1210  -14.8810 C.ar      1 NAD601      0.0000 
     39 C7N       -54.9410  -16.9930  -15.8900 C.2       1 NAD601      0.0000 
     40 O7N       -54.8430  -17.2920  -17.0790 O.2       1 NAD601      0.0000 
     41 N7N       -55.1110  -15.7030  -15.5250 N.am      1 NAD601      0.0000 
     42 C4N       -54.9940  -19.4580  -15.3040 C.ar      1 NAD601      0.0000 
     43 C5N       -54.8890  -20.5000  -14.3650 C.ar      1 NAD601      0.0000 
     44 C6N       -54.6530  -20.1750  -13.0200 C.ar      1 NAD601      0.0000 
@<TRIPOS>BOND
     1    1    2 ar   
     2    1    3 ar   
     3    1    4 1    
     4    1   23 1    
     5    4    5 1    
     6    5    6 1    
     7    6    7 1    
     8    6    8 1    
     9    7   12 1    
    10    8    9 1    
    11    8   10 1    
    12   10   11 1    
    13   10   12 1    
    14   12   13 1    
    15   13   14 1    
    16   13   22 1    
    17   14   15 2    
    18   15   16 1    
    19   16   17 ar   
    20   16   22 ar   
    21   17   18 1    
    22   17   19 ar   
    23   19   20 ar   
    24   20   21 ar   
    25   21   22 ar   
    26   23   24 1    
    27   24   25 ar   
    28   24   26 ar   
    29   24   27 1    
    30   27   28 1    
    31   28   29 1    
    32   29   30 1    
    33   29   31 1    
    34   30   35 1    
    35   31   32 1    
    36   31   33 1    
    37   33   34 1    
    38   33   35 1    
    39   35   36 1    
    40   36   37 ar   
    41   36   44 ar   
    42   37   38 ar   
    43   38   39 1    
    44   38   42 ar   
    45   39   40 2    
    46   39   41 am   
    47   42   43 ar   
    48   43   44 ar   
@<TRIPOS>SUBSTRUCTURE
     1 NAD601      1 GROUP   
@<TRIPOS>SET
ATOM$ORANGE STATIC     ATOMS   COLORGROUP SYSTEM 
42 5 5 6 6 8 8 10 10 12 12 14 14 16 16 17 17 20 \
20 22 22 28 28 29 29 31 31 33 33 35 35 37 37 38 38 39 \
39 42 42 43 43 44 44 

