#    Name: 6rts_1_NAD
#    Modification time : Fri May 22 19:25:43 2020

@<TRIPOS>MOLECULE
6rts_1_NAD
   44    48     1     0     1
SMALL
NO_CHARGES


@<TRIPOS>ATOM
      1 PA        -31.6770   10.9220  -18.0550 P.3       1 NAD601      0.0000 
      2 O1A       -31.7940    9.4190  -17.9840 O.co2     1 NAD601      0.0000 
      3 O2A       -30.5690   11.6170  -17.3260 O.co2     1 NAD601      0.0000 
      4 O5B       -33.0250   11.6710  -17.5630 O.3       1 NAD601      0.0000 
      5 C5B       -34.2390   11.5190  -18.2910 C.3       1 NAD601      0.0000 
      6 C4B       -35.4430   11.9120  -17.4430 C.3       1 NAD601      0.0000 
      7 O4B       -35.6840   10.9140  -16.4430 O.3       1 NAD601      0.0000 
      8 C3B       -35.2960   13.2340  -16.6880 C.3       1 NAD601      0.0000 
      9 O3B       -36.5710   13.9000  -16.7110 O.3       1 NAD601      0.0000 
     10 C2B       -34.8750   12.8080  -15.2890 C.3       1 NAD601      0.0000 
     11 O2B       -35.3010   13.7100  -14.2720 O.3       1 NAD601      0.0000 
     12 C1B       -35.6260   11.4930  -15.1370 C.3       1 NAD601      0.0000 
     13 N9A       -35.0500   10.4630  -14.2380 N.pl3     1 NAD601      0.0000 
     14 C8A       -33.7630   10.0670  -14.1050 C.2       1 NAD601      0.0000 
     15 N7A       -33.6800    9.0620  -13.1910 N.2       1 NAD601      0.0000 
     16 C5A       -34.9280    8.8060  -12.7510 C.ar      1 NAD601      0.0000 
     17 C6A       -35.5780    7.8730  -11.7950 C.ar      1 NAD601      0.0000 
     18 N6A       -34.8580    6.9720  -11.0880 N.pl3     1 NAD601      0.0000 
     19 N1A       -36.9220    7.9540  -11.6460 N.ar      1 NAD601      0.0000 
     20 C2A       -37.6840    8.8300  -12.3390 C.ar      1 NAD601      0.0000 
     21 N3A       -37.1670    9.7040  -13.2160 N.ar      1 NAD601      0.0000 
     22 C4A       -35.8270    9.7330  -13.4520 C.ar      1 NAD601      0.0000 
     23 O3        -31.5810   11.1860  -19.6440 O.3       1 NAD601      0.0000 
     24 PN        -30.9800   12.5300  -20.3210 P.3       1 NAD601      0.0000 
     25 O1N       -31.8930   13.7240  -19.9930 O.co2     1 NAD601      0.0000 
     26 O2N       -29.4790   12.6410  -20.0670 O.co2     1 NAD601      0.0000 
     27 O5D       -31.1910   12.0920  -21.8860 O.3       1 NAD601      0.0000 
     28 C5D       -30.2990   11.3230  -22.7210 C.3       1 NAD601      0.0000 
     29 C4D       -30.5110    9.8140  -22.5770 C.3       1 NAD601      0.0000 
     30 O4D       -31.8590    9.4640  -22.9490 O.3       1 NAD601      0.0000 
     31 C3D       -29.6050    9.0250  -23.5070 C.3       1 NAD601      0.0000 
     32 O3D       -29.1950    7.7980  -22.9080 O.3       1 NAD601      0.0000 
     33 C2D       -30.4980    8.7630  -24.7170 C.3       1 NAD601      0.0000 
     34 O2D       -30.1680    7.6350  -25.5380 O.3       1 NAD601      0.0000 
     35 C1D       -31.8690    8.5930  -24.0880 C.3       1 NAD601      0.0000 
     36 N1N       -32.9040    8.9000  -25.0730 N.pl3     1 NAD601      0.0000 
     37 C2N       -33.6700    7.9010  -25.5480 C.ar      1 NAD601      0.0000 
     38 C3N       -34.6600    8.1410  -26.5020 C.ar      1 NAD601      0.0000 
     39 C7N       -35.5330    7.0470  -27.0560 C.2       1 NAD601      0.0000 
     40 O7N       -36.6110    7.3950  -27.4980 O.2       1 NAD601      0.0000 
     41 N7N       -35.1690    5.7540  -27.0570 N.am      1 NAD601      0.0000 
     42 C4N       -34.8630    9.4630  -26.9360 C.ar      1 NAD601      0.0000 
     43 C5N       -34.0700   10.4890  -26.4310 C.ar      1 NAD601      0.0000 
     44 C6N       -33.0790   10.1750  -25.4940 C.ar      1 NAD601      0.0000 
@<TRIPOS>BOND
     1    1    2 ar   
     2    1    3 ar   
     3    1    4 1    
     4    1   23 1    
     5    4    5 1    
     6    5    6 1    
     7    6    7 1    
     8    6    8 1    
     9    7   12 1    
    10    8    9 1    
    11    8   10 1    
    12   10   11 1    
    13   10   12 1    
    14   12   13 1    
    15   13   14 1    
    16   13   22 1    
    17   14   15 2    
    18   15   16 1    
    19   16   17 ar   
    20   16   22 ar   
    21   17   18 1    
    22   17   19 ar   
    23   19   20 ar   
    24   20   21 ar   
    25   21   22 ar   
    26   23   24 1    
    27   24   25 ar   
    28   24   26 ar   
    29   24   27 1    
    30   27   28 1    
    31   28   29 1    
    32   29   30 1    
    33   29   31 1    
    34   30   35 1    
    35   31   32 1    
    36   31   33 1    
    37   33   34 1    
    38   33   35 1    
    39   35   36 1    
    40   36   37 ar   
    41   36   44 ar   
    42   37   38 ar   
    43   38   39 1    
    44   38   42 ar   
    45   39   40 2    
    46   39   41 am   
    47   42   43 ar   
    48   43   44 ar   
@<TRIPOS>SUBSTRUCTURE
     1 NAD601      1 GROUP   
@<TRIPOS>SET
ATOM$ORANGE STATIC     ATOMS   COLORGROUP SYSTEM 
42 5 5 6 6 8 8 10 10 12 12 14 14 16 16 17 17 20 \
20 22 22 28 28 29 29 31 31 33 33 35 35 37 37 38 38 39 \
39 42 42 43 43 44 44 

