#    Name: 6ifk_1_ANP
#    Modification time : Fri May 22 19:24:41 2020

@<TRIPOS>MOLECULE
6ifk_1_ANP
   31    33     1     0     1
SMALL
NO_CHARGES


@<TRIPOS>ATOM
      1 PG         -1.0890   -9.2880  -44.4250 P.3       1 ANP801      0.0000 
      2 O1G        -0.0970   -8.1830  -44.5040 O.co2     1 ANP801      0.0000 
      3 O2G        -2.2410   -8.9060  -43.4290 O.co2     1 ANP801      0.0000 
      4 O3G        -0.3600  -10.5950  -43.9280 O.co2     1 ANP801      0.0000 
      5 PB         -0.4990   -9.8050  -47.0150 P.3       1 ANP801      0.0000 
      6 O1B        -0.9030   -9.3590  -48.3740 O.co2     1 ANP801      0.0000 
      7 O2B         0.7440   -9.0090  -46.5470 O.co2     1 ANP801      0.0000 
      8 N3B        -1.7520   -9.5390  -45.9500 N.3       1 ANP801      0.0000 
      9 PA          1.2360  -11.8420  -46.5850 P.3       1 ANP801      0.0000 
     10 O1A         2.1320  -10.7570  -46.1550 O.co2     1 ANP801      0.0000 
     11 O2A         1.0170  -12.9290  -45.5340 O.co2     1 ANP801      0.0000 
     12 O3A        -0.1660  -11.3190  -47.0550 O.3       1 ANP801      0.0000 
     13 O5'         1.8390  -12.4420  -47.8890 O.3       1 ANP801      0.0000 
     14 C5'         1.8690  -11.6740  -49.0940 C.3       1 ANP801      0.0000 
     15 C4'         2.2200  -12.6200  -50.2070 C.3       1 ANP801      0.0000 
     16 O4'         2.9640  -11.9200  -51.2270 O.3       1 ANP801      0.0000 
     17 C3'         3.0790  -13.8110  -49.7810 C.3       1 ANP801      0.0000 
     18 O3'         2.5900  -15.0160  -50.3550 O.3       1 ANP801      0.0000 
     19 C2'         4.4660  -13.4510  -50.3150 C.3       1 ANP801      0.0000 
     20 O2'         5.2230  -14.6080  -50.6440 O.3       1 ANP801      0.0000 
     21 C1'         4.0980  -12.6810  -51.5740 C.3       1 ANP801      0.0000 
     22 N9          5.1400  -11.7760  -52.0430 N.pl3     1 ANP801      0.0000 
     23 C8          6.2450  -11.3590  -51.3530 C.2       1 ANP801      0.0000 
     24 N7          7.0080  -10.5340  -52.0270 N.2       1 ANP801      0.0000 
     25 C5          6.3720  -10.4170  -53.2480 C.ar      1 ANP801      0.0000 
     26 C6          6.6780   -9.6930  -54.4160 C.ar      1 ANP801      0.0000 
     27 N6          7.7590   -8.9200  -54.5410 N.pl3     1 ANP801      0.0000 
     28 N1          5.8290   -9.7920  -55.4600 N.ar      1 ANP801      0.0000 
     29 C2          4.7470  -10.5650  -55.3370 C.ar      1 ANP801      0.0000 
     30 N3          4.3540  -11.2950  -54.2900 N.ar      1 ANP801      0.0000 
     31 C4          5.2120  -11.1780  -53.2760 C.ar      1 ANP801      0.0000 
@<TRIPOS>BOND
     1    1    2 ar   
     2    1    3 ar   
     3    1    4 ar   
     4    1    8 1    
     5    5    6 ar   
     6    5    7 ar   
     7    5    8 1    
     8    5   12 1    
     9    9   10 ar   
    10    9   11 ar   
    11    9   12 1    
    12    9   13 1    
    13   13   14 1    
    14   14   15 1    
    15   15   16 1    
    16   15   17 1    
    17   16   21 1    
    18   17   18 1    
    19   17   19 1    
    20   19   20 1    
    21   19   21 1    
    22   21   22 1    
    23   22   23 1    
    24   22   31 1    
    25   23   24 2    
    26   24   25 1    
    27   25   26 ar   
    28   25   31 ar   
    29   26   27 1    
    30   26   28 ar   
    31   28   29 ar   
    32   29   30 ar   
    33   30   31 ar   
@<TRIPOS>SUBSTRUCTURE
     1 ANP801      1 GROUP   
@<TRIPOS>SET
ATOM$ORANGE STATIC     ATOMS   COLORGROUP SYSTEM 
20 14 14 15 15 17 17 19 19 21 21 23 23 25 25 26 26 29 \
29 31 31 

