#    Name: 6ifk_1_ANP_CAVITY_N1_6
#    Modification time : Fri May 22 19:24:43 2020

@<TRIPOS>MOLECULE
6ifk_1_ANP_CAVITY_N1_6
   99     0     7     0     0
SMALL
NO_CHARGES


@<TRIPOS>ATOM
      1 OG          2.9100  -15.2800  -54.1600 O.3       1 SER1        0.0000 
      2 OG          2.4700  -14.0200  -54.8400 O.3       1 SER1        0.0000 
      3 OG          2.0300  -12.7500  -55.5200 O.3       1 SER1        0.0000 
      4 OG          1.4900  -15.5300  -53.7200 O.3       1 SER1        0.0000 
      5 OG          1.0600  -14.2700  -54.4000 O.3       1 SER1        0.0000 
      6 OG          0.0800  -15.7900  -53.2900 O.3       1 SER1        0.0000 
      7 OG          0.7700  -16.2800  -51.3400 O.3       1 SER1        0.0000 
      8 OG          6.3300   -9.1900  -54.9900 O.3       1 SER1        0.0000 
      9 OG          5.9000   -7.9300  -55.6700 O.3       1 SER1        0.0000 
     10 OG          6.6700  -14.4900  -51.8200 O.3       1 SER1        0.0000 
     11 OG          6.2300  -13.2300  -52.5000 O.3       1 SER1        0.0000 
     12 OG          2.4300  -15.2600  -50.5100 O.3       1 SER1        0.0000 
     13 OG          7.0200   -9.6800  -53.0400 O.3       1 SER1        0.0000 
     14 OG          6.9200  -13.7200  -50.5600 O.3       1 SER1        0.0000 
     15 OG          6.4900  -12.4600  -51.2400 O.3       1 SER1        0.0000 
     16 OG          6.0500  -11.2000  -51.9200 O.3       1 SER1        0.0000 
     17 O           7.3600  -14.9900  -49.8800 O.2       2 ALA2        0.0000 
     18 N           5.9500  -15.2400  -49.4400 N.am      2 ALA2        0.0000 
     19 N           5.5100  -13.9800  -50.1200 N.am      2 ALA2        0.0000 
     20 N           4.5400  -15.4900  -49.0100 N.am      2 ALA2        0.0000 
     21 N           4.1000  -14.2300  -49.6900 N.am      2 ALA2        0.0000 
     22 N           3.1200  -15.7500  -48.5700 N.am      2 ALA2        0.0000 
     23 N           2.6900  -14.4900  -49.2500 N.am      2 ALA2        0.0000 
     24 O           1.8100  -11.9600  -50.6200 O.2       2 ALA2        0.0000 
     25 O           1.3700  -10.7000  -51.3000 O.2       2 ALA2        0.0000 
     26 N           7.2800   -8.9100  -51.7800 N.am      2 ALA2        0.0000 
     27 N           5.7600  -13.2100  -48.8600 N.am      2 ALA2        0.0000 
     28 N           4.3500  -13.4600  -48.4200 N.am      2 ALA2        0.0000 
     29 N           2.9400  -13.7200  -47.9900 N.am      2 ALA2        0.0000 
     30 N           3.1900  -12.9500  -46.7300 N.am      2 ALA2        0.0000 
     31 OD1         0.3300  -15.0200  -52.0200 O.co2     3 ASP3        0.0000 
     32 OD1        -0.1000  -13.7500  -52.7000 O.co2     3 ASP3        0.0000 
     33 OD1         2.0000  -13.9900  -51.2000 O.co2     3 ASP3        0.0000 
     34 OD1         1.5600  -12.7300  -51.8800 O.co2     3 ASP3        0.0000 
     35 OD1         1.0200  -15.5100  -50.0800 O.co2     3 ASP3        0.0000 
     36 OD1         2.2500  -13.2200  -49.9300 O.co2     3 ASP3        0.0000 
     37 OD1         1.2700  -14.7400  -48.8200 O.co2     3 ASP3        0.0000 
     38 NZ          5.3300  -11.9500  -49.5400 N.4       4 LYS4        0.0000 
     39 NZ          3.9100  -12.2000  -49.1100 N.4       4 LYS4        0.0000 
     40 NZ          2.5000  -12.4500  -48.6700 N.4       4 LYS4        0.0000 
     41 NZ          2.0600  -11.1900  -49.3500 N.4       4 LYS4        0.0000 
     42 NZ          2.7500  -11.6800  -47.4100 N.4       4 LYS4        0.0000 
     43 CZ          4.8600  -12.2500  -56.3900 C.ar      5 PHE5        0.0000 
     44 CZ          4.3200  -15.0200  -54.5900 C.ar      5 PHE5        0.0000 
     45 CZ          3.8800  -13.7600  -55.2800 C.ar      5 PHE5        0.0000 
     46 CZ          3.4400  -12.5000  -55.9600 C.ar      5 PHE5        0.0000 
     47 CZ          6.5200  -11.2200  -55.5700 C.ar      5 PHE5        0.0000 
     48 CZ          5.5500  -12.7400  -54.4500 C.ar      5 PHE5        0.0000 
     49 CZ          5.1100  -11.4800  -55.1300 C.ar      5 PHE5        0.0000 
     50 CZ          4.6700  -10.2100  -55.8100 C.ar      5 PHE5        0.0000 
     51 CZ          4.1300  -12.9900  -54.0100 C.ar      5 PHE5        0.0000 
     52 CZ          3.7000  -11.7300  -54.7000 C.ar      5 PHE5        0.0000 
     53 CZ          3.2600  -10.4700  -55.3800 C.ar      5 PHE5        0.0000 
     54 CZ          3.1600  -14.5100  -52.9000 C.ar      5 PHE5        0.0000 
     55 CZ          2.2800  -11.9800  -54.2600 C.ar      5 PHE5        0.0000 
     56 CZ          1.8500  -10.7200  -54.9400 C.ar      5 PHE5        0.0000 
     57 CZ          1.7500  -14.7600  -52.4600 C.ar      5 PHE5        0.0000 
     58 CZ          6.7700  -10.4500  -54.3100 C.ar      5 PHE5        0.0000 
     59 CZ          5.8000  -11.9700  -53.1900 C.ar      5 PHE5        0.0000 
     60 CZ          5.3600  -10.7100  -53.8700 C.ar      5 PHE5        0.0000 
     61 CZ          4.9200   -9.4400  -54.5500 C.ar      5 PHE5        0.0000 
     62 CZ          5.2600  -14.7500  -51.3900 C.ar      5 PHE5        0.0000 
     63 CZ          4.8200  -13.4900  -52.0700 C.ar      5 PHE5        0.0000 
     64 CZ          3.5100   -9.7000  -54.1100 C.ar      5 PHE5        0.0000 
     65 CZ          3.8500  -15.0000  -50.9500 C.ar      5 PHE5        0.0000 
     66 CZ          3.4100  -13.7400  -51.6300 C.ar      5 PHE5        0.0000 
     67 CZ          8.4400   -9.4300  -53.4800 C.ar      5 PHE5        0.0000 
     68 CZ          6.1500   -7.1600  -54.4100 C.ar      5 PHE5        0.0000 
     69 CZ          4.7400   -7.4100  -53.9700 C.ar      5 PHE5        0.0000 
     70 CA          0.6200  -13.0100  -55.0900 C.3       6 GLY6        0.0000 
     71 CA         -0.3600  -14.5200  -53.9700 C.3       6 GLY6        0.0000 
     72 CA          4.5700  -14.2500  -53.3300 C.3       6 GLY6        0.0000 
     73 CA          0.8700  -12.2400  -53.8200 C.3       6 GLY6        0.0000 
     74 CA          0.4300  -10.9800  -54.5100 C.3       6 GLY6        0.0000 
     75 CA         -0.5400  -12.4900  -53.3900 C.3       6 GLY6        0.0000 
     76 CA          7.7500   -8.9400  -55.4200 C.3       6 GLY6        0.0000 
     77 CA          2.5300  -11.2100  -53.0000 C.3       6 GLY6        0.0000 
     78 CA          2.1000   -9.9500  -53.6800 C.3       6 GLY6        0.0000 
     79 CA          1.1200  -11.4700  -52.5600 C.3       6 GLY6        0.0000 
     80 CA          8.0000   -8.1700  -54.1600 C.3       6 GLY6        0.0000 
     81 CA          6.5900   -8.4200  -53.7200 C.3       6 GLY6        0.0000 
     82 CA          5.6100   -9.9400  -52.6100 C.3       6 GLY6        0.0000 
     83 CA          5.1700   -8.6700  -53.2900 C.3       6 GLY6        0.0000 
     84 CA          4.6400  -11.4500  -51.4900 C.3       6 GLY6        0.0000 
     85 CA          4.2000  -10.1900  -52.1700 C.3       6 GLY6        0.0000 
     86 CA          3.2200  -11.7100  -51.0500 C.3       6 GLY6        0.0000 
     87 CA          2.7900  -10.4400  -51.7300 C.3       6 GLY6        0.0000 
     88 CA          6.8400   -7.6500  -52.4600 C.3       6 GLY6        0.0000 
     89 CA          7.1800  -12.9500  -49.3000 C.3       6 GLY6        0.0000 
     90 CA          6.7400  -11.6900  -49.9800 C.3       6 GLY6        0.0000 
     91 CA          6.3000  -10.4300  -50.6600 C.3       6 GLY6        0.0000 
     92 CA          3.4800  -10.9400  -49.7900 C.3       6 GLY6        0.0000 
     93 DU          2.7200  -13.2500  -53.5800 H         7 CUB7        0.0000 
     94 DU          1.3100  -13.5000  -53.1400 H         7 CUB7        0.0000 
     95 DU          4.3800  -12.2200  -52.7500 H         7 CUB7        0.0000 
     96 DU          3.9500  -10.9600  -53.4300 H         7 CUB7        0.0000 
     97 DU          2.9700  -12.4800  -52.3100 H         7 CUB7        0.0000 
     98 DU          5.0700  -12.7200  -50.8100 H         7 CUB7        0.0000 
     99 DU          3.6600  -12.9700  -50.3700 H         7 CUB7        0.0000 
@<TRIPOS>BOND
@<TRIPOS>SUBSTRUCTURE
     1 SER1        1 GROUP   
     2 ALA2       17 GROUP   
     3 ASP3       31 GROUP   
     4 LYS4       38 GROUP   
     5 PHE5       43 GROUP   
     6 GLY6       70 GROUP   
     7 CUB7       93 GROUP   
@<TRIPOS>SET

