#    Name: 6gr9_1_VX6
#    Modification time : Fri May 22 19:27:36 2020

@<TRIPOS>MOLECULE
6gr9_1_VX6
   33    37     1     0     0
SMALL
NO_CHARGES


@<TRIPOS>ATOM
      1 N1         30.4180   12.9040    2.9440 N.4       1 VX6401      0.0000 
      2 C2         31.5540   11.9930    3.0980 C.3       1 VX6401      0.0000 
      3 C3         31.0980   10.5480    3.0560 C.3       1 VX6401      0.0000 
      4 N4         30.0610   10.3160    4.0530 N.3       1 VX6401      0.0000 
      5 C5         28.9520   11.2590    4.0140 C.3       1 VX6401      0.0000 
      6 C6         29.4700   12.6810    4.0350 C.3       1 VX6401      0.0000 
      7 C7         30.8710   14.2990    2.9250 C.3       1 VX6401      0.0000 
      8 C8         30.0550    9.1900    4.8340 C.ar      1 VX6401      0.0000 
      9 C9         29.0570    8.9450    5.8110 C.ar      1 VX6401      0.0000 
     10 C10        29.1040    7.7220    6.4950 C.ar      1 VX6401      0.0000 
     11 N11        30.0600    6.8210    6.2400 N.ar      1 VX6401      0.0000 
     12 C12        30.9690    7.1240    5.2890 C.ar      1 VX6401      0.0000 
     13 N13        30.9960    8.2510    4.5660 N.ar      1 VX6401      0.0000 
     14 N14        28.1370    7.5680    7.4740 N.pl3     1 VX6401      0.0000 
     15 C15        27.8710    6.4390    8.2200 C.2       1 VX6401      0.0000 
     16 C17        28.5630    5.2340    8.2140 C.2       1 VX6401      0.0000 
     17 C18        27.9270    4.4190    9.0910 C.2       1 VX6401      0.0000 
     18 N19        26.8780    5.1120    9.5610 N.2       1 VX6401      0.0000 
     19 N20        26.8290    6.3710    9.0400 N.pl3     1 VX6401      0.0000 
     20 C21        28.1920    3.0110    9.4930 C.3       1 VX6401      0.0000 
     21 S23        32.2680    5.9950    4.9170 S.3       1 VX6401      0.0000 
     22 C24        32.1910    4.8840    6.2990 C.ar      1 VX6401      0.0000 
     23 C25        31.4470    3.7210    6.2220 C.ar      1 VX6401      0.0000 
     24 C26        31.3780    2.8620    7.3080 C.ar      1 VX6401      0.0000 
     25 C27        32.0590    3.1640    8.4960 C.ar      1 VX6401      0.0000 
     26 C28        32.7760    4.3520    8.5760 C.ar      1 VX6401      0.0000 
     27 C29        32.8490    5.2000    7.4830 C.ar      1 VX6401      0.0000 
     28 N30        32.0500    2.3620    9.6630 N.am      1 VX6401      0.0000 
     29 C31        31.5340    1.2090    9.8130 C.2       1 VX6401      0.0000 
     30 O32        30.8550    0.5690    8.8670 O.2       1 VX6401      0.0000 
     31 C33        31.6900    0.5380   10.9600 C.3       1 VX6401      0.0000 
     32 C34        30.6940   -0.5090   11.3880 C.3       1 VX6401      0.0000 
     33 C35        30.7100    0.7980   12.0690 C.3       1 VX6401      0.0000 
@<TRIPOS>BOND
     1    1    2 1    
     2    1    6 1    
     3    1    7 1    
     4    2    3 1    
     5    3    4 1    
     6    4    5 1    
     7    4    8 1    
     8    5    6 1    
     9    8    9 ar   
    10    8   13 ar   
    11    9   10 ar   
    12   10   11 ar   
    13   10   14 1    
    14   11   12 ar   
    15   12   13 ar   
    16   12   21 1    
    17   14   15 1    
    18   15   16 2    
    19   15   19 1    
    20   16   17 1    
    21   17   18 2    
    22   17   20 1    
    23   18   19 1    
    24   21   22 1    
    25   22   23 ar   
    26   22   27 ar   
    27   23   24 ar   
    28   24   25 ar   
    29   25   26 ar   
    30   25   28 1    
    31   26   27 ar   
    32   28   29 am   
    33   29   30 2    
    34   29   31 1    
    35   31   32 1    
    36   31   33 1    
    37   32   33 1    
@<TRIPOS>SUBSTRUCTURE
     1 VX6401      1 GROUP   
@<TRIPOS>SET

