#    Name: 5z2p_8_TD6
#    Modification time : Fri May 22 19:31:07 2020

@<TRIPOS>MOLECULE
5z2p_8_TD6
   33    34     1     0     0
SMALL
NO_CHARGES


@<TRIPOS>ATOM
      1 S1         21.1360  -10.7510   21.6540 S.3       1 TD6601      0.0000 
      2 C2         21.2000  -10.2390   20.2280 C.2       1 TD6601      0.0000 
      3 N3         21.5500  -11.2310   19.3610 N.pl3     1 TD6601      0.0000 
      4 C4         21.7240  -12.4730   20.2520 C.2       1 TD6601      0.0000 
      5 C5         21.4220  -12.1740   21.6250 C.2       1 TD6601      0.0000 
      6 C6         21.4760  -13.1240   22.8150 C.3       1 TD6601      0.0000 
      7 C7         22.5080  -12.8230   23.8570 C.3       1 TD6601      0.0000 
      8 O7         22.5520  -13.8820   24.7690 O.3       1 TD6601      0.0000 
      9 PA         23.2320  -13.8280   26.2050 P.3       1 TD6601      0.0000 
     10 PB         20.9230  -12.6540   27.3860 P.3       1 TD6601      0.0000 
     11 N1'        25.1120  -12.2950   16.7240 N.ar      1 TD6601      0.0000 
     12 C11        20.9360   -8.8600   19.7450 C.3       1 TD6601      0.0000 
     13 C13        21.9470   -7.1430   21.2080 C.3       1 TD6601      0.0000 
     14 O1A        24.5650  -13.5420   26.2210 O.co2     1 TD6601      0.0000 
     15 O1B        20.0990  -12.6280   26.2240 O.co2     1 TD6601      0.0000 
     16 C2'        25.9270  -11.3220   17.1400 C.ar      1 TD6601      0.0000 
     17 O2A        23.0980  -15.1210   26.6380 O.co2     1 TD6601      0.0000 
     18 O2B        20.7590  -11.5320   28.1700 O.co2     1 TD6601      0.0000 
     19 N3'        25.4150  -10.2640   17.8130 N.ar      1 TD6601      0.0000 
     20 O3A        22.4600  -12.6820   27.0170 O.3       1 TD6601      0.0000 
     21 O3B        20.3530  -13.7450   28.0970 O.co2     1 TD6601      0.0000 
     22 C4'        24.1510  -10.1770   18.0380 C.ar      1 TD6601      0.0000 
     23 N4'        23.7680   -9.0110   18.6970 N.pl3     1 TD6601      0.0000 
     24 C5'        23.2840  -11.1710   17.6100 C.ar      1 TD6601      0.0000 
     25 C6'        23.8070  -12.2370   16.9510 C.ar      1 TD6601      0.0000 
     26 C7'        21.7740  -11.0950   17.9130 C.3       1 TD6601      0.0000 
     27 OL1        19.7050   -9.0760   19.2170 O.3       1 TD6601      0.0000 
     28 OL2        20.8860   -4.9990   21.0400 O.co2     1 TD6601      0.0000 
     29 OL3        21.8900   -5.4310   22.8430 O.co2     1 TD6601      0.0000 
     30 CLB        20.6900   -7.9020   20.8520 C.3       1 TD6601      0.0000 
     31 CLC        21.5450   -5.7810   21.7360 C.2       1 TD6601      0.0000 
     32 CM2        27.4240  -11.3490   16.8990 C.3       1 TD6601      0.0000 
     33 CM4        22.1090  -13.8150   19.6990 C.3       1 TD6601      0.0000 
@<TRIPOS>BOND
     1    1    2 1    
     2    1    5 1    
     3    2    3 2    
     4    2   12 1    
     5    3    4 1    
     6    3   26 1    
     7    4    5 2    
     8    4   33 1    
     9    5    6 1    
    10    6    7 1    
    11    7    8 1    
    12    8    9 1    
    13    9   14 ar   
    14    9   17 ar   
    15    9   20 1    
    16   10   15 ar   
    17   10   18 ar   
    18   10   20 1    
    19   10   21 ar   
    20   11   16 ar   
    21   11   25 ar   
    22   12   27 1    
    23   12   30 1    
    24   13   30 1    
    25   13   31 1    
    26   16   19 ar   
    27   16   32 1    
    28   19   22 ar   
    29   22   23 1    
    30   22   24 ar   
    31   24   25 ar   
    32   24   26 1    
    33   28   31 ar   
    34   29   31 ar   
@<TRIPOS>SUBSTRUCTURE
     1 TD6601      1 GROUP   
@<TRIPOS>SET

