#    Name: 5z2p_1_TD6
#    Modification time : Fri May 22 19:29:09 2020

@<TRIPOS>MOLECULE
5z2p_1_TD6
   33    34     1     0     0
SMALL
NO_CHARGES


@<TRIPOS>ATOM
      1 S1         14.1600    8.6580  -27.3710 S.3       1 TD6601      0.0000 
      2 C2         14.6460    8.1200  -26.0500 C.2       1 TD6601      0.0000 
      3 N3         15.3890    9.0880  -25.3080 N.pl3     1 TD6601      0.0000 
      4 C4         15.4300   10.3070  -26.2240 C.2       1 TD6601      0.0000 
      5 C5         14.6890   10.0270  -27.4230 C.2       1 TD6601      0.0000 
      6 C6         14.5260   11.0920  -28.5080 C.3       1 TD6601      0.0000 
      7 C7         15.1800   10.8720  -29.8250 C.3       1 TD6601      0.0000 
      8 O7         14.9890   11.8970  -30.7380 O.3       1 TD6601      0.0000 
      9 PA         15.2220   11.5520  -32.2690 P.3       1 TD6601      0.0000 
     10 PB         12.5150   10.6080  -32.4990 P.3       1 TD6601      0.0000 
     11 N1'        19.7070    9.6560  -23.7460 N.ar      1 TD6601      0.0000 
     12 C11        14.4040    6.7480  -25.4410 C.3       1 TD6601      0.0000 
     13 C13        14.4390    4.5690  -26.8240 C.3       1 TD6601      0.0000 
     14 O1A        16.4440   11.0440  -32.5880 O.co2     1 TD6601      0.0000 
     15 O1B        12.0720   10.5070  -31.1520 O.co2     1 TD6601      0.0000 
     16 C2'        20.2020    8.6510  -24.4550 C.ar      1 TD6601      0.0000 
     17 O2A        15.0030   12.8090  -32.8080 O.co2     1 TD6601      0.0000 
     18 O2B        11.9890    9.6730  -33.3070 O.co2     1 TD6601      0.0000 
     19 N3'        19.3730    7.7580  -25.0080 N.ar      1 TD6601      0.0000 
     20 O3A        14.0640   10.5330  -32.6810 O.3       1 TD6601      0.0000 
     21 O3B        11.9160   11.7440  -32.9730 O.co2     1 TD6601      0.0000 
     22 C4'        18.0920    7.8470  -24.8590 C.ar      1 TD6601      0.0000 
     23 N4'        17.2730    6.8750  -25.4530 N.pl3     1 TD6601      0.0000 
     24 C5'        17.5510    8.8830  -24.1200 C.ar      1 TD6601      0.0000 
     25 C6'        18.4080    9.7950  -23.5460 C.ar      1 TD6601      0.0000 
     26 C7'        16.0290    8.9970  -24.0050 C.3       1 TD6601      0.0000 
     27 OL1        13.5260    7.1100  -24.5330 O.3       1 TD6601      0.0000 
     28 OL2        13.3190    3.2130  -25.1580 O.co2     1 TD6601      0.0000 
     29 OL3        13.8330    2.1570  -26.9410 O.co2     1 TD6601      0.0000 
     30 CLB        13.6440    5.7630  -26.2840 C.3       1 TD6601      0.0000 
     31 CLC        13.8220    3.2460  -26.3000 C.2       1 TD6601      0.0000 
     32 CM2        21.7070    8.5340  -24.6380 C.3       1 TD6601      0.0000 
     33 CM4        16.1110   11.5950  -25.8610 C.3       1 TD6601      0.0000 
@<TRIPOS>BOND
     1    1    2 1    
     2    1    5 1    
     3    2    3 2    
     4    2   12 1    
     5    3    4 1    
     6    3   26 1    
     7    4    5 2    
     8    4   33 1    
     9    5    6 1    
    10    6    7 1    
    11    7    8 1    
    12    8    9 1    
    13    9   14 ar   
    14    9   17 ar   
    15    9   20 1    
    16   10   15 ar   
    17   10   18 ar   
    18   10   20 1    
    19   10   21 ar   
    20   11   16 ar   
    21   11   25 ar   
    22   12   27 1    
    23   12   30 1    
    24   13   30 1    
    25   13   31 1    
    26   16   19 ar   
    27   16   32 1    
    28   19   22 ar   
    29   22   23 1    
    30   22   24 ar   
    31   24   25 ar   
    32   24   26 1    
    33   28   31 ar   
    34   29   31 ar   
@<TRIPOS>SUBSTRUCTURE
     1 TD6601      1 GROUP   
@<TRIPOS>SET

