#    Name: 5z2p_2_TD6
#    Modification time : Fri May 22 19:29:26 2020

@<TRIPOS>MOLECULE
5z2p_2_TD6
   33    34     1     0     0
SMALL
NO_CHARGES


@<TRIPOS>ATOM
      1 S1         45.8980   16.6570  -25.6550 S.3       1 TD6601      0.0000 
      2 C2         45.7220   15.5490  -24.6550 C.2       1 TD6601      0.0000 
      3 N3         44.9520   14.5170  -25.1780 N.pl3     1 TD6601      0.0000 
      4 C4         44.6230   14.9590  -26.5980 C.2       1 TD6601      0.0000 
      5 C5         45.2370   16.2320  -26.8520 C.2       1 TD6601      0.0000 
      6 C6         45.1680   17.0260  -28.1710 C.3       1 TD6601      0.0000 
      7 C7         44.1490   18.1020  -28.2420 C.3       1 TD6601      0.0000 
      8 O7         44.0740   18.5240  -29.5540 O.3       1 TD6601      0.0000 
      9 PA         43.6440   19.9910  -29.9100 P.3       1 TD6601      0.0000 
     10 PB         46.4370   21.0430  -29.5150 P.3       1 TD6601      0.0000 
     11 N1'        40.9680   12.4190  -24.3480 N.ar      1 TD6601      0.0000 
     12 C11        46.2650   15.4720  -23.2450 C.3       1 TD6601      0.0000 
     13 C13        47.0670   17.6960  -22.2940 C.3       1 TD6601      0.0000 
     14 O1A        42.4700   20.3430  -29.3440 O.co2     1 TD6601      0.0000 
     15 O1B        47.1390   19.9330  -28.9680 O.co2     1 TD6601      0.0000 
     16 C2'        40.4530   13.3490  -23.5230 C.ar      1 TD6601      0.0000 
     17 O2A        43.4990   20.0090  -31.2880 O.co2     1 TD6601      0.0000 
     18 O2B        46.8520   22.1610  -28.8580 O.co2     1 TD6601      0.0000 
     19 N3'        41.2520   14.2910  -22.9900 N.ar      1 TD6601      0.0000 
     20 O3A        44.8340   20.9430  -29.3460 O.3       1 TD6601      0.0000 
     21 O3B        46.7620   21.0990  -30.8730 O.co2     1 TD6601      0.0000 
     22 C4'        42.5380   14.3000  -23.2810 C.ar      1 TD6601      0.0000 
     23 N4'        43.3870   15.3050  -22.7290 N.pl3     1 TD6601      0.0000 
     24 C5'        43.0650   13.3310  -24.1220 C.ar      1 TD6601      0.0000 
     25 C6'        42.2350   12.4020  -24.6450 C.ar      1 TD6601      0.0000 
     26 C7'        44.5460   13.3170  -24.4890 C.3       1 TD6601      0.0000 
     27 OL1        47.6020   15.3160  -23.4460 O.3       1 TD6601      0.0000 
     28 OL2        47.0830   18.1980  -19.9960 O.co2     1 TD6601      0.0000 
     29 OL3        46.2820   19.7360  -21.2330 O.co2     1 TD6601      0.0000 
     30 CLB        45.9090   16.7040  -22.4150 C.3       1 TD6601      0.0000 
     31 CLC        46.7900   18.6100  -21.1110 C.2       1 TD6601      0.0000 
     32 CM2        38.9690   13.3300  -23.2210 C.3       1 TD6601      0.0000 
     33 CM4        43.8110   14.1140  -27.5380 C.3       1 TD6601      0.0000 
@<TRIPOS>BOND
     1    1    2 1    
     2    1    5 1    
     3    2    3 2    
     4    2   12 1    
     5    3    4 1    
     6    3   26 1    
     7    4    5 2    
     8    4   33 1    
     9    5    6 1    
    10    6    7 1    
    11    7    8 1    
    12    8    9 1    
    13    9   14 ar   
    14    9   17 ar   
    15    9   20 1    
    16   10   15 ar   
    17   10   18 ar   
    18   10   20 1    
    19   10   21 ar   
    20   11   16 ar   
    21   11   25 ar   
    22   12   27 1    
    23   12   30 1    
    24   13   30 1    
    25   13   31 1    
    26   16   19 ar   
    27   16   32 1    
    28   19   22 ar   
    29   22   23 1    
    30   22   24 ar   
    31   24   25 ar   
    32   24   26 1    
    33   28   31 ar   
    34   29   31 ar   
@<TRIPOS>SUBSTRUCTURE
     1 TD6601      1 GROUP   
@<TRIPOS>SET

