#    Name: 5z2p_5_TD6
#    Modification time : Fri May 22 19:30:16 2020

@<TRIPOS>MOLECULE
5z2p_5_TD6
   33    34     1     0     0
SMALL
NO_CHARGES


@<TRIPOS>ATOM
      1 S1         34.7040    2.9900 -100.8790 S.3       1 TD6601      0.0000 
      2 C2         35.5420    2.1140  -99.9790 C.2       1 TD6601      0.0000 
      3 N3         36.3630    1.2220 -100.6660 N.pl3     1 TD6601      0.0000 
      4 C4         36.0870    1.5010 -102.1520 C.2       1 TD6601      0.0000 
      5 C5         35.1080    2.5590 -102.2240 C.2       1 TD6601      0.0000 
      6 C6         34.5560    3.1350 -103.5290 C.3       1 TD6601      0.0000 
      7 C7         33.2090    2.5750 -103.9480 C.3       1 TD6601      0.0000 
      8 O7         32.8380    3.0640 -105.1950 O.3       1 TD6601      0.0000 
      9 PA         31.3320    3.3350 -105.6450 P.3       1 TD6601      0.0000 
     10 PB         31.2000    5.9770 -104.5560 P.3       1 TD6601      0.0000 
     11 N1'        37.0160   -3.2980 -101.2250 N.ar      1 TD6601      0.0000 
     12 C11        35.5990    2.0950  -98.4850 C.3       1 TD6601      0.0000 
     13 C13        33.3140    2.0800  -97.5230 C.3       1 TD6601      0.0000 
     14 O1A        30.5460    2.2050 -105.6050 O.co2     1 TD6601      0.0000 
     15 O1B        32.4440    6.0510 -103.9250 O.co2     1 TD6601      0.0000 
     16 C2'        35.9120   -3.7380 -100.5740 C.ar      1 TD6601      0.0000 
     17 O2A        31.4520    3.7530 -106.9860 O.co2     1 TD6601      0.0000 
     18 O2B        30.3290    6.6760 -103.8340 O.co2     1 TD6601      0.0000 
     19 N3'        35.2000   -2.8960  -99.7650 N.ar      1 TD6601      0.0000 
     20 O3A        30.7330    4.4910 -104.7190 O.3       1 TD6601      0.0000 
     21 O3B        31.3380    6.5920 -105.8250 O.co2     1 TD6601      0.0000 
     22 C4'        35.6370   -1.6580  -99.6340 C.ar      1 TD6601      0.0000 
     23 N4'        34.9740   -0.7780  -98.8050 N.pl3     1 TD6601      0.0000 
     24 C5'        36.7840   -1.2080 -100.2740 C.ar      1 TD6601      0.0000 
     25 C6'        37.4510   -2.0740 -101.0720 C.ar      1 TD6601      0.0000 
     26 C7'        37.2610    0.2400 -100.0910 C.3       1 TD6601      0.0000 
     27 OL1        36.6700    2.8620  -98.2510 O.3       1 TD6601      0.0000 
     28 OL2        33.6560    3.1210  -95.3800 O.co2     1 TD6601      0.0000 
     29 OL3        31.7120    2.6530  -95.9470 O.co2     1 TD6601      0.0000 
     30 CLB        34.5210    2.9180  -97.9090 C.3       1 TD6601      0.0000 
     31 CLC        32.8890    2.6580  -96.2090 C.2       1 TD6601      0.0000 
     32 CM2        35.4700   -5.1740 -100.7880 C.3       1 TD6601      0.0000 
     33 CM4        36.7620    0.7900 -103.2970 C.3       1 TD6601      0.0000 
@<TRIPOS>BOND
     1    1    2 1    
     2    1    5 1    
     3    2    3 2    
     4    2   12 1    
     5    3    4 1    
     6    3   26 1    
     7    4    5 2    
     8    4   33 1    
     9    5    6 1    
    10    6    7 1    
    11    7    8 1    
    12    8    9 1    
    13    9   14 ar   
    14    9   17 ar   
    15    9   20 1    
    16   10   15 ar   
    17   10   18 ar   
    18   10   20 1    
    19   10   21 ar   
    20   11   16 ar   
    21   11   25 ar   
    22   12   27 1    
    23   12   30 1    
    24   13   30 1    
    25   13   31 1    
    26   16   19 ar   
    27   16   32 1    
    28   19   22 ar   
    29   22   23 1    
    30   22   24 ar   
    31   24   25 ar   
    32   24   26 1    
    33   28   31 ar   
    34   29   31 ar   
@<TRIPOS>SUBSTRUCTURE
     1 TD6601      1 GROUP   
@<TRIPOS>SET

