#    Name: 5z2p_6_TD6
#    Modification time : Fri May 22 19:30:33 2020

@<TRIPOS>MOLECULE
5z2p_6_TD6
   33    34     1     0     0
SMALL
NO_CHARGES


@<TRIPOS>ATOM
      1 S1         49.5600  -21.9570   10.6350 S.3       1 TD6601      0.0000 
      2 C2         49.2030  -20.8370    9.6800 C.2       1 TD6601      0.0000 
      3 N3         48.8430  -19.7090   10.3950 N.pl3     1 TD6601      0.0000 
      4 C4         48.9840  -20.0870   11.8840 C.2       1 TD6601      0.0000 
      5 C5         49.4410  -21.4300   11.9730 C.2       1 TD6601      0.0000 
      6 C6         49.7000  -22.1620   13.2740 C.3       1 TD6601      0.0000 
      7 C7         48.5880  -23.0720   13.7210 C.3       1 TD6601      0.0000 
      8 O7         48.9170  -23.6610   14.9240 O.3       1 TD6601      0.0000 
      9 PA         48.5340  -25.1210   15.3490 P.3       1 TD6601      0.0000 
     10 PB         50.8220  -26.5840   14.4030 P.3       1 TD6601      0.0000 
     11 N1'        45.1080  -17.1570   10.8740 N.ar      1 TD6601      0.0000 
     12 C11        49.1910  -20.8320    8.1660 C.3       1 TD6601      0.0000 
     13 C13        48.0550  -23.0340    7.4050 C.3       1 TD6601      0.0000 
     14 O1A        47.2500  -25.4580   15.4340 O.co2     1 TD6601      0.0000 
     15 O1B        51.3530  -25.4650   13.7540 O.co2     1 TD6601      0.0000 
     16 C2'        44.2500  -18.0070   10.2830 C.ar      1 TD6601      0.0000 
     17 O2A        48.9080  -25.1010   16.6630 O.co2     1 TD6601      0.0000 
     18 O2B        50.9510  -27.6290   13.6000 O.co2     1 TD6601      0.0000 
     19 N3'        44.7320  -19.0350    9.5450 N.ar      1 TD6601      0.0000 
     20 O3A        49.2790  -26.2610   14.5120 O.3       1 TD6601      0.0000 
     21 O3B        51.4260  -26.7390   15.6820 O.co2     1 TD6601      0.0000 
     22 C4'        46.0290  -19.1900    9.4060 C.ar      1 TD6601      0.0000 
     23 N4'        46.5260  -20.2580    8.6360 N.pl3     1 TD6601      0.0000 
     24 C5'        46.9010  -18.2990   10.0130 C.ar      1 TD6601      0.0000 
     25 C6'        46.4000  -17.2910   10.7430 C.ar      1 TD6601      0.0000 
     26 C7'        48.3930  -18.4510    9.8800 C.3       1 TD6601      0.0000 
     27 OL1        50.4040  -20.3150    7.8580 O.3       1 TD6601      0.0000 
     28 OL2        49.0630  -23.8070    5.4250 O.co2     1 TD6601      0.0000 
     29 OL3        48.0890  -25.2310    6.3390 O.co2     1 TD6601      0.0000 
     30 CLB        49.3090  -22.2070    7.5790 C.3       1 TD6601      0.0000 
     31 CLC        48.4200  -24.0860    6.3740 C.2       1 TD6601      0.0000 
     32 CM2        42.7650  -17.8190   10.4530 C.3       1 TD6601      0.0000 
     33 CM4        48.6860  -19.1690   13.0300 C.3       1 TD6601      0.0000 
@<TRIPOS>BOND
     1    1    2 1    
     2    1    5 1    
     3    2    3 2    
     4    2   12 1    
     5    3    4 1    
     6    3   26 1    
     7    4    5 2    
     8    4   33 1    
     9    5    6 1    
    10    6    7 1    
    11    7    8 1    
    12    8    9 1    
    13    9   14 ar   
    14    9   17 ar   
    15    9   20 1    
    16   10   15 ar   
    17   10   18 ar   
    18   10   20 1    
    19   10   21 ar   
    20   11   16 ar   
    21   11   25 ar   
    22   12   27 1    
    23   12   30 1    
    24   13   30 1    
    25   13   31 1    
    26   16   19 ar   
    27   16   32 1    
    28   19   22 ar   
    29   22   23 1    
    30   22   24 ar   
    31   24   25 ar   
    32   24   26 1    
    33   28   31 ar   
    34   29   31 ar   
@<TRIPOS>SUBSTRUCTURE
     1 TD6601      1 GROUP   
@<TRIPOS>SET

