#    Name: 5z2p_7_TD6
#    Modification time : Fri May 22 19:30:50 2020

@<TRIPOS>MOLECULE
5z2p_7_TD6
   33    34     1     0     0
SMALL
NO_CHARGES


@<TRIPOS>ATOM
      1 S1         32.2370  -27.7470 -112.3270 S.3       1 TD6601      0.0000 
      2 C2         32.7000  -27.9130 -110.9000 C.2       1 TD6601      0.0000 
      3 N3         31.8760  -27.1740 -110.0550 N.pl3     1 TD6601      0.0000 
      4 C4         30.8460  -26.4830 -110.9590 C.2       1 TD6601      0.0000 
      5 C5         31.0520  -26.8430 -112.3170 C.2       1 TD6601      0.0000 
      6 C6         30.2250  -26.3450 -113.5050 C.3       1 TD6601      0.0000 
      7 C7         30.8990  -25.2210 -114.2510 C.3       1 TD6601      0.0000 
      8 O7         30.0360  -24.6910 -115.2150 O.3       1 TD6601      0.0000 
      9 PA         30.5400  -24.1880 -116.6510 P.3       1 TD6601      0.0000 
     10 PB         30.5680  -26.8730 -117.8510 P.3       1 TD6601      0.0000 
     11 N1'        32.3570  -23.5640 -107.2130 N.ar      1 TD6601      0.0000 
     12 C11        33.8600  -28.7570 -110.3780 C.3       1 TD6601      0.0000 
     13 C13        35.7490  -28.3180 -112.3470 C.3       1 TD6601      0.0000 
     14 O1A        31.5250  -23.2010 -116.5250 O.co2     1 TD6601      0.0000 
     15 O1B        30.5700  -27.8260 -116.7880 O.co2     1 TD6601      0.0000 
     16 C2'        33.5870  -23.2220 -107.6560 C.ar      1 TD6601      0.0000 
     17 O2A        29.4900  -23.7320 -117.3980 O.co2     1 TD6601      0.0000 
     18 O2B        31.1910  -27.3840 -118.9990 O.co2     1 TD6601      0.0000 
     19 N3'        34.2990  -24.0850 -108.4070 N.ar      1 TD6601      0.0000 
     20 O3A        31.1730  -25.4140 -117.4450 O.3       1 TD6601      0.0000 
     21 O3B        29.2580  -26.8410 -118.3720 O.co2     1 TD6601      0.0000 
     22 C4'        33.7890  -25.2490 -108.6860 C.ar      1 TD6601      0.0000 
     23 N4'        34.5590  -26.1250 -109.4420 N.pl3     1 TD6601      0.0000 
     24 C5'        32.5510  -25.6230 -108.2310 C.ar      1 TD6601      0.0000 
     25 C6'        31.8470  -24.7340 -107.4990 C.ar      1 TD6601      0.0000 
     26 C7'        31.9740  -27.0100 -108.5990 C.3       1 TD6601      0.0000 
     27 OL1        33.4750  -30.0890 -110.2940 O.3       1 TD6601      0.0000 
     28 OL2        37.2170  -30.1940 -111.9470 O.co2     1 TD6601      0.0000 
     29 OL3        37.6850  -29.0350 -113.6230 O.co2     1 TD6601      0.0000 
     30 CLB        35.3020  -28.5020 -110.9000 C.3       1 TD6601      0.0000 
     31 CLC        36.9470  -29.2270 -112.6660 C.2       1 TD6601      0.0000 
     32 CM2        34.1820  -21.8680 -107.3800 C.3       1 TD6601      0.0000 
     33 CM4        29.7940  -25.5610 -110.4070 C.3       1 TD6601      0.0000 
@<TRIPOS>BOND
     1    1    2 1    
     2    1    5 1    
     3    2    3 2    
     4    2   12 1    
     5    3    4 1    
     6    3   26 1    
     7    4    5 2    
     8    4   33 1    
     9    5    6 1    
    10    6    7 1    
    11    7    8 1    
    12    8    9 1    
    13    9   14 ar   
    14    9   17 ar   
    15    9   20 1    
    16   10   15 ar   
    17   10   18 ar   
    18   10   20 1    
    19   10   21 ar   
    20   11   16 ar   
    21   11   25 ar   
    22   12   27 1    
    23   12   30 1    
    24   13   30 1    
    25   13   31 1    
    26   16   19 ar   
    27   16   32 1    
    28   19   22 ar   
    29   22   23 1    
    30   22   24 ar   
    31   24   25 ar   
    32   24   26 1    
    33   28   31 ar   
    34   29   31 ar   
@<TRIPOS>SUBSTRUCTURE
     1 TD6601      1 GROUP   
@<TRIPOS>SET

