#    Name: 5z2p_3_TD6
#    Modification time : Fri May 22 19:29:42 2020

@<TRIPOS>MOLECULE
5z2p_3_TD6
   33    34     1     0     0
SMALL
NO_CHARGES


@<TRIPOS>ATOM
      1 S1         46.0270  -42.6520  -63.0630 S.3       1 TD6601      0.0000 
      2 C2         45.7980  -42.0320  -64.4180 C.2       1 TD6601      0.0000 
      3 N3         47.0120  -41.8340  -65.0770 N.pl3     1 TD6601      0.0000 
      4 C4         48.1250  -42.3350  -64.1630 C.2       1 TD6601      0.0000 
      5 C5         47.4950  -42.8750  -62.9800 C.2       1 TD6601      0.0000 
      6 C6         48.3280  -43.5060  -61.8460 C.3       1 TD6601      0.0000 
      7 C7         48.3850  -42.6660  -60.6100 C.3       1 TD6601      0.0000 
      8 O7         49.2570  -43.2260  -59.7100 O.3       1 TD6601      0.0000 
      9 PA         49.1530  -43.0610  -58.1200 P.3       1 TD6601      0.0000 
     10 PB         47.1060  -45.0070  -57.6950 P.3       1 TD6601      0.0000 
     11 N1'        49.4480  -38.1990  -66.5690 N.ar      1 TD6601      0.0000 
     12 C11        44.4260  -41.6440  -65.0090 C.3       1 TD6601      0.0000 
     13 C13        43.0370  -40.2260  -63.2190 C.3       1 TD6601      0.0000 
     14 O1A        49.2160  -41.7650  -57.6630 O.co2     1 TD6601      0.0000 
     15 O1B        46.9040  -45.4010  -59.0050 O.co2     1 TD6601      0.0000 
     16 C2'        48.7390  -37.2990  -65.8980 C.ar      1 TD6601      0.0000 
     17 O2A        50.2520  -43.7390  -57.5460 O.co2     1 TD6601      0.0000 
     18 O2B        45.9910  -45.0290  -56.9830 O.co2     1 TD6601      0.0000 
     19 N3'        47.5410  -37.6300  -65.3660 N.ar      1 TD6601      0.0000 
     20 O3A        47.7390  -43.6020  -57.6220 O.3       1 TD6601      0.0000 
     21 O3B        47.9180  -46.0270  -57.2200 O.co2     1 TD6601      0.0000 
     22 C4'        47.0750  -38.8480  -65.5030 C.ar      1 TD6601      0.0000 
     23 N4'        45.8330  -39.1880  -64.9300 N.pl3     1 TD6601      0.0000 
     24 C5'        47.7980  -39.8020  -66.1780 C.ar      1 TD6601      0.0000 
     25 C6'        48.9860  -39.4410  -66.7090 C.ar      1 TD6601      0.0000 
     26 C7'        47.2540  -41.2300  -66.3390 C.3       1 TD6601      0.0000 
     27 OL1        44.0550  -42.6390  -65.9010 O.3       1 TD6601      0.0000 
     28 OL2        40.6960  -40.8110  -63.3610 O.co2     1 TD6601      0.0000 
     29 OL3        41.1890  -39.6460  -61.6250 O.co2     1 TD6601      0.0000 
     30 CLB        43.3120  -41.5260  -63.9760 C.3       1 TD6601      0.0000 
     31 CLC        41.5760  -40.2300  -62.6890 C.2       1 TD6601      0.0000 
     32 CM2        49.2590  -35.8920  -65.7040 C.3       1 TD6601      0.0000 
     33 CM4        49.5890  -42.3180  -64.4840 C.3       1 TD6601      0.0000 
@<TRIPOS>BOND
     1    1    2 1    
     2    1    5 1    
     3    2    3 2    
     4    2   12 1    
     5    3    4 1    
     6    3   26 1    
     7    4    5 2    
     8    4   33 1    
     9    5    6 1    
    10    6    7 1    
    11    7    8 1    
    12    8    9 1    
    13    9   14 ar   
    14    9   17 ar   
    15    9   20 1    
    16   10   15 ar   
    17   10   18 ar   
    18   10   20 1    
    19   10   21 ar   
    20   11   16 ar   
    21   11   25 ar   
    22   12   27 1    
    23   12   30 1    
    24   13   30 1    
    25   13   31 1    
    26   16   19 ar   
    27   16   32 1    
    28   19   22 ar   
    29   22   23 1    
    30   22   24 ar   
    31   24   25 ar   
    32   24   26 1    
    33   28   31 ar   
    34   29   31 ar   
@<TRIPOS>SUBSTRUCTURE
     1 TD6601      1 GROUP   
@<TRIPOS>SET

