#    Name: 5z2p_4_TD6
#    Modification time : Fri May 22 19:29:59 2020

@<TRIPOS>MOLECULE
5z2p_4_TD6
   33    34     1     0     0
SMALL
NO_CHARGES


@<TRIPOS>ATOM
      1 S1         67.4800  -17.9470  -64.5180 S.3       1 TD6601      0.0000 
      2 C2         66.3930  -17.5350  -65.4910 C.2       1 TD6601      0.0000 
      3 N3         65.1400  -17.7250  -64.9060 N.pl3     1 TD6601      0.0000 
      4 C4         65.3930  -18.2400  -63.5020 C.2       1 TD6601      0.0000 
      5 C5         66.8090  -18.3400  -63.3010 C.2       1 TD6601      0.0000 
      6 C6         67.4150  -18.7800  -61.9730 C.3       1 TD6601      0.0000 
      7 C7         67.6660  -20.2140  -61.7490 C.3       1 TD6601      0.0000 
      8 O7         68.2400  -20.3130  -60.5040 O.3       1 TD6601      0.0000 
      9 PA         69.3770  -21.3880  -60.1870 P.3       1 TD6601      0.0000 
     10 PB         71.4980  -19.4490  -60.6040 P.3       1 TD6601      0.0000 
     11 N1'        61.4310  -20.2780  -65.7390 N.ar      1 TD6601      0.0000 
     12 C11        66.5080  -17.0140  -66.9310 C.3       1 TD6601      0.0000 
     13 C13        68.2110  -18.5340  -68.0270 C.3       1 TD6601      0.0000 
     14 O1A        69.2410  -22.5650  -60.8100 O.co2     1 TD6601      0.0000 
     15 O1B        70.7890  -18.3770  -61.1980 O.co2     1 TD6601      0.0000 
     16 C2'        62.0660  -21.1700  -66.5270 C.ar      1 TD6601      0.0000 
     17 O2A        69.3510  -21.7500  -58.8600 O.co2     1 TD6601      0.0000 
     18 O2B        72.7010  -19.5820  -61.1890 O.co2     1 TD6601      0.0000 
     19 N3'        63.2880  -20.8970  -67.0140 N.ar      1 TD6601      0.0000 
     20 O3A        70.7800  -20.8670  -60.7470 O.3       1 TD6601      0.0000 
     21 O3B        71.7790  -19.0890  -59.2950 O.co2     1 TD6601      0.0000 
     22 C4'        63.8600  -19.7650  -66.7160 C.ar      1 TD6601      0.0000 
     23 N4'        65.1440  -19.5260  -67.2740 N.pl3     1 TD6601      0.0000 
     24 C5'        63.2140  -18.8350  -65.9200 C.ar      1 TD6601      0.0000 
     25 C6'        61.9990  -19.1420  -65.4370 C.ar      1 TD6601      0.0000 
     26 C7'        63.8570  -17.5140  -65.5250 C.3       1 TD6601      0.0000 
     27 OL1        66.2200  -15.6690  -66.8930 O.3       1 TD6601      0.0000 
     28 OL2        70.3620  -19.0430  -69.0660 O.co2     1 TD6601      0.0000 
     29 OL3        69.1740  -17.5070  -69.9750 O.co2     1 TD6601      0.0000 
     30 CLB        67.9000  -17.1490  -67.5050 C.3       1 TD6601      0.0000 
     31 CLC        69.3230  -18.3560  -69.0670 C.2       1 TD6601      0.0000 
     32 CM2        61.4060  -22.4950  -66.8710 C.3       1 TD6601      0.0000 
     33 CM4        64.3240  -18.5770  -62.5190 C.3       1 TD6601      0.0000 
@<TRIPOS>BOND
     1    1    2 1    
     2    1    5 1    
     3    2    3 2    
     4    2   12 1    
     5    3    4 1    
     6    3   26 1    
     7    4    5 2    
     8    4   33 1    
     9    5    6 1    
    10    6    7 1    
    11    7    8 1    
    12    8    9 1    
    13    9   14 ar   
    14    9   17 ar   
    15    9   20 1    
    16   10   15 ar   
    17   10   18 ar   
    18   10   20 1    
    19   10   21 ar   
    20   11   16 ar   
    21   11   25 ar   
    22   12   27 1    
    23   12   30 1    
    24   13   30 1    
    25   13   31 1    
    26   16   19 ar   
    27   16   32 1    
    28   19   22 ar   
    29   22   23 1    
    30   22   24 ar   
    31   24   25 ar   
    32   24   26 1    
    33   28   31 ar   
    34   29   31 ar   
@<TRIPOS>SUBSTRUCTURE
     1 TD6601      1 GROUP   
@<TRIPOS>SET

