#    Name: 5z2p_5_TD6_CAVITY_N1_4
#    Modification time : Fri May 22 19:30:19 2020

@<TRIPOS>MOLECULE
5z2p_5_TD6_CAVITY_N1_4
   89     0     7     0     0
SMALL
NO_CHARGES


@<TRIPOS>ATOM
      1 OG         32.2600    3.7400 -104.1100 O.3       1 SER1        0.0000 
      2 OG         34.2400    2.8000 -102.7100 O.3       1 SER1        0.0000 
      3 OG         34.5300    3.1600 -101.2800 O.3       1 SER1        0.0000 
      4 OG         34.8200    3.5100  -99.8500 O.3       1 SER1        0.0000 
      5 OG         33.3700    3.3500  -99.5200 O.3       1 SER1        0.0000 
      6 OG         31.5700    2.6500  -94.2500 O.3       1 SER1        0.0000 
      7 OG         30.1200    2.4900  -93.9100 O.3       1 SER1        0.0000 
      8 OG         31.8600    3.0100  -92.8200 O.3       1 SER1        0.0000 
      9 OG         30.4100    2.8500  -92.4800 O.3       1 SER1        0.0000 
     10 N          37.8400   -1.2200 -102.4400 N.am      2 ALA2        0.0000 
     11 N          37.6100    0.2200 -102.7600 N.am      2 ALA2        0.0000 
     12 N          38.1300   -0.8700 -101.0200 N.am      2 ALA2        0.0000 
     13 N          37.9000    0.5800 -101.3300 N.am      2 ALA2        0.0000 
     14 O          36.9700   -0.6700  -99.2500 O.2       2 ALA2        0.0000 
     15 N          35.5200   -0.8300  -98.9100 N.am      2 ALA2        0.0000 
     16 N          33.8300    0.4600  -98.8900 N.am      2 ALA2        0.0000 
     17 O          32.1500    1.7500  -98.8700 O.2       2 ALA2        0.0000 
     18 O          35.8100   -0.4800  -97.4900 O.2       2 ALA2        0.0000 
     19 N          35.5800    0.9700  -97.8000 N.am      2 ALA2        0.0000 
     20 N          35.3500    2.4200  -98.1100 N.am      2 ALA2        0.0000 
     21 N          34.1200    0.8100  -97.4600 N.am      2 ALA2        0.0000 
     22 N          33.8900    2.2600  -97.7800 N.am      2 ALA2        0.0000 
     23 O          32.4400    2.1000  -97.4400 O.2       2 ALA2        0.0000 
     24 O          32.2100    3.5500  -97.7500 O.2       2 ALA2        0.0000 
     25 N          35.6400    2.7700  -96.6800 N.am      2 ALA2        0.0000 
     26 N          34.4200    1.1700  -96.0400 N.am      2 ALA2        0.0000 
     27 N          34.1800    2.6200  -96.3500 N.am      2 ALA2        0.0000 
     28 N          37.3800    3.2900  -95.5900 N.am      2 ALA2        0.0000 
     29 N          35.9300    3.1300  -95.2600 N.am      2 ALA2        0.0000 
     30 N          34.7100    1.5200  -94.6100 N.am      2 ALA2        0.0000 
     31 O          34.7700    3.3200  -93.4900 O.2       2 ALA2        0.0000 
     32 O          33.3800    4.9700  -92.0400 O.2       2 ALA2        0.0000 
     33 OD1        31.9700    3.3800 -105.5400 O.co2     3 ASP3        0.0000 
     34 OD1        33.4300    5.1600  -98.4000 O.co2     3 ASP3        0.0000 
     35 OD1        35.4100    4.2200  -97.0000 O.co2     3 ASP3        0.0000 
     36 OD1        35.1800    5.6700  -97.3100 O.co2     3 ASP3        0.0000 
     37 OD1        33.9500    4.0600  -96.6600 O.co2     3 ASP3        0.0000 
     38 OD1        35.7000    4.5800  -95.5700 O.co2     3 ASP3        0.0000 
     39 OD1        35.4700    6.0300  -95.8800 O.co2     3 ASP3        0.0000 
     40 OD1        34.4800    2.9700  -94.9200 O.co2     3 ASP3        0.0000 
     41 OD1        33.0200    2.8100  -94.5800 O.co2     3 ASP3        0.0000 
     42 OD1        29.8900    3.9400  -94.2200 O.co2     3 ASP3        0.0000 
     43 OD1        35.9900    4.9300  -94.1400 O.co2     3 ASP3        0.0000 
     44 OD1        35.7600    6.3800  -94.4500 O.co2     3 ASP3        0.0000 
     45 OD1        33.3200    3.1700  -93.1600 O.co2     3 ASP3        0.0000 
     46 OD1        31.6300    4.4600  -93.1300 O.co2     3 ASP3        0.0000 
     47 OD1        30.1800    4.3000  -92.7900 O.co2     3 ASP3        0.0000 
     48 NZ         36.6200   -2.8300 -101.7900 N.4       4 LYS4        0.0000 
     49 NZ         36.9100   -2.4800 -100.3700 N.4       4 LYS4        0.0000 
     50 CZ         37.3800    1.6700 -103.0700 C.ar      5 PHE5        0.0000 
     51 CZ         35.6900    2.9600 -103.0500 C.ar      5 PHE5        0.0000 
     52 CZ         37.6700    2.0300 -101.6400 C.ar      5 PHE5        0.0000 
     53 CZ         36.2100    1.8700 -101.3000 C.ar      5 PHE5        0.0000 
     54 CZ         35.9800    3.3200 -101.6200 C.ar      5 PHE5        0.0000 
     55 CZ         36.5100    2.2200  -99.8800 C.ar      5 PHE5        0.0000 
     56 CZ         36.2800    3.6700 -100.1900 C.ar      5 PHE5        0.0000 
     57 CZ         36.5700    4.0300  -98.7600 C.ar      5 PHE5        0.0000 
     58 CA         33.9500    2.4500 -104.1400 C.3       6 GLY6        0.0000 
     59 CA         33.7200    3.9000 -104.4500 C.3       6 GLY6        0.0000 
     60 CA         32.4900    2.2900 -103.8000 C.3       6 GLY6        0.0000 
     61 CA         36.3800   -1.3800 -102.1100 C.3       6 GLY6        0.0000 
     62 CA         36.1500    0.0700 -102.4200 C.3       6 GLY6        0.0000 
     63 CA         35.9200    1.5100 -102.7300 C.3       6 GLY6        0.0000 
     64 CA         34.4700    1.3600 -102.4000 C.3       6 GLY6        0.0000 
     65 CA         32.7800    2.6400 -102.3700 C.3       6 GLY6        0.0000 
     66 CA         35.2200   -1.1900 -100.3400 C.3       6 GLY6        0.0000 
     67 CA         34.9900    0.2600 -100.6600 C.3       6 GLY6        0.0000 
     68 CA         34.7600    1.7100 -100.9700 C.3       6 GLY6        0.0000 
     69 CA         33.3100    1.5500 -100.6300 C.3       6 GLY6        0.0000 
     70 CA         33.6000    1.9100  -99.2000 C.3       6 GLY6        0.0000 
     71 CA         36.3400    5.4800  -99.0700 C.3       6 GLY6        0.0000 
     72 CA         35.1100    3.8700  -98.4300 C.3       6 GLY6        0.0000 
     73 CA         34.8800    5.3200  -98.7400 C.3       6 GLY6        0.0000 
     74 CA         33.6600    3.7100  -98.0900 C.3       6 GLY6        0.0000 
     75 CA         38.3100    4.5400  -97.6700 C.3       6 GLY6        0.0000 
     76 CA         38.0800    5.9900  -97.9800 C.3       6 GLY6        0.0000 
     77 CA         36.6300    5.8300  -97.6500 C.3       6 GLY6        0.0000 
     78 CA         32.7300    2.4600  -96.0100 C.3       6 GLY6        0.0000 
     79 CA         31.2800    2.3000  -95.6700 C.3       6 GLY6        0.0000 
     80 CA         38.6000    4.9000  -96.2400 C.3       6 GLY6        0.0000 
     81 CA         36.9200    6.1900  -96.2200 C.3       6 GLY6        0.0000 
     82 CA         28.6600    2.3300  -93.5700 C.3       6 GLY6        0.0000 
     83 DU         36.6800   -1.0300 -100.6800 H         7 CUB7        0.0000 
     84 DU         36.4500    0.4200 -100.9900 H         7 CUB7        0.0000 
     85 DU         36.7400    0.7700  -99.5600 H         7 CUB7        0.0000 
     86 DU         35.2800    0.6200  -99.2300 H         7 CUB7        0.0000 
     87 DU         35.0500    2.0600  -99.5400 H         7 CUB7        0.0000 
     88 DU         36.8600    4.3800  -97.3300 H         7 CUB7        0.0000 
     89 DU         37.1500    4.7400  -95.9100 H         7 CUB7        0.0000 
@<TRIPOS>BOND
@<TRIPOS>SUBSTRUCTURE
     1 SER1        1 GROUP   
     2 ALA2       10 GROUP   
     3 ASP3       33 GROUP   
     4 LYS4       48 GROUP   
     5 PHE5       50 GROUP   
     6 GLY6       58 GROUP   
     7 CUB7       83 GROUP   
@<TRIPOS>SET

