#    Name: 6tx3_1_UHB
#    Modification time : Fri May 22 19:25:44 2020

@<TRIPOS>MOLECULE
6tx3_1_UHB
   39    44     1     0     0
SMALL
NO_CHARGES


@<TRIPOS>ATOM
      1 C01       -47.7250   32.9370  -33.5520 C.ar      1 UHB1001     0.0000 
      2 C02       -46.7590   31.9550  -33.7560 C.ar      1 UHB1001     0.0000 
      3 C03       -45.4140   32.2790  -33.6390 C.ar      1 UHB1001     0.0000 
      4 C04       -45.0170   33.5730  -33.3410 C.ar      1 UHB1001     0.0000 
      5 C05       -45.9990   34.5630  -33.1230 C.ar      1 UHB1001     0.0000 
      6 C06       -47.3370   34.2340  -33.2350 C.ar      1 UHB1001     0.0000 
      7 C07       -48.1640   35.5000  -32.9670 C.2       1 UHB1001     0.0000 
      8 C08       -45.9160   36.0640  -32.7730 C.3       1 UHB1001     0.0000 
      9 N09       -47.2470   36.5840  -32.6890 N.am      1 UHB1001     0.0000 
     10 O10       -49.3550   35.5800  -32.9830 O.2       1 UHB1001     0.0000 
     11 N11       -43.5910   33.8580  -33.1790 N.am      1 UHB1001     0.0000 
     12 C12       -42.7450   34.9330  -33.7570 C.2       1 UHB1001     0.0000 
     13 O13       -43.2570   35.7580  -34.4340 O.2       1 UHB1001     0.0000 
     14 C14       -41.2390   34.9580  -33.3650 C.3       1 UHB1001     0.0000 
     15 N15       -40.5960   36.2740  -33.4100 N.4       1 UHB1001     0.0000 
     16 C16       -41.3540   37.2900  -32.7270 C.3       1 UHB1001     0.0000 
     17 C17       -40.6190   38.6330  -32.7860 C.3       1 UHB1001     0.0000 
     18 N18       -40.4130   39.0030  -34.2030 N.am      1 UHB1001     0.0000 
     19 C19       -39.5970   37.9830  -34.8660 C.3       1 UHB1001     0.0000 
     20 C20       -40.3320   36.6410  -34.7850 C.3       1 UHB1001     0.0000 
     21 C21       -41.0420   40.1930  -34.8350 C.2       1 UHB1001     0.0000 
     22 C22       -41.9020   41.0360  -33.8640 C.3       1 UHB1001     0.0000 
     23 C23       -43.3120   40.3480  -33.8870 C.3       1 UHB1001     0.0000 
     24 C24       -44.1890   41.2740  -34.6890 C.3       1 UHB1001     0.0000 
     25 C25       -43.5490   42.4500  -34.7550 C.3       1 UHB1001     0.0000 
     26 O26       -42.0320   42.2430  -34.2850 O.3       1 UHB1001     0.0000 
     27 O27       -40.9030   40.4760  -35.9910 O.2       1 UHB1001     0.0000 
     28 O28       -43.7810   40.1460  -32.5930 O.3       1 UHB1001     0.0000 
     29 O29       -45.5050   41.4530  -34.0080 O.3       1 UHB1001     0.0000 
     30 N30       -43.5310   42.9540  -36.1160 N.pl3     1 UHB1001     0.0000 
     31 C31       -43.7790   44.6590  -37.4610 C.ar      1 UHB1001     0.0000 
     32 C32       -43.8200   44.2790  -36.1680 C.ar      1 UHB1001     0.0000 
     33 C33       -43.2920   42.5170  -37.3650 C.2       1 UHB1001     0.0000 
     34 N34       -43.4500   43.5680  -38.1950 N.2       1 UHB1001     0.0000 
     35 N35       -44.3500   46.8540  -36.8400 N.ar      1 UHB1001     0.0000 
     36 C36       -44.3940   46.4650  -35.5220 C.ar      1 UHB1001     0.0000 
     37 N37       -44.1300   45.1710  -35.1940 N.ar      1 UHB1001     0.0000 
     38 C38       -44.0540   45.9900  -37.7980 C.ar      1 UHB1001     0.0000 
     39 N39       -44.1770   46.9850  -38.8520 N.pl3     1 UHB1001     0.0000 
@<TRIPOS>BOND
     1    1    2 ar   
     2    1    6 ar   
     3    2    3 ar   
     4    3    4 ar   
     5    4    5 ar   
     6    4   11 1    
     7    5    6 ar   
     8    5    8 1    
     9    6    7 1    
    10    7    9 am   
    11    7   10 2    
    12    8    9 1    
    13   11   12 am   
    14   12   13 2    
    15   12   14 1    
    16   14   15 1    
    17   15   16 1    
    18   15   20 1    
    19   16   17 1    
    20   17   18 1    
    21   18   19 1    
    22   18   21 am   
    23   19   20 1    
    24   21   22 1    
    25   21   27 2    
    26   22   23 1    
    27   22   26 1    
    28   23   24 1    
    29   23   28 1    
    30   24   25 1    
    31   24   29 1    
    32   25   26 1    
    33   25   30 1    
    34   30   32 1    
    35   30   33 1    
    36   31   32 ar   
    37   31   34 1    
    38   31   38 ar   
    39   32   37 ar   
    40   33   34 2    
    41   35   36 ar   
    42   35   38 ar   
    43   36   37 ar   
    44   38   39 1    
@<TRIPOS>SUBSTRUCTURE
     1 UHB1001     1 GROUP   
@<TRIPOS>SET

