#    Name: 6jwx_1_AMP
#    Modification time : Fri May 22 19:34:57 2020

@<TRIPOS>MOLECULE
6jwx_1_AMP
   23    25     1     0     1
SMALL
NO_CHARGES


@<TRIPOS>ATOM
      1 P          45.5790    5.7560    8.2100 P.3       1 AMP802      0.0000 
      2 O1P        46.0450    4.4830    7.5170 O.co2     1 AMP802      0.0000 
      3 O2P        44.0660    5.9880    8.0960 O.co2     1 AMP802      0.0000 
      4 O3P        46.1570    5.9690    9.6070 O.co2     1 AMP802      0.0000 
      5 O5'        46.2820    6.9390    7.3310 O.3       1 AMP802      0.0000 
      6 C5'        47.0040    8.0000    7.9870 C.3       1 AMP802      0.0000 
      7 C4'        47.4720    9.0820    7.0040 C.3       1 AMP802      0.0000 
      8 O4'        46.4380    9.5970    6.1380 O.3       1 AMP802      0.0000 
      9 C3'        48.0090   10.2920    7.7590 C.3       1 AMP802      0.0000 
     10 O3'        49.3770   10.0950    8.1570 O.3       1 AMP802      0.0000 
     11 C2'        47.8200   11.4460    6.7910 C.3       1 AMP802      0.0000 
     12 O2'        49.0000   11.6770    6.0110 O.3       1 AMP802      0.0000 
     13 C1'        46.6640   11.0010    5.8890 C.3       1 AMP802      0.0000 
     14 N9         45.4730   11.8810    6.1300 N.pl3     1 AMP802      0.0000 
     15 C8         44.8960   12.6130    5.1530 C.2       1 AMP802      0.0000 
     16 N7         43.8500   13.3550    5.6060 N.2       1 AMP802      0.0000 
     17 C5         43.7380   13.1080    6.9290 C.ar      1 AMP802      0.0000 
     18 C6         42.8210   13.5600    8.0220 C.ar      1 AMP802      0.0000 
     19 N6         41.8240   14.4350    7.7440 N.pl3     1 AMP802      0.0000 
     20 N1         43.0250   13.0720    9.2790 N.ar      1 AMP802      0.0000 
     21 C2         44.0230   12.1890    9.5460 C.ar      1 AMP802      0.0000 
     22 N3         44.8860   11.7270    8.5970 N.ar      1 AMP802      0.0000 
     23 C4         44.8080   12.1360    7.2850 C.ar      1 AMP802      0.0000 
@<TRIPOS>BOND
     1    1    2 ar   
     2    1    3 ar   
     3    1    4 ar   
     4    1    5 1    
     5    5    6 1    
     6    6    7 1    
     7    7    8 1    
     8    7    9 1    
     9    8   13 1    
    10    9   10 1    
    11    9   11 1    
    12   11   12 1    
    13   11   13 1    
    14   13   14 1    
    15   14   15 1    
    16   14   23 1    
    17   15   16 2    
    18   16   17 1    
    19   17   18 ar   
    20   17   23 ar   
    21   18   19 1    
    22   18   20 ar   
    23   20   21 ar   
    24   21   22 ar   
    25   22   23 ar   
@<TRIPOS>SUBSTRUCTURE
     1 AMP802      1 GROUP   
@<TRIPOS>SET
ATOM$ORANGE STATIC     ATOMS   COLORGROUP SYSTEM 
20 6 6 7 7 9 9 11 11 13 13 15 15 17 17 18 18 21 \
21 23 23 

