#    Name: 6jwx_1_AMP_CAVITY_N1_ALL
#    Modification time : Fri May 22 19:34:58 2020

@<TRIPOS>MOLECULE
6jwx_1_AMP_CAVITY_N1_ALL
   80     0     7     0     0
SMALL
NO_CHARGES


@<TRIPOS>ATOM
      1 OG         42.4800    8.8800    4.8700 O.3       1 SER1        0.0000 
      2 OG         43.3300    7.1100    5.6500 O.3       1 SER1        0.0000 
      3 OG         43.6800    9.6600    5.3300 O.3       1 SER1        0.0000 
      4 OG         42.7700   10.7300    5.8700 O.3       1 SER1        0.0000 
      5 OG         43.6200    8.9500    6.6500 O.3       1 SER1        0.0000 
      6 OG         43.9700   11.5100    6.3300 O.3       1 SER1        0.0000 
      7 N          43.1500    6.6700    2.0100 N.am      2 ALA2        0.0000 
      8 N          44.3400    7.4500    2.4800 N.am      2 ALA2        0.0000 
      9 O          43.1200   13.2900    5.5400 O.2       2 ALA2        0.0000 
     10 N          42.1600   13.6500    7.4000 N.am      2 ALA2        0.0000 
     11 N          46.1200   11.9200    4.9400 N.am      2 ALA2        0.0000 
     12 N          45.2200   12.9900    5.4700 N.am      2 ALA2        0.0000 
     13 O          44.3100   14.0600    6.0100 O.2       2 ALA2        0.0000 
     14 N          46.0700   11.2200    6.2600 N.am      2 ALA2        0.0000 
     15 N          45.1600   12.2900    6.8000 N.am      2 ALA2        0.0000 
     16 O          43.3000   13.7200    9.1900 O.2       2 ALA2        0.0000 
     17 O          43.2500   13.0200   10.5100 O.2       2 ALA2        0.0000 
     18 O          48.2200   11.6300    4.8700 O.2       2 ALA2        0.0000 
     19 N          49.9700    8.7800    5.1200 N.am      2 ALA2        0.0000 
     20 N          49.0700    9.8500    5.6600 N.am      2 ALA2        0.0000 
     21 N          48.1700   10.9200    6.1900 N.am      2 ALA2        0.0000 
     22 N          47.2600   11.9900    6.7300 N.am      2 ALA2        0.0000 
     23 N          46.3600   13.0600    7.2600 N.am      2 ALA2        0.0000 
     24 N          49.0200    9.1400    6.9800 N.am      2 ALA2        0.0000 
     25 N          48.1100   10.2200    7.5100 N.am      2 ALA2        0.0000 
     26 O          49.3600   11.7000    6.6600 O.2       2 ALA2        0.0000 
     27 N          48.4600   12.7700    7.1900 N.am      2 ALA2        0.0000 
     28 N          49.3100   10.9900    7.9800 N.am      2 ALA2        0.0000 
     29 N          50.1600    9.2200    8.7700 N.am      2 ALA2        0.0000 
     30 OD1        44.5200    7.8800    6.1200 O.co2     3 ASP3        0.0000 
     31 OD1        44.4700    7.1800    7.4400 O.co2     3 ASP3        0.0000 
     32 OD1        45.6700    7.9500    7.9100 O.co2     3 ASP3        0.0000 
     33 OD1        46.8600    8.7300    8.3700 O.co2     3 ASP3        0.0000 
     34 OD1        48.9600    8.4400    8.3000 O.co2     3 ASP3        0.0000 
     35 OD1        48.0600    9.5100    8.8400 O.co2     3 ASP3        0.0000 
     36 NZ         44.8200    9.7300    7.1200 N.4       4 LYS4        0.0000 
     37 NZ         43.9100   10.8000    7.6500 N.4       4 LYS4        0.0000 
     38 NZ         44.7600    9.0300    8.4400 N.4       4 LYS4        0.0000 
     39 NZ         45.1100   11.5800    8.1200 N.4       4 LYS4        0.0000 
     40 NZ         45.9600    9.8000    8.9100 N.4       4 LYS4        0.0000 
     41 NZ         45.0500   10.8700    9.4400 N.4       4 LYS4        0.0000 
     42 NZ         44.1500   11.9400    9.9700 N.4       4 LYS4        0.0000 
     43 CZ         42.2400    7.7400    2.5500 C.ar      5 PHE5        0.0000 
     44 CZ         43.0900    5.9600    3.3300 C.ar      5 PHE5        0.0000 
     45 CZ         43.4400    8.5200    3.0100 C.ar      5 PHE5        0.0000 
     46 CZ         43.3800    7.8100    4.3300 C.ar      5 PHE5        0.0000 
     47 CZ         45.5400    8.2300    2.9400 C.ar      5 PHE5        0.0000 
     48 CZ         44.6300    9.3000    3.4700 C.ar      5 PHE5        0.0000 
     49 CZ         43.7300   10.3700    4.0100 C.ar      5 PHE5        0.0000 
     50 CZ         42.8300   11.4400    4.5400 C.ar      5 PHE5        0.0000 
     51 CZ         44.5800    8.5900    4.8000 C.ar      5 PHE5        0.0000 
     52 CZ         46.7300    9.0000    3.4000 C.ar      5 PHE5        0.0000 
     53 CZ         44.9300   11.1400    4.4700 C.ar      5 PHE5        0.0000 
     54 CZ         44.0200   12.2200    5.0100 C.ar      5 PHE5        0.0000 
     55 CZ         46.6800    8.3000    4.7300 C.ar      5 PHE5        0.0000 
     56 CZ         45.7800    9.3700    5.2600 C.ar      5 PHE5        0.0000 
     57 CZ         44.8700   10.4400    5.8000 C.ar      5 PHE5        0.0000 
     58 CZ         43.0600   12.5800    6.8700 C.ar      5 PHE5        0.0000 
     59 CZ         43.0100   11.8700    8.1900 C.ar      5 PHE5        0.0000 
     60 CZ         42.1000   12.9400    8.7200 C.ar      5 PHE5        0.0000 
     61 CZ         47.9300    9.7800    3.8700 C.ar      5 PHE5        0.0000 
     62 CZ         47.0300   10.8500    4.4000 C.ar      5 PHE5        0.0000 
     63 CZ         46.9700   10.1400    5.7300 C.ar      5 PHE5        0.0000 
     64 CA         42.5300    9.5900    3.5400 C.3       6 GLY6        0.0000 
     65 CA         44.2600   13.3600    7.3300 C.3       6 GLY6        0.0000 
     66 CA         43.3500   14.4300    7.8700 C.3       6 GLY6        0.0000 
     67 CA         44.2000   12.6500    8.6500 C.3       6 GLY6        0.0000 
     68 CA         49.1300   10.5600    4.3300 C.3       6 GLY6        0.0000 
     69 CA         47.2100   11.2900    8.0500 C.3       6 GLY6        0.0000 
     70 CA         46.3000   12.3600    8.5800 C.3       6 GLY6        0.0000 
     71 CA         45.4000   13.4300    9.1200 C.3       6 GLY6        0.0000 
     72 CA         47.1500   10.5800    9.3700 C.3       6 GLY6        0.0000 
     73 CA         48.4000   12.0600    8.5100 C.3       6 GLY6        0.0000 
     74 DU         45.4800    7.5200    4.2600 H         7 CUB7        0.0000 
     75 DU         46.6200    7.5900    6.0500 H         7 CUB7        0.0000 
     76 DU         45.7200    8.6600    6.5800 H         7 CUB7        0.0000 
     77 DU         47.8700    9.0700    5.1900 H         7 CUB7        0.0000 
     78 DU         47.8200    8.3700    6.5100 H         7 CUB7        0.0000 
     79 DU         46.9200    9.4400    7.0500 H         7 CUB7        0.0000 
     80 DU         46.0100   10.5100    7.5800 H         7 CUB7        0.0000 
@<TRIPOS>BOND
@<TRIPOS>SUBSTRUCTURE
     1 SER1        1 GROUP   
     2 ALA2        7 GROUP   
     3 ASP3       30 GROUP   
     4 LYS4       36 GROUP   
     5 PHE5       43 GROUP   
     6 GLY6       64 GROUP   
     7 CUB7       74 GROUP   
@<TRIPOS>SET

