#    Name: 6sjc_2_DSZ_CAVITY_N1_8
#    Modification time : Fri May 22 19:24:31 2020

@<TRIPOS>MOLECULE
6sjc_2_DSZ_CAVITY_N1_8
  121     0     7     0     0
SMALL
NO_CHARGES


@<TRIPOS>ATOM
      1 OG        -50.7400  -15.5700  -13.0000 O.3       1 SER1        0.0000 
      2 N         -52.0000  -22.3400   -9.3400 N.am      2 ALA2        0.0000 
      3 N         -51.5800  -20.0800  -10.5600 N.am      2 ALA2        0.0000 
      4 N         -51.9100  -20.2300   -9.1000 N.am      2 ALA2        0.0000 
      5 N         -50.9200  -21.3500   -8.9900 N.am      2 ALA2        0.0000 
      6 N         -49.9300  -22.4700   -8.8800 N.am      2 ALA2        0.0000 
      7 N         -47.2800  -22.8500  -16.0400 N.am      2 ALA2        0.0000 
      8 N         -48.9400  -23.5900   -8.7700 N.am      2 ALA2        0.0000 
      9 N         -49.2700  -23.7400   -7.3100 N.am      2 ALA2        0.0000 
     10 N         -51.8200  -16.5500  -13.3400 N.am      2 ALA2        0.0000 
     11 N         -50.8300  -17.6700  -13.2300 N.am      2 ALA2        0.0000 
     12 N         -49.5100  -18.6500  -14.5800 N.am      2 ALA2        0.0000 
     13 N         -50.8300  -19.2400   -8.7500 N.am      2 ALA2        0.0000 
     14 N         -48.1800  -19.6200  -15.9200 N.am      2 ALA2        0.0000 
     15 N         -49.5100  -20.2200  -10.1000 N.am      2 ALA2        0.0000 
     16 N         -46.8600  -20.5900  -17.2600 N.am      2 ALA2        0.0000 
     17 O         -45.8700  -21.7100  -17.1500 O.2       2 ALA2        0.0000 
     18 N         -47.8600  -22.6100   -8.4200 N.am      2 ALA2        0.0000 
     19 N         -50.4100  -15.4200  -14.4500 N.am      2 ALA2        0.0000 
     20 N         -49.4200  -16.5400  -14.3400 N.am      2 ALA2        0.0000 
     21 O         -48.4300  -17.6600  -14.2300 O.2       2 ALA2        0.0000 
     22 N         -47.1100  -18.6300  -15.5700 N.am      2 ALA2        0.0000 
     23 O         -47.4400  -18.7800  -14.1200 O.2       2 ALA2        0.0000 
     24 O         -46.1200  -19.7500  -15.4600 O.2       2 ALA2        0.0000 
     25 O         -46.4500  -19.9000  -14.0100 O.2       2 ALA2        0.0000 
     26 N         -49.6700  -14.5800  -12.6500 N.am      2 ALA2        0.0000 
     27 O         -47.6900  -16.8200  -12.4300 O.2       2 ALA2        0.0000 
     28 N         -41.4100  -23.4000  -13.2100 N.am      2 ALA2        0.0000 
     29 OD1       -46.9500  -24.2600  -13.0200 O.co2     3 ASP3        0.0000 
     30 OD1       -47.2800  -24.4100  -11.5700 O.co2     3 ASP3        0.0000 
     31 OD1       -47.6200  -24.5600  -10.1100 O.co2     3 ASP3        0.0000 
     32 OD1       -47.9500  -24.7100   -8.6600 O.co2     3 ASP3        0.0000 
     33 OD1       -49.1800  -20.0700  -11.5500 O.co2     3 ASP3        0.0000 
     34 OD1       -48.1900  -21.1900  -11.4400 O.co2     3 ASP3        0.0000 
     35 OD1       -48.5200  -21.3400   -9.9900 O.co2     3 ASP3        0.0000 
     36 OD1       -46.8700  -22.1600  -12.7900 O.co2     3 ASP3        0.0000 
     37 OD1       -47.2000  -22.3100  -11.3300 O.co2     3 ASP3        0.0000 
     38 OD1       -47.5300  -22.4600   -9.8800 O.co2     3 ASP3        0.0000 
     39 OD1       -45.2100  -22.9800  -15.5900 O.co2     3 ASP3        0.0000 
     40 OD1       -45.5400  -23.1300  -14.1300 O.co2     3 ASP3        0.0000 
     41 OD1       -45.8800  -23.2800  -12.6800 O.co2     3 ASP3        0.0000 
     42 OD1       -46.2100  -23.4300  -11.2200 O.co2     3 ASP3        0.0000 
     43 OD1       -46.5400  -23.5800   -9.7700 O.co2     3 ASP3        0.0000 
     44 OD1       -47.7700  -18.9300  -12.6600 O.co2     3 ASP3        0.0000 
     45 OD1       -48.1000  -19.0800  -11.2100 O.co2     3 ASP3        0.0000 
     46 OD1       -46.7800  -20.0500  -12.5500 O.co2     3 ASP3        0.0000 
     47 OD1       -45.7900  -21.1700  -12.4400 O.co2     3 ASP3        0.0000 
     48 OD1       -44.8000  -22.2900  -12.3300 O.co2     3 ASP3        0.0000 
     49 OD1       -45.1300  -22.4400  -10.8700 O.co2     3 ASP3        0.0000 
     50 OD1       -45.4600  -22.5900   -9.4200 O.co2     3 ASP3        0.0000 
     51 OD1       -43.1400  -23.1200  -15.1300 O.co2     3 ASP3        0.0000 
     52 OD1       -43.4800  -23.2600  -13.6700 O.co2     3 ASP3        0.0000 
     53 OD1       -43.8100  -23.4100  -12.2200 O.co2     3 ASP3        0.0000 
     54 OD1       -42.4900  -24.3900  -13.5600 O.co2     3 ASP3        0.0000 
     55 OD1       -42.8200  -24.5400  -12.1100 O.co2     3 ASP3        0.0000 
     56 OD1       -44.0600  -21.4600  -10.5300 O.co2     3 ASP3        0.0000 
     57 NZ        -50.7600  -25.4100  -10.9200 N.4       4 LYS4        0.0000 
     58 NZ        -49.4400  -26.3900  -12.2600 N.4       4 LYS4        0.0000 
     59 NZ        -51.3300  -22.0400  -12.2500 N.4       4 LYS4        0.0000 
     60 NZ        -50.3400  -23.1600  -12.1400 N.4       4 LYS4        0.0000 
     61 NZ        -49.3500  -24.2800  -12.0300 N.4       4 LYS4        0.0000 
     62 NZ        -48.3600  -25.4000  -11.9100 N.4       4 LYS4        0.0000 
     63 NZ        -50.9100  -19.7800  -13.4700 N.4       4 LYS4        0.0000 
     64 NZ        -49.9200  -20.9000  -13.3600 N.4       4 LYS4        0.0000 
     65 NZ        -50.2600  -21.0500  -11.9000 N.4       4 LYS4        0.0000 
     66 NZ        -48.2700  -21.7200  -16.1500 N.4       4 LYS4        0.0000 
     67 NZ        -49.2700  -22.1700  -11.7900 N.4       4 LYS4        0.0000 
     68 NZ        -47.6100  -22.9900  -14.5900 N.4       4 LYS4        0.0000 
     69 NZ        -47.9400  -23.1400  -13.1300 N.4       4 LYS4        0.0000 
     70 NZ        -48.2700  -23.2900  -11.6800 N.4       4 LYS4        0.0000 
     71 NZ        -51.1600  -17.8200  -11.7800 N.4       4 LYS4        0.0000 
     72 NZ        -51.4900  -17.9700  -10.3200 N.4       4 LYS4        0.0000 
     73 NZ        -50.1700  -18.9500  -11.6600 N.4       4 LYS4        0.0000 
     74 NZ        -50.5000  -19.0900  -10.2100 N.4       4 LYS4        0.0000 
     75 NZ        -48.5200  -19.7700  -14.4600 N.4       4 LYS4        0.0000 
     76 NZ        -48.8500  -19.9200  -13.0100 N.4       4 LYS4        0.0000 
     77 NZ        -47.1900  -20.7400  -15.8100 N.4       4 LYS4        0.0000 
     78 NZ        -47.5200  -20.8900  -14.3500 N.4       4 LYS4        0.0000 
     79 NZ        -47.8600  -21.0400  -12.9000 N.4       4 LYS4        0.0000 
     80 NZ        -46.5300  -22.0100  -14.2400 N.4       4 LYS4        0.0000 
     81 NZ        -46.8700  -23.7300   -8.3100 N.4       4 LYS4        0.0000 
     82 NZ        -49.7500  -16.6900  -12.8800 N.4       4 LYS4        0.0000 
     83 NZ        -48.7600  -17.8100  -12.7700 N.4       4 LYS4        0.0000 
     84 NZ        -44.1400  -23.5600  -10.7600 N.4       4 LYS4        0.0000 
     85 NZ        -48.6800  -15.7000  -12.5400 N.4       4 LYS4        0.0000 
     86 NZ        -43.0600  -22.5800  -10.4200 N.4       4 LYS4        0.0000 
     87 NZ        -42.0700  -23.7000  -10.3000 N.4       4 LYS4        0.0000 
     88 CZ        -52.3200  -20.9200  -12.3600 C.ar      5 PHE5        0.0000 
     89 CZ        -53.2300  -17.6900  -12.2300 C.ar      5 PHE5        0.0000 
     90 CZ        -52.2400  -18.8100  -12.1200 C.ar      5 PHE5        0.0000 
     91 CZ        -51.2500  -19.9300  -12.0100 C.ar      5 PHE5        0.0000 
     92 CZ        -52.1500  -16.7000  -11.8900 C.ar      5 PHE5        0.0000 
     93 CZ        -45.4600  -21.0200  -13.9000 C.ar      5 PHE5        0.0000 
     94 CZ        -44.4700  -22.1400  -13.7800 C.ar      5 PHE5        0.0000 
     95 CZ        -43.0600  -21.0100  -14.8900 C.ar      5 PHE5        0.0000 
     96 CZ        -43.7200  -21.3100  -11.9800 C.ar      5 PHE5        0.0000 
     97 CZ        -42.0700  -22.1300  -14.7800 C.ar      5 PHE5        0.0000 
     98 CZ        -42.4000  -22.2800  -13.3300 C.ar      5 PHE5        0.0000 
     99 CZ        -42.7300  -22.4300  -11.8700 C.ar      5 PHE5        0.0000 
    100 CA        -51.7500  -24.2900  -11.0300 C.3       6 GLY6        0.0000 
    101 CA        -52.0800  -24.4400   -9.5700 C.3       6 GLY6        0.0000 
    102 CA        -52.6600  -21.0700  -10.9000 C.3       6 GLY6        0.0000 
    103 CA        -51.6600  -22.1900  -10.7900 C.3       6 GLY6        0.0000 
    104 CA        -50.6700  -23.3100  -10.6800 C.3       6 GLY6        0.0000 
    105 CA        -51.9100  -18.6600  -13.5800 C.3       6 GLY6        0.0000 
    106 CA        -52.5700  -18.9600  -10.6700 C.3       6 GLY6        0.0000 
    107 CA        -50.5800  -19.6300  -14.9200 C.3       6 GLY6        0.0000 
    108 CA        -45.1300  -20.8700  -15.3500 C.3       6 GLY6        0.0000 
    109 CA        -44.1400  -21.9900  -15.2400 C.3       6 GLY6        0.0000 
    110 CA        -49.3400  -14.4300  -14.1000 C.3       6 GLY6        0.0000 
    111 CA        -48.3400  -15.5500  -13.9900 C.3       6 GLY6        0.0000 
    112 CA        -41.7400  -23.5500  -11.7600 C.3       6 GLY6        0.0000 
    113 DU        -51.0900  -25.5600   -9.4600 H         7 CUB7        0.0000 
    114 DU        -49.7700  -26.5300  -10.8100 H         7 CUB7        0.0000 
    115 DU        -51.0100  -23.4600   -9.2300 H         7 CUB7        0.0000 
    116 DU        -49.6800  -24.4300  -10.5700 H         7 CUB7        0.0000 
    117 DU        -50.5900  -21.2000  -10.4500 H         7 CUB7        0.0000 
    118 DU        -49.6000  -22.3200  -10.3300 H         7 CUB7        0.0000 
    119 DU        -48.6100  -23.4400  -10.2200 H         7 CUB7        0.0000 
    120 DU        -49.8400  -18.8000  -13.1200 H         7 CUB7        0.0000 
    121 DU        -46.2000  -21.8600  -15.7000 H         7 CUB7        0.0000 
@<TRIPOS>BOND
@<TRIPOS>SUBSTRUCTURE
     1 SER1        1 GROUP   
     2 ALA2        2 GROUP   
     3 ASP3       29 GROUP   
     4 LYS4       57 GROUP   
     5 PHE5       88 GROUP   
     6 GLY6      100 GROUP   
     7 CUB7      113 GROUP   
@<TRIPOS>SET

