#    Name: 6sjc_2_DSZ
#    Modification time : Fri May 22 19:24:30 2020

@<TRIPOS>MOLECULE
6sjc_2_DSZ
   31    33     1     0     0
SMALL
NO_CHARGES


@<TRIPOS>ATOM
      1 C         -48.8440  -16.4360  -12.5330 C.2       1 DSZ601      0.0000 
      2 N         -49.3620  -14.1340  -11.9340 N.4       1 DSZ601      0.0000 
      3 O         -47.6910  -16.3380  -12.1110 O.2       1 DSZ601      0.0000 
      4 N1        -40.5730  -23.2200  -12.7660 N.ar      1 DSZ601      0.0000 
      5 C2        -40.8280  -23.0500  -14.0680 C.ar      1 DSZ601      0.0000 
      6 N3        -41.9550  -22.6360  -14.6530 N.ar      1 DSZ601      0.0000 
      7 C4        -42.9070  -22.3750  -13.7420 C.ar      1 DSZ601      0.0000 
      8 C5        -42.7880  -22.5130  -12.3680 C.ar      1 DSZ601      0.0000 
      9 C6        -41.5510  -22.9540  -11.8690 C.ar      1 DSZ601      0.0000 
     10 N6        -41.2760  -23.0910  -10.5680 N.pl3     1 DSZ601      0.0000 
     11 N7        -43.9740  -22.1420  -11.7410 N.2       1 DSZ601      0.0000 
     12 C8        -44.7550  -21.7930  -12.7340 C.2       1 DSZ601      0.0000 
     13 N9        -44.1730  -21.9010  -13.9700 N.pl3     1 DSZ601      0.0000 
     14 CA        -49.8430  -15.2870  -12.7120 C.3       1 DSZ601      0.0000 
     15 CB        -49.9930  -15.0290  -14.2100 C.3       1 DSZ601      0.0000 
     16 CG        -51.2190  -14.1440  -14.4000 C.2       1 DSZ601      0.0000 
     17 C1'       -44.7620  -21.5300  -15.2570 C.3       1 DSZ601      0.0000 
     18 C2'       -45.9510  -22.4020  -15.7000 C.3       1 DSZ601      0.0000 
     19 O2'       -45.8410  -22.7350  -17.0800 O.3       1 DSZ601      0.0000 
     20 C3'       -47.1450  -21.4770  -15.4600 C.3       1 DSZ601      0.0000 
     21 O3'       -48.2010  -21.7530  -16.3710 O.3       1 DSZ601      0.0000 
     22 C4'       -46.5450  -20.1070  -15.7340 C.3       1 DSZ601      0.0000 
     23 O4'       -45.2190  -20.1870  -15.1770 O.3       1 DSZ601      0.0000 
     24 C5'       -47.2890  -18.9340  -15.1480 C.3       1 DSZ601      0.0000 
     25 O5'       -47.1370  -18.9830  -13.7030 O.3       1 DSZ601      0.0000 
     26 NAT       -49.2970  -17.7480  -12.9230 N.am      1 DSZ601      0.0000 
     27 OAX       -47.9830  -19.2020  -11.4740 O.2       1 DSZ601      0.0000 
     28 OAY       -49.2360  -20.1270  -13.3980 O.2       1 DSZ601      0.0000 
     29 SBE       -48.4550  -19.0990  -12.8090 S.o2      1 DSZ601      0.0000 
     30 OD1       -51.1260  -13.1680  -15.1780 O.co2     1 DSZ601      0.0000 
     31 OD2       -52.2550  -14.4610  -13.7710 O.co2     1 DSZ601      0.0000 
@<TRIPOS>BOND
     1    1    3 2    
     2    1   14 1    
     3    1   26 am   
     4    2   14 1    
     5    4    5 ar   
     6    4    9 ar   
     7    5    6 ar   
     8    6    7 ar   
     9    7    8 ar   
    10    7   13 1    
    11    8    9 ar   
    12    8   11 1    
    13    9   10 1    
    14   11   12 2    
    15   12   13 1    
    16   13   17 1    
    17   14   15 1    
    18   15   16 1    
    19   16   30 ar   
    20   16   31 ar   
    21   17   18 1    
    22   17   23 1    
    23   18   19 1    
    24   18   20 1    
    25   20   21 1    
    26   20   22 1    
    27   22   23 1    
    28   22   24 1    
    29   24   25 1    
    30   25   29 1    
    31   26   29 1    
    32   27   29 2    
    33   28   29 2    
@<TRIPOS>SUBSTRUCTURE
     1 DSZ601      1 GROUP   
@<TRIPOS>SET

