#    Name: 6sjc_1_DSZ
#    Modification time : Fri May 22 19:24:24 2020

@<TRIPOS>MOLECULE
6sjc_1_DSZ
   31    33     1     0     0
SMALL
NO_CHARGES


@<TRIPOS>ATOM
      1 C         -19.0310   -4.1680  -14.0960 C.2       1 DSZ601      0.0000 
      2 N         -18.7280   -6.5160  -14.5020 N.4       1 DSZ601      0.0000 
      3 O         -20.0690   -4.4250  -13.4860 O.2       1 DSZ601      0.0000 
      4 N1        -26.6900    1.7430   -9.5030 N.ar      1 DSZ601      0.0000 
      5 C2        -26.7680    2.0720  -10.7960 C.ar      1 DSZ601      0.0000 
      6 N3        -25.8520    1.9190  -11.7560 N.ar      1 DSZ601      0.0000 
      7 C4        -24.7310    1.3710  -11.2700 C.ar      1 DSZ601      0.0000 
      8 C5        -24.4970    0.9910   -9.9580 C.ar      1 DSZ601      0.0000 
      9 C6        -25.5510    1.1800   -9.0410 C.ar      1 DSZ601      0.0000 
     10 N6        -25.5110    0.7830   -7.7660 N.pl3     1 DSZ601      0.0000 
     11 N7        -23.2140    0.4770   -9.8190 N.2       1 DSZ601      0.0000 
     12 C8        -22.7170    0.5500  -11.0310 C.2       1 DSZ601      0.0000 
     13 N9        -23.5780    1.0790  -11.9570 N.pl3     1 DSZ601      0.0000 
     14 CA        -18.2400   -5.1950  -14.9400 C.3       1 DSZ601      0.0000 
     15 CB        -18.4400   -4.8870  -16.4330 C.3       1 DSZ601      0.0000 
     16 CG        -17.2650   -5.3770  -17.2770 C.2       1 DSZ601      0.0000 
     17 C1'       -23.3330    1.3080  -13.3790 C.3       1 DSZ601      0.0000 
     18 C2'       -22.2500    2.3570  -13.6860 C.3       1 DSZ601      0.0000 
     19 O2'       -22.7210    3.2060  -14.7250 O.3       1 DSZ601      0.0000 
     20 C3'       -21.0780    1.4870  -14.1550 C.3       1 DSZ601      0.0000 
     21 O3'       -20.2340    2.1430  -15.0920 O.3       1 DSZ601      0.0000 
     22 C4'       -21.7940    0.3320  -14.8320 C.3       1 DSZ601      0.0000 
     23 O4'       -22.9350    0.0880  -13.9850 O.3       1 DSZ601      0.0000 
     24 C5'       -20.9800   -0.9270  -14.9960 C.3       1 DSZ601      0.0000 
     25 O5'       -20.7450   -1.4710  -13.6690 O.3       1 DSZ601      0.0000 
     26 NAT       -18.5550   -2.7980  -14.0110 N.am      1 DSZ601      0.0000 
     27 OAX       -19.4030   -2.0190  -11.8160 O.2       1 DSZ601      0.0000 
     28 OAY       -18.5800   -0.4090  -13.5070 O.2       1 DSZ601      0.0000 
     29 SBE       -19.2370   -1.6220  -13.1690 S.o2      1 DSZ601      0.0000 
     30 OD1       -16.1100   -5.2730  -16.8070 O.co2     1 DSZ601      0.0000 
     31 OD2       -17.5300   -5.8420  -18.4130 O.co2     1 DSZ601      0.0000 
@<TRIPOS>BOND
     1    1    3 2    
     2    1   14 1    
     3    1   26 am   
     4    2   14 1    
     5    4    5 ar   
     6    4    9 ar   
     7    5    6 ar   
     8    6    7 ar   
     9    7    8 ar   
    10    7   13 1    
    11    8    9 ar   
    12    8   11 1    
    13    9   10 1    
    14   11   12 2    
    15   12   13 1    
    16   13   17 1    
    17   14   15 1    
    18   15   16 1    
    19   16   30 ar   
    20   16   31 ar   
    21   17   18 1    
    22   17   23 1    
    23   18   19 1    
    24   18   20 1    
    25   20   21 1    
    26   20   22 1    
    27   22   23 1    
    28   22   24 1    
    29   24   25 1    
    30   25   29 1    
    31   26   29 1    
    32   27   29 2    
    33   28   29 2    
@<TRIPOS>SUBSTRUCTURE
     1 DSZ601      1 GROUP   
@<TRIPOS>SET

