#    Name: 6sjc_1_DSZ_CAVITY_N1_8
#    Modification time : Fri May 22 19:24:25 2020

@<TRIPOS>MOLECULE
6sjc_1_DSZ_CAVITY_N1_8
  150     0     7     0     0
SMALL
NO_CHARGES


@<TRIPOS>ATOM
      1 OG        -19.4800   -9.7100   -9.9000 O.3       1 SER1        0.0000 
      2 OG        -19.3900   -6.0300  -14.1400 O.3       1 SER1        0.0000 
      3 OG        -18.0700   -8.5700  -11.0000 O.3       1 SER1        0.0000 
      4 OG        -18.4000   -8.7200   -9.5500 O.3       1 SER1        0.0000 
      5 OG        -17.9800   -6.4700  -10.7700 O.3       1 SER1        0.0000 
      6 OG        -18.1400   -0.8300  -13.3200 O.3       1 SER1        0.0000 
      7 OG        -18.4700   -0.9800  -11.8600 O.3       1 SER1        0.0000 
      8 OG        -18.7200    0.9700  -10.1700 O.3       1 SER1        0.0000 
      9 N         -20.5500  -10.6900  -10.2400 N.am      2 ALA2        0.0000 
     10 O         -20.8900  -10.8400   -8.7900 O.2       2 ALA2        0.0000 
     11 N         -18.4000   -7.1500  -14.0200 N.am      2 ALA2        0.0000 
     12 N         -21.9400   -0.4100  -15.6900 N.am      2 ALA2        0.0000 
     13 O         -22.2700   -0.5600  -14.2300 O.2       2 ALA2        0.0000 
     14 O         -22.6000   -0.7100  -12.7800 O.2       2 ALA2        0.0000 
     15 N         -20.9500   -1.5400  -15.5800 N.am      2 ALA2        0.0000 
     16 O         -20.2900   -2.8100  -14.0100 O.2       2 ALA2        0.0000 
     17 N         -18.9700   -3.7800  -15.3600 N.am      2 ALA2        0.0000 
     18 O         -19.3000   -3.9300  -13.9000 O.2       2 ALA2        0.0000 
     19 N         -17.9800   -4.9000  -15.2400 N.am      2 ALA2        0.0000 
     20 N         -19.6400   -5.6400   -7.9700 N.am      2 ALA2        0.0000 
     21 N         -18.6500   -6.7700   -7.8600 N.am      2 ALA2        0.0000 
     22 O         -21.8500    1.6900  -15.4500 O.2       2 ALA2        0.0000 
     23 N         -20.8600    0.5700  -15.3400 N.am      2 ALA2        0.0000 
     24 N         -19.8700   -0.5500  -15.2300 N.am      2 ALA2        0.0000 
     25 O         -20.2100   -0.7000  -13.7800 O.2       2 ALA2        0.0000 
     26 N         -18.8800   -1.6700  -15.1200 N.am      2 ALA2        0.0000 
     27 O         -19.2200   -1.8200  -13.6600 O.2       2 ALA2        0.0000 
     28 N         -18.8900   -4.8100   -6.1700 N.am      2 ALA2        0.0000 
     29 O         -17.9000   -5.9300   -6.0600 O.2       2 ALA2        0.0000 
     30 O         -17.8200   -3.8200   -5.8200 O.2       2 ALA2        0.0000 
     31 O         -16.8300   -4.9400   -5.7100 O.2       2 ALA2        0.0000 
     32 N         -15.1700   -5.7700   -8.5100 N.am      2 ALA2        0.0000 
     33 N         -14.1800   -6.8900   -8.4000 N.am      2 ALA2        0.0000 
     34 OD1       -18.6400   -5.2000  -12.3300 O.co2     3 ASP3        0.0000 
     35 OD1       -18.9700   -5.3500  -10.8800 O.co2     3 ASP3        0.0000 
     36 OD1       -19.3100   -5.5000   -9.4200 O.co2     3 ASP3        0.0000 
     37 OD1       -23.5100    2.5100  -12.6500 O.co2     3 ASP3        0.0000 
     38 OD1       -23.8400    2.3600  -11.2000 O.co2     3 ASP3        0.0000 
     39 OD1       -24.1700    2.2200   -9.7400 O.co2     3 ASP3        0.0000 
     40 OD1       -22.8500    1.2400  -11.0900 O.co2     3 ASP3        0.0000 
     41 OD1       -23.1800    1.0900   -9.6300 O.co2     3 ASP3        0.0000 
     42 OD1       -21.8600    0.1200  -10.9800 O.co2     3 ASP3        0.0000 
     43 OD1       -22.1900   -0.0300   -9.5200 O.co2     3 ASP3        0.0000 
     44 OD1       -20.5400   -0.8500  -12.3200 O.co2     3 ASP3        0.0000 
     45 OD1       -19.5500   -1.9700  -12.2100 O.co2     3 ASP3        0.0000 
     46 OD1       -18.5600   -3.0900  -12.1000 O.co2     3 ASP3        0.0000 
     47 OD1       -17.9000   -4.3600  -10.5300 O.co2     3 ASP3        0.0000 
     48 OD1       -18.2300   -4.5100   -9.0800 O.co2     3 ASP3        0.0000 
     49 OD1       -18.5600   -4.6600   -7.6200 O.co2     3 ASP3        0.0000 
     50 OD1       -21.4400    2.3800  -12.2000 O.co2     3 ASP3        0.0000 
     51 OD1       -21.7800    2.2300  -10.7400 O.co2     3 ASP3        0.0000 
     52 OD1       -22.1100    2.0800   -9.2900 O.co2     3 ASP3        0.0000 
     53 OD1       -22.4400    1.9300   -7.8300 O.co2     3 ASP3        0.0000 
     54 OD1       -20.7800    1.1100  -10.6300 O.co2     3 ASP3        0.0000 
     55 OD1       -21.1200    0.9600   -9.1700 O.co2     3 ASP3        0.0000 
     56 OD1       -19.7900   -0.0100  -10.5200 O.co2     3 ASP3        0.0000 
     57 OD1       -20.1300   -0.1600   -9.0600 O.co2     3 ASP3        0.0000 
     58 OD1       -20.4600   -0.3100   -7.6100 O.co2     3 ASP3        0.0000 
     59 OD1       -18.8000   -1.1300  -10.4100 O.co2     3 ASP3        0.0000 
     60 OD1       -19.4700   -1.4300   -7.5000 O.co2     3 ASP3        0.0000 
     61 OD1       -18.1400   -2.4000   -8.8400 O.co2     3 ASP3        0.0000 
     62 OD1       -17.1500   -3.5200   -8.7300 O.co2     3 ASP3        0.0000 
     63 OD1       -20.3700    3.3600  -11.8500 O.co2     3 ASP3        0.0000 
     64 OD1       -20.7000    3.2100  -10.3900 O.co2     3 ASP3        0.0000 
     65 OD1       -19.7100    2.0900  -10.2800 O.co2     3 ASP3        0.0000 
     66 OD1       -20.0400    1.9400   -8.8300 O.co2     3 ASP3        0.0000 
     67 OD1       -19.0500    0.8200   -8.7200 O.co2     3 ASP3        0.0000 
     68 OD1       -18.0600   -0.3000   -8.6100 O.co2     3 ASP3        0.0000 
     69 NZ        -23.5200    0.9400   -8.1800 N.4       4 LYS4        0.0000 
     70 NZ        -22.5300   -0.1800   -8.0700 N.4       4 LYS4        0.0000 
     71 NZ        -21.1100    2.5300  -13.6500 N.4       4 LYS4        0.0000 
     72 NZ        -19.7900    1.5600  -14.9900 N.4       4 LYS4        0.0000 
     73 NZ        -20.1200    1.4100  -13.5400 N.4       4 LYS4        0.0000 
     74 NZ        -20.4500    1.2600  -12.0800 N.4       4 LYS4        0.0000 
     75 NZ        -21.4500    0.8100   -7.7200 N.4       4 LYS4        0.0000 
     76 NZ        -18.8000    0.4400  -14.8800 N.4       4 LYS4        0.0000 
     77 NZ        -19.1300    0.2900  -13.4300 N.4       4 LYS4        0.0000 
     78 NZ        -19.4600    0.1400  -11.9700 N.4       4 LYS4        0.0000 
     79 NZ        -19.3800    2.2400  -11.7400 N.4       4 LYS4        0.0000 
     80 NZ        -18.3900    1.1200  -11.6300 N.4       4 LYS4        0.0000 
     81 NZ        -19.7100    0.5300   -5.8100 N.4       4 LYS4        0.0000 
     82 NZ        -18.3000    3.2300  -11.3900 N.4       4 LYS4        0.0000 
     83 CZ        -16.0900  -10.8100  -10.7800 C.ar      5 PHE5        0.0000 
     84 CZ        -24.9200    1.3800  -11.5500 C.ar      5 PHE5        0.0000 
     85 CZ        -25.2500    1.2300  -10.0900 C.ar      5 PHE5        0.0000 
     86 CZ        -25.5800    1.0800   -8.6300 C.ar      5 PHE5        0.0000 
     87 CZ        -23.6000    0.4100  -12.8900 C.ar      5 PHE5        0.0000 
     88 CZ        -23.9300    0.2600  -11.4300 C.ar      5 PHE5        0.0000 
     89 CZ        -24.2600    0.1100   -9.9800 C.ar      5 PHE5        0.0000 
     90 CZ        -24.5900   -0.0400   -8.5200 C.ar      5 PHE5        0.0000 
     91 CZ        -22.9400   -0.8600  -11.3200 C.ar      5 PHE5        0.0000 
     92 CZ        -17.3200   -6.1700  -13.6800 C.ar      5 PHE5        0.0000 
     93 CZ        -17.6500   -6.3200  -12.2200 C.ar      5 PHE5        0.0000 
     94 CZ        -16.6600   -7.4400  -12.1100 C.ar      5 PHE5        0.0000 
     95 CZ        -15.6700   -8.5600  -12.0000 C.ar      5 PHE5        0.0000 
     96 CZ        -18.2200   -2.9400  -13.5500 C.ar      5 PHE5        0.0000 
     97 CZ        -17.2300   -4.0600  -13.4400 C.ar      5 PHE5        0.0000 
     98 CZ        -17.5700   -4.2100  -11.9900 C.ar      5 PHE5        0.0000 
     99 CZ        -16.2400   -5.1800  -13.3300 C.ar      5 PHE5        0.0000 
    100 CZ        -16.5800   -5.3300  -11.8800 C.ar      5 PHE5        0.0000 
    101 CZ        -17.8100   -2.2500  -10.3000 C.ar      5 PHE5        0.0000 
    102 CZ        -16.8200   -3.3700  -10.1900 C.ar      5 PHE5        0.0000 
    103 CZ        -17.0700   -1.4200   -8.4900 C.ar      5 PHE5        0.0000 
    104 CA        -18.5700  -12.9400  -10.0200 C.3       6 GLY6        0.0000 
    105 CA        -19.8100   -9.8600   -8.4400 C.3       6 GLY6        0.0000 
    106 CA        -18.1500  -10.6800  -11.2400 C.3       6 GLY6        0.0000 
    107 CA        -17.5000  -11.9500   -9.6700 C.3       6 GLY6        0.0000 
    108 CA        -19.3900   -7.6000   -9.6600 C.3       6 GLY6        0.0000 
    109 CA        -17.7400   -8.4200  -12.4600 C.3       6 GLY6        0.0000 
    110 CA        -18.7300   -8.8700   -8.0900 C.3       6 GLY6        0.0000 
    111 CA        -17.0800   -9.6900  -10.8900 C.3       6 GLY6        0.0000 
    112 CA        -24.5900    1.5300  -13.0000 C.3       6 GLY6        0.0000 
    113 CA        -23.2600    0.5600  -14.3400 C.3       6 GLY6        0.0000 
    114 CA        -19.9600   -2.6600  -15.4700 C.3       6 GLY6        0.0000 
    115 CA        -16.9900   -7.5900  -10.6600 C.3       6 GLY6        0.0000 
    116 CA        -16.0000   -8.7100  -10.5500 C.3       6 GLY6        0.0000 
    117 CA        -15.0100   -9.8300  -10.4300 C.3       6 GLY6        0.0000 
    118 CA        -15.3400   -9.9800   -8.9800 C.3       6 GLY6        0.0000 
    119 CA        -23.1800    2.6600  -14.1100 C.3       6 GLY6        0.0000 
    120 CA        -24.5100    2.0700   -8.2900 C.3       6 GLY6        0.0000 
    121 CA        -22.1900    1.5400  -14.0000 C.3       6 GLY6        0.0000 
    122 CA        -15.9200   -6.6000  -10.3100 C.3       6 GLY6        0.0000 
    123 CA        -16.5800   -6.9000   -7.4000 C.3       6 GLY6        0.0000 
    124 CA        -15.2600   -7.8700   -8.7400 C.3       6 GLY6        0.0000 
    125 CA        -14.2700   -8.9900   -8.6300 C.3       6 GLY6        0.0000 
    126 CA        -18.8100   -2.7000   -5.9300 C.3       6 GLY6        0.0000 
    127 CA        -15.8300   -4.5000  -10.0700 C.3       6 GLY6        0.0000 
    128 CA        -16.1600   -4.6400   -8.6200 C.3       6 GLY6        0.0000 
    129 CA        -15.5000   -5.9200   -7.0500 C.3       6 GLY6        0.0000 
    130 CA        -15.0900   -3.6600   -8.2700 C.3       6 GLY6        0.0000 
    131 DU        -18.4900  -10.8300   -9.7800 H         7 CUB7        0.0000 
    132 DU        -18.8200  -10.9800   -8.3300 H         7 CUB7        0.0000 
    133 DU        -17.4100   -9.8400   -9.4400 H         7 CUB7        0.0000 
    134 DU        -17.7400   -9.9900   -7.9800 H         7 CUB7        0.0000 
    135 DU        -16.4200  -10.9600   -9.3300 H         7 CUB7        0.0000 
    136 DU        -18.3100   -5.0500  -13.7900 H         7 CUB7        0.0000 
    137 DU        -18.3200   -6.6200   -9.3100 H         7 CUB7        0.0000 
    138 DU        -17.3300   -7.7400   -9.2000 H         7 CUB7        0.0000 
    139 DU        -16.3300   -8.8600   -9.0900 H         7 CUB7        0.0000 
    140 DU        -16.6700   -9.0100   -7.6400 H         7 CUB7        0.0000 
    141 DU        -22.5200    1.3900  -12.5400 H         7 CUB7        0.0000 
    142 DU        -21.2000    0.4200  -13.8900 H         7 CUB7        0.0000 
    143 DU        -21.5300    0.2700  -12.4300 H         7 CUB7        0.0000 
    144 DU        -16.9100   -5.4800  -10.4200 H         7 CUB7        0.0000 
    145 DU        -17.2400   -5.6300   -8.9700 H         7 CUB7        0.0000 
    146 DU        -17.5700   -5.7800   -7.5100 H         7 CUB7        0.0000 
    147 DU        -16.2500   -6.7500   -8.8500 H         7 CUB7        0.0000 
    148 DU        -17.4900   -3.6700   -7.2700 H         7 CUB7        0.0000 
    149 DU        -16.5000   -4.7900   -7.1600 H         7 CUB7        0.0000 
    150 DU        -15.4200   -3.8100   -6.8200 H         7 CUB7        0.0000 
@<TRIPOS>BOND
@<TRIPOS>SUBSTRUCTURE
     1 SER1        1 GROUP   
     2 ALA2        9 GROUP   
     3 ASP3       34 GROUP   
     4 LYS4       69 GROUP   
     5 PHE5       83 GROUP   
     6 GLY6      104 GROUP   
     7 CUB7      131 GROUP   
@<TRIPOS>SET

