#    Name: 6ogz_2_GTP
#    Modification time : Fri May 22 19:26:01 2020

@<TRIPOS>MOLECULE
6ogz_2_GTP
   32    34     1     0     1
SMALL
NO_CHARGES


@<TRIPOS>ATOM
      1 PG        187.5090  158.7700  242.7210 P.3       1 GTP1102     0.0000 
      2 O1G       188.6100  158.5310  241.7190 O.co2     1 GTP1102     0.0000 
      3 O2G       188.0670  158.6270  244.1160 O.co2     1 GTP1102     0.0000 
      4 O3G       186.9640  160.1640  242.5400 O.co2     1 GTP1102     0.0000 
      5 O3B       186.3390  157.6850  242.4990 O.3       1 GTP1102     0.0000 
      6 PB        185.5690  157.5190  241.0910 P.3       1 GTP1102     0.0000 
      7 O1B       184.9830  158.8460  240.6760 O.co2     1 GTP1102     0.0000 
      8 O2B       184.4800  156.4770  241.1890 O.co2     1 GTP1102     0.0000 
      9 O3A       186.6970  157.0830  240.0210 O.3       1 GTP1102     0.0000 
     10 PA        187.6230  155.7730  240.1870 P.3       1 GTP1102     0.0000 
     11 O1A       188.7240  155.8170  239.1550 O.co2     1 GTP1102     0.0000 
     12 O2A       188.2110  155.6650  241.5720 O.co2     1 GTP1102     0.0000 
     13 O5'       186.6430  154.5420  239.8460 O.3       1 GTP1102     0.0000 
     14 C5'       186.7990  153.8050  238.6530 C.3       1 GTP1102     0.0000 
     15 C4'       185.8740  154.3060  237.5480 C.3       1 GTP1102     0.0000 
     16 O4'       186.0680  155.6900  237.3380 O.3       1 GTP1102     0.0000 
     17 C3'       186.1680  153.6090  236.2310 C.3       1 GTP1102     0.0000 
     18 O3'       185.1760  152.6530  235.9470 O.3       1 GTP1102     0.0000 
     19 C2'       186.1380  154.6960  235.1830 C.3       1 GTP1102     0.0000 
     20 O2'       184.9200  154.6370  234.4810 O.3       1 GTP1102     0.0000 
     21 C1'       186.1970  155.9950  235.9610 C.3       1 GTP1102     0.0000 
     22 N9        187.4830  156.6890  235.7620 N.pl3     1 GTP1102     0.0000 
     23 C8        188.3910  156.5080  234.7510 C.2       1 GTP1102     0.0000 
     24 N7        189.4250  157.3560  234.9540 N.2       1 GTP1102     0.0000 
     25 C5        189.1850  158.0800  236.0720 C.2       1 GTP1102     0.0000 
     26 C6        189.8960  159.0770  236.7280 C.2       1 GTP1102     0.0000 
     27 O6        190.9770  159.4600  236.2980 O.2       1 GTP1102     0.0000 
     28 N1        189.3900  159.6450  237.8730 N.am      1 GTP1102     0.0000 
     29 C2        188.1760  159.2220  238.3610 C.2       1 GTP1102     0.0000 
     30 N2        187.6810  159.7650  239.4660 N.pl3     1 GTP1102     0.0000 
     31 N3        187.4700  158.2330  237.7120 N.2       1 GTP1102     0.0000 
     32 C4        187.9670  157.6710  236.5850 C.2       1 GTP1102     0.0000 
@<TRIPOS>BOND
     1    1    2 ar   
     2    1    3 ar   
     3    1    4 ar   
     4    1    5 1    
     5    5    6 1    
     6    6    7 ar   
     7    6    8 ar   
     8    6    9 1    
     9    9   10 1    
    10   10   11 ar   
    11   10   12 ar   
    12   10   13 1    
    13   13   14 1    
    14   14   15 1    
    15   15   16 1    
    16   15   17 1    
    17   16   21 1    
    18   17   18 1    
    19   17   19 1    
    20   19   20 1    
    21   19   21 1    
    22   21   22 1    
    23   22   23 1    
    24   22   32 1    
    25   23   24 2    
    26   24   25 1    
    27   25   26 1    
    28   25   32 2    
    29   26   27 2    
    30   26   28 am   
    31   28   29 1    
    32   29   30 1    
    33   29   31 2    
    34   31   32 1    
@<TRIPOS>SUBSTRUCTURE
     1 GTP1102     1 GROUP   
@<TRIPOS>SET
ATOM$ORANGE STATIC     ATOMS   COLORGROUP SYSTEM 
20 14 14 15 15 17 17 19 19 21 21 23 23 25 25 26 26 29 \
29 32 32 

