#    Name: 6ogz_1_UTP
#    Modification time : Fri May 22 19:25:42 2020

@<TRIPOS>MOLECULE
6ogz_1_UTP
   29    30     1     0     0
SMALL
NO_CHARGES


@<TRIPOS>ATOM
      1 PA        216.1630  151.9080  210.1450 P.3       1 UTP1101     0.0000 
      2 O1A       216.1350  151.0210  208.9460 O.co2     1 UTP1101     0.0000 
      3 O2A       215.1110  151.7270  211.1870 O.co2     1 UTP1101     0.0000 
      4 O3A       217.6060  151.8250  210.8340 O.3       1 UTP1101     0.0000 
      5 O5'       216.1850  153.4360  209.6690 O.3       1 UTP1101     0.0000 
      6 PB        218.5880  150.6380  211.2620 P.3       1 UTP1101     0.0000 
      7 O1B       219.5490  151.1710  212.2670 O.co2     1 UTP1101     0.0000 
      8 O2B       219.0930  149.9670  210.0340 O.co2     1 UTP1101     0.0000 
      9 O3B       217.5970  149.6190  211.9910 O.3       1 UTP1101     0.0000 
     10 PG        217.8820  148.1810  212.6610 P.3       1 UTP1101     0.0000 
     11 O1G       216.5400  147.6500  213.0960 O.co2     1 UTP1101     0.0000 
     12 O2G       218.5160  147.3450  211.5830 O.co2     1 UTP1101     0.0000 
     13 O3G       218.8130  148.4360  213.8170 O.co2     1 UTP1101     0.0000 
     14 C5'       217.1690  153.8010  208.6730 C.3       1 UTP1101     0.0000 
     15 C4'       217.5460  155.2520  208.8380 C.3       1 UTP1101     0.0000 
     16 O4'       216.3740  156.1010  208.8130 O.3       1 UTP1101     0.0000 
     17 C1'       216.6820  157.3110  209.4770 C.3       1 UTP1101     0.0000 
     18 C2'       218.0790  157.1630  210.0840 C.3       1 UTP1101     0.0000 
     19 O2'       218.9880  157.6930  209.1450 O.3       1 UTP1101     0.0000 
     20 C3'       218.2060  155.6400  210.1620 C.3       1 UTP1101     0.0000 
     21 O3'       219.5420  155.1670  210.2620 O.3       1 UTP1101     0.0000 
     22 N1        215.6380  157.5850  210.4830 N.am      1 UTP1101     0.0000 
     23 C6        214.8480  156.5830  210.9930 C.2       1 UTP1101     0.0000 
     24 C2        215.4890  158.8940  210.8980 C.2       1 UTP1101     0.0000 
     25 O2        216.1720  159.8120  210.4670 O.2       1 UTP1101     0.0000 
     26 N3        214.5080  159.0950  211.8340 N.am      1 UTP1101     0.0000 
     27 C4        213.6820  158.1410  212.3890 C.2       1 UTP1101     0.0000 
     28 O4        212.8450  158.4830  213.2220 O.2       1 UTP1101     0.0000 
     29 C5        213.8970  156.8090  211.9090 C.2       1 UTP1101     0.0000 
@<TRIPOS>BOND
     1    1    2 ar   
     2    1    3 ar   
     3    1    4 1    
     4    1    5 1    
     5    4    6 1    
     6    5   14 1    
     7    6    7 ar   
     8    6    8 ar   
     9    6    9 1    
    10    9   10 1    
    11   10   11 ar   
    12   10   12 ar   
    13   10   13 ar   
    14   14   15 1    
    15   15   16 1    
    16   15   20 1    
    17   16   17 1    
    18   17   18 1    
    19   17   22 1    
    20   18   19 1    
    21   18   20 1    
    22   20   21 1    
    23   22   23 1    
    24   22   24 1    
    25   23   29 2    
    26   24   25 2    
    27   24   26 1    
    28   26   27 1    
    29   27   28 2    
    30   27   29 1    
@<TRIPOS>SUBSTRUCTURE
     1 UTP1101     1 GROUP   
@<TRIPOS>SET

