#    Name: 6ogz_2_GTP_CAVITY_N1_4
#    Modification time : Fri May 22 19:26:02 2020

@<TRIPOS>MOLECULE
6ogz_2_GTP_CAVITY_N1_4
  134     0     7     0     0
SMALL
NO_CHARGES


@<TRIPOS>ATOM
      1 OG        183.6500  152.9800  234.9500 O.3       1 SER1        0.0000 
      2 OG        185.3800  153.4900  233.0800 O.3       1 SER1        0.0000 
      3 OG        184.3800  154.4700  233.6200 O.3       1 SER1        0.0000 
      4 OG        182.3800  156.4100  234.7200 O.3       1 SER1        0.0000 
      5 OG        185.7200  153.0600  234.4700 O.3       1 SER1        0.0000 
      6 OG        184.7200  154.0300  235.0200 O.3       1 SER1        0.0000 
      7 OG        183.7100  155.0000  235.5700 O.3       1 SER1        0.0000 
      8 OG        183.0500  155.5400  237.5100 O.3       1 SER1        0.0000 
      9 OG        183.3900  155.1100  238.9000 O.3       1 SER1        0.0000 
     10 OG        182.3800  156.0800  239.4500 O.3       1 SER1        0.0000 
     11 OG        181.3800  157.0500  239.9900 O.3       1 SER1        0.0000 
     12 OG        181.7200  156.6200  241.3900 O.3       1 SER1        0.0000 
     13 OG        183.1100  157.5700  238.1200 O.3       1 SER1        0.0000 
     14 OG        182.1100  158.5400  238.6700 O.3       1 SER1        0.0000 
     15 OG        183.4500  157.1400  239.5200 O.3       1 SER1        0.0000 
     16 OG        182.4500  158.1100  240.0700 O.3       1 SER1        0.0000 
     17 OG        181.4400  159.0800  240.6100 O.3       1 SER1        0.0000 
     18 OG        187.7900  152.8000  238.7300 O.3       1 SER1        0.0000 
     19 OG        181.7800  158.6500  242.0100 O.3       1 SER1        0.0000 
     20 OG        187.5100  155.6000  233.2200 O.3       1 SER1        0.0000 
     21 OG        189.5200  153.3200  236.8600 O.3       1 SER1        0.0000 
     22 OG        188.5200  154.3000  237.4100 O.3       1 SER1        0.0000 
     23 OG        188.8600  153.8600  238.8100 O.3       1 SER1        0.0000 
     24 OG        189.1900  153.4200  240.2000 O.3       1 SER1        0.0000 
     25 OG        188.5800  156.6600  233.3000 O.3       1 SER1        0.0000 
     26 OG        189.2500  155.7900  236.0900 O.3       1 SER1        0.0000 
     27 OG        190.5900  154.3800  236.9400 O.3       1 SER1        0.0000 
     28 OG        189.5800  155.3500  237.4800 O.3       1 SER1        0.0000 
     29 OG        188.9700  158.2500  235.3100 O.3       1 SER1        0.0000 
     30 OG        189.3100  157.8100  236.7100 O.3       1 SER1        0.0000 
     31 N         186.0600  152.6200  235.8700 N.am      2 ALA2        0.0000 
     32 N         185.0500  153.6000  236.4100 N.am      2 ALA2        0.0000 
     33 N         185.3900  153.1600  237.8100 N.am      2 ALA2        0.0000 
     34 N         185.7300  152.7200  239.2100 N.am      2 ALA2        0.0000 
     35 N         183.0600  155.2100  242.2400 N.am      2 ALA2        0.0000 
     36 N         187.4600  153.2400  237.3400 N.am      2 ALA2        0.0000 
     37 N         182.7800  157.6700  241.4600 N.am      2 ALA2        0.0000 
     38 N         184.1200  156.2600  242.3100 N.am      2 ALA2        0.0000 
     39 N         183.1200  157.2400  242.8600 N.am      2 ALA2        0.0000 
     40 N         186.5100  156.5800  233.7700 N.am      2 ALA2        0.0000 
     41 N         184.1800  158.2900  242.9300 N.am      2 ALA2        0.0000 
     42 N         183.1800  159.2700  243.4700 N.am      2 ALA2        0.0000 
     43 N         185.5200  156.8800  243.7800 N.am      2 ALA2        0.0000 
     44 N         184.5200  157.8600  244.3200 N.am      2 ALA2        0.0000 
     45 O         183.5700  161.1900  240.7600 O.2       2 ALA2        0.0000 
     46 OD1       184.4400  156.5000  234.2400 O.co2     3 ASP3        0.0000 
     47 OD1       183.4400  157.4700  234.7900 O.co2     3 ASP3        0.0000 
     48 OD1       184.7800  156.0600  235.6400 O.co2     3 ASP3        0.0000 
     49 OD1       183.7800  157.0300  236.1800 O.co2     3 ASP3        0.0000 
     50 OD1       184.1100  156.6000  237.5800 O.co2     3 ASP3        0.0000 
     51 OD1       185.5100  157.5500  234.3200 O.co2     3 ASP3        0.0000 
     52 OD1       185.8400  157.1100  235.7100 O.co2     3 ASP3        0.0000 
     53 OD1       186.1800  156.6800  237.1100 O.co2     3 ASP3        0.0000 
     54 OD1       183.1700  159.6000  238.7400 O.co2     3 ASP3        0.0000 
     55 OD1       185.5100  157.2200  239.0500 O.co2     3 ASP3        0.0000 
     56 OD1       184.5100  158.1900  239.5900 O.co2     3 ASP3        0.0000 
     57 OD1       183.5100  159.1600  240.1400 O.co2     3 ASP3        0.0000 
     58 OD1       187.8500  154.8300  239.3500 O.co2     3 ASP3        0.0000 
     59 OD1       187.5700  157.6300  233.8400 O.co2     3 ASP3        0.0000 
     60 OD1       186.9100  158.1700  235.7800 O.co2     3 ASP3        0.0000 
     61 OD1       187.2400  157.7300  237.1800 O.co2     3 ASP3        0.0000 
     62 OD1       186.5800  158.2700  239.1200 O.co2     3 ASP3        0.0000 
     63 OD1       189.9200  154.9100  238.8800 O.co2     3 ASP3        0.0000 
     64 OD1       188.9200  155.8900  239.4200 O.co2     3 ASP3        0.0000 
     65 OD1       187.9200  156.8600  239.9700 O.co2     3 ASP3        0.0000 
     66 OD1       188.2500  156.4300  241.3700 O.co2     3 ASP3        0.0000 
     67 OD1       187.2500  157.4000  241.9100 O.co2     3 ASP3        0.0000 
     68 OD1       188.3100  158.7900  237.2500 O.co2     3 ASP3        0.0000 
     69 OD1       188.6400  158.3500  238.6500 O.co2     3 ASP3        0.0000 
     70 OD1       188.9800  157.9200  240.0400 O.co2     3 ASP3        0.0000 
     71 NZ        182.9900  153.1800  241.6200 N.4       4 LYS4        0.0000 
     72 NZ        181.9900  154.1500  242.1600 N.4       4 LYS4        0.0000 
     73 CZ        182.3100  154.3900  234.1000 C.ar      5 PHE5        0.0000 
     74 CZ        182.3200  154.0500  238.8300 C.ar      5 PHE5        0.0000 
     75 CZ        182.6600  153.6200  240.2200 C.ar      5 PHE5        0.0000 
     76 CZ        181.6500  154.5900  240.7700 C.ar      5 PHE5        0.0000 
     77 CZ        183.0400  155.8800  232.7700 C.ar      5 PHE5        0.0000 
     78 CZ        182.7200  155.6400  240.8400 C.ar      5 PHE5        0.0000 
     79 CZ        190.3100  156.8400  236.1600 C.ar      5 PHE5        0.0000 
     80 CZ        189.6500  157.3800  238.1000 C.ar      5 PHE5        0.0000 
     81 CZ        190.3700  158.8700  236.7800 C.ar      5 PHE5        0.0000 
     82 CA        182.6500  153.9500  235.4900 C.3       6 GLY6        0.0000 
     83 CA        183.3200  153.0800  238.2800 C.3       6 GLY6        0.0000 
     84 CA        184.6600  151.6700  239.1300 C.3       6 GLY6        0.0000 
     85 CA        183.6600  152.6400  239.6800 C.3       6 GLY6        0.0000 
     86 CA        184.0400  154.9000  232.2300 C.3       6 GLY6        0.0000 
     87 CA        184.0500  154.5700  236.9600 C.3       6 GLY6        0.0000 
     88 CA        184.3900  154.1300  238.3600 C.3       6 GLY6        0.0000 
     89 CA        184.7200  153.7000  239.7500 C.3       6 GLY6        0.0000 
     90 CA        185.0600  153.2600  241.1500 C.3       6 GLY6        0.0000 
     91 CA        184.0600  154.2400  241.6900 C.3       6 GLY6        0.0000 
     92 CA        185.1100  155.9600  232.3000 C.3       6 GLY6        0.0000 
     93 CA        184.1100  156.9300  232.8500 C.3       6 GLY6        0.0000 
     94 CA        186.4500  154.5500  233.1500 C.3       6 GLY6        0.0000 
     95 CA        185.4400  155.5200  233.7000 C.3       6 GLY6        0.0000 
     96 CA        186.7800  154.1100  234.5500 C.3       6 GLY6        0.0000 
     97 CA        187.1200  153.6800  235.9400 C.3       6 GLY6        0.0000 
     98 CA        186.7900  153.7800  239.2800 C.3       6 GLY6        0.0000 
     99 CA        185.7900  154.7500  239.8200 C.3       6 GLY6        0.0000 
    100 CA        185.1200  155.2900  241.7700 C.3       6 GLY6        0.0000 
    101 CA        187.8500  155.1700  234.6200 C.3       6 GLY6        0.0000 
    102 CA        188.1800  154.7300  236.0100 C.3       6 GLY6        0.0000 
    103 CA        182.5100  160.1400  240.6800 C.3       6 GLY6        0.0000 
    104 CA        188.1900  154.4000  240.7500 C.3       6 GLY6        0.0000 
    105 CA        187.1900  155.3700  241.2900 C.3       6 GLY6        0.0000 
    106 CA        186.1900  156.3400  241.8400 C.3       6 GLY6        0.0000 
    107 CA        188.9100  156.2200  234.6900 C.3       6 GLY6        0.0000 
    108 DU        183.3800  155.4400  234.1700 H         7 CUB7        0.0000 
    109 DU        183.7200  154.6700  240.3000 H         7 CUB7        0.0000 
    110 DU        185.7800  155.0900  235.0900 H         7 CUB7        0.0000 
    111 DU        186.1200  154.6500  236.4900 H         7 CUB7        0.0000 
    112 DU        185.1200  155.6200  237.0300 H         7 CUB7        0.0000 
    113 DU        186.4500  154.2100  237.8800 H         7 CUB7        0.0000 
    114 DU        185.4500  155.1900  238.4300 H         7 CUB7        0.0000 
    115 DU        184.4500  156.1600  238.9700 H         7 CUB7        0.0000 
    116 DU        184.7900  155.7300  240.3700 H         7 CUB7        0.0000 
    117 DU        183.7800  156.7000  240.9200 H         7 CUB7        0.0000 
    118 DU        186.8500  156.1400  235.1700 H         7 CUB7        0.0000 
    119 DU        187.1800  155.7000  236.5600 H         7 CUB7        0.0000 
    120 DU        187.5200  155.2700  237.9600 H         7 CUB7        0.0000 
    121 DU        186.5200  156.2400  238.5000 H         7 CUB7        0.0000 
    122 DU        186.8500  155.8100  239.9000 H         7 CUB7        0.0000 
    123 DU        185.8500  156.7800  240.4400 H         7 CUB7        0.0000 
    124 DU        184.8500  157.7500  240.9900 H         7 CUB7        0.0000 
    125 DU        183.8500  158.7300  241.5300 H         7 CUB7        0.0000 
    126 DU        182.8400  159.7000  242.0800 H         7 CUB7        0.0000 
    127 DU        185.1800  157.3200  242.3800 H         7 CUB7        0.0000 
    128 DU        187.9100  157.1900  235.2400 H         7 CUB7        0.0000 
    129 DU        188.2500  156.7600  236.6300 H         7 CUB7        0.0000 
    130 DU        188.5800  156.3200  238.0300 H         7 CUB7        0.0000 
    131 DU        187.5800  157.3000  238.5700 H         7 CUB7        0.0000 
    132 DU        186.9100  157.8300  240.5200 H         7 CUB7        0.0000 
    133 DU        183.9100  160.7600  242.1500 H         7 CUB7        0.0000 
    134 DU        189.3700  159.8400  237.3200 H         7 CUB7        0.0000 
@<TRIPOS>BOND
@<TRIPOS>SUBSTRUCTURE
     1 SER1        1 GROUP   
     2 ALA2       31 GROUP   
     3 ASP3       46 GROUP   
     4 LYS4       71 GROUP   
     5 PHE5       73 GROUP   
     6 GLY6       82 GROUP   
     7 CUB7      108 GROUP   
@<TRIPOS>SET

