#    Name: 6ogz_1_UTP_CAVITY_N1_8
#    Modification time : Fri May 22 19:25:44 2020

@<TRIPOS>MOLECULE
6ogz_1_UTP_CAVITY_N1_8
   71     0     6     0     0
SMALL
NO_CHARGES


@<TRIPOS>ATOM
      1 OG        216.8100  159.6600  209.6900 O.3       1 SER1        0.0000 
      2 N         218.5700  149.2700  210.8600 N.am      2 ALA2        0.0000 
      3 N         219.6400  150.3200  210.9300 N.am      2 ALA2        0.0000 
      4 O         219.3600  152.7900  210.1600 O.2       2 ALA2        0.0000 
      5 O         219.7000  152.3500  211.5500 O.2       2 ALA2        0.0000 
      6 O         216.4100  158.0700  207.6800 O.2       2 ALA2        0.0000 
      7 O         217.7500  156.6600  208.5300 O.2       2 ALA2        0.0000 
      8 O         216.7500  157.6300  209.0700 O.2       2 ALA2        0.0000 
      9 O         220.7600  153.4100  211.6200 O.2       2 ALA2        0.0000 
     10 OD1       213.0400  148.4900  210.3400 O.co2     3 ASP3        0.0000 
     11 OD1       213.7700  149.9800  209.0100 O.co2     3 ASP3        0.0000 
     12 OD1       212.7700  150.9500  209.5600 O.co2     3 ASP3        0.0000 
     13 OD1       213.1000  150.5200  210.9600 O.co2     3 ASP3        0.0000 
     14 OD1       214.1700  151.5700  211.0300 O.co2     3 ASP3        0.0000 
     15 OD1       215.5100  150.1600  211.8800 O.co2     3 ASP3        0.0000 
     16 OD1       216.8400  148.7500  212.7300 O.co2     3 ASP3        0.0000 
     17 OD1       215.9000  152.0900  209.1600 O.co2     3 ASP3        0.0000 
     18 OD1       214.9000  153.0600  209.7100 O.co2     3 ASP3        0.0000 
     19 OD1       216.2300  151.6500  210.5600 O.co2     3 ASP3        0.0000 
     20 OD1       215.2300  152.6200  211.1000 O.co2     3 ASP3        0.0000 
     21 OD1       216.5700  151.2200  211.9500 O.co2     3 ASP3        0.0000 
     22 OD1       217.9100  149.8100  212.8000 O.co2     3 ASP3        0.0000 
     23 OD1       216.9600  153.1400  209.2300 O.co2     3 ASP3        0.0000 
     24 OD1       215.9600  154.1100  209.7800 O.co2     3 ASP3        0.0000 
     25 OD1       214.9600  155.0900  210.3200 O.co2     3 ASP3        0.0000 
     26 OD1       217.3000  152.7100  210.6300 O.co2     3 ASP3        0.0000 
     27 OD1       217.6300  152.2700  212.0200 O.co2     3 ASP3        0.0000 
     28 OD1       218.9700  150.8600  212.8700 O.co2     3 ASP3        0.0000 
     29 OD1       217.9700  151.8300  213.4200 O.co2     3 ASP3        0.0000 
     30 OD1       217.6900  154.6300  207.9100 O.co2     3 ASP3        0.0000 
     31 OD1       216.6900  155.6100  208.4600 O.co2     3 ASP3        0.0000 
     32 OD1       215.6900  156.5800  209.0000 O.co2     3 ASP3        0.0000 
     33 OD1       214.6800  157.5500  209.5500 O.co2     3 ASP3        0.0000 
     34 OD1       217.0200  155.1700  209.8500 O.co2     3 ASP3        0.0000 
     35 OD1       216.0200  156.1400  210.4000 O.co2     3 ASP3        0.0000 
     36 OD1       215.0200  157.1200  210.9400 O.co2     3 ASP3        0.0000 
     37 OD1       218.3600  153.7600  210.7000 O.co2     3 ASP3        0.0000 
     38 OD1       218.7000  153.3200  212.1000 O.co2     3 ASP3        0.0000 
     39 OD1       219.0300  152.8900  213.4900 O.co2     3 ASP3        0.0000 
     40 OD1       215.4100  159.0400  208.2200 O.co2     3 ASP3        0.0000 
     41 OD1       215.7500  158.6100  209.6200 O.co2     3 ASP3        0.0000 
     42 OD1       214.7500  159.5800  210.1700 O.co2     3 ASP3        0.0000 
     43 OD1       217.0900  157.2000  210.4700 O.co2     3 ASP3        0.0000 
     44 NZ        214.7700  149.0000  208.4700 N.4       4 LYS4        0.0000 
     45 NZ        215.1100  148.5700  209.8600 N.4       4 LYS4        0.0000 
     46 NZ        215.8400  150.0600  208.5400 N.4       4 LYS4        0.0000 
     47 NZ        214.8300  151.0300  209.0900 N.4       4 LYS4        0.0000 
     48 NZ        216.1700  149.6200  209.9400 N.4       4 LYS4        0.0000 
     49 NZ        217.5100  148.2100  210.7900 N.4       4 LYS4        0.0000 
     50 NZ        218.2400  149.7000  209.4600 N.4       4 LYS4        0.0000 
     51 NZ        217.2400  150.6800  210.0100 N.4       4 LYS4        0.0000 
     52 NZ        218.3000  151.7300  210.0800 N.4       4 LYS4        0.0000 
     53 NZ        218.0900  156.2200  209.9200 N.4       4 LYS4        0.0000 
     54 NZ        219.4300  154.8100  210.7700 N.4       4 LYS4        0.0000 
     55 NZ        219.7600  154.3800  212.1700 N.4       4 LYS4        0.0000 
     56 CA        214.4400  149.1100  211.8000 C.3       5 GLY6        0.0000 
     57 CA        213.4400  150.0800  212.3500 C.3       5 GLY6        0.0000 
     58 CA        214.5000  151.1300  212.4200 C.3       5 GLY6        0.0000 
     59 CA        216.9000  151.1100  208.6100 C.3       5 GLY6        0.0000 
     60 CA        217.9600  152.1700  208.6900 C.3       5 GLY6        0.0000 
     61 CA        219.0300  153.2200  208.7600 C.3       5 GLY6        0.0000 
     62 CA        218.0300  154.2000  209.3100 C.3       5 GLY6        0.0000 
     63 CA        220.0400  151.9100  212.9500 C.3       5 GLY6        0.0000 
     64 CA        219.0900  155.2500  209.3800 C.3       5 GLY6        0.0000 
     65 CA        216.0800  158.1700  211.0200 C.3       5 GLY6        0.0000 
     66 CA        218.1500  158.2500  210.5400 C.3       5 GLY6        0.0000 
     67 DU        214.1100  149.5400  210.4100 H         6 CUB7        0.0000 
     68 DU        215.1700  150.6000  210.4800 H         6 CUB7        0.0000 
     69 DU        216.5100  149.1900  211.3300 H         6 CUB7        0.0000 
     70 DU        217.5700  150.2400  211.4000 H         6 CUB7        0.0000 
     71 DU        218.6400  151.3000  211.4800 H         6 CUB7        0.0000 
@<TRIPOS>BOND
@<TRIPOS>SUBSTRUCTURE
     1 SER1        1 GROUP   
     2 ALA2        2 GROUP   
     3 ASP3       10 GROUP   
     4 LYS4       44 GROUP   
     5 GLY6       56 GROUP   
     6 CUB7       67 GROUP   
@<TRIPOS>SET

