#    Name: 5zmf_1_ANP_CAVITY_N1_6
#    Modification time : Fri May 22 19:31:54 2020

@<TRIPOS>MOLECULE
5zmf_1_ANP_CAVITY_N1_6
   12     0     4     0     0
SMALL
NO_CHARGES


@<TRIPOS>ATOM
      1 OG         37.8900   19.5600  -34.0300 O.3       1 SER1        0.0000 
      2 O          38.7800   22.7300  -34.6900 O.2       2 ALA2        0.0000 
      3 O          37.2900   22.0000  -33.3600 O.2       2 ALA2        0.0000 
      4 CA         39.6300   22.6800  -37.1500 C.3       3 GLY6        0.0000 
      5 CA         38.2800   23.1600  -36.7100 C.3       3 GLY6        0.0000 
      6 CA         42.2200   20.5500  -37.1200 C.3       3 GLY6        0.0000 
      7 CA         40.8600   21.0200  -36.6900 C.3       3 GLY6        0.0000 
      8 DU         39.5000   21.4900  -36.2500 H         4 CUB7        0.0000 
      9 DU         38.1500   21.9600  -35.8200 H         4 CUB7        0.0000 
     10 DU         39.3700   20.2900  -35.3600 H         4 CUB7        0.0000 
     11 DU         38.0200   20.7600  -34.9200 H         4 CUB7        0.0000 
     12 DU         40.1300   22.2600  -35.1300 H         4 CUB7        0.0000 
@<TRIPOS>BOND
@<TRIPOS>SUBSTRUCTURE
     1 SER1        1 GROUP   
     2 ALA2        2 GROUP   
     3 GLY6        4 GROUP   
     4 CUB7        8 GROUP   
@<TRIPOS>SET

