#    Name: 5zmf_2_ANP
#    Modification time : Fri May 22 19:32:04 2020

@<TRIPOS>MOLECULE
5zmf_2_ANP
   31    33     1     0     1
SMALL
NO_CHARGES


@<TRIPOS>ATOM
      1 PG         23.8430   16.2820  -25.8390 P.3       1 ANP803      0.0000 
      2 O1G        23.3290   14.9350  -25.5050 O.co2     1 ANP803      0.0000 
      3 O2G        22.9500   17.3960  -25.0960 O.co2     1 ANP803      0.0000 
      4 O3G        25.3730   16.4080  -25.3540 O.co2     1 ANP803      0.0000 
      5 PB         24.4150   15.3210  -28.6560 P.3       1 ANP803      0.0000 
      6 O1B        25.0380   15.9930  -29.8180 O.co2     1 ANP803      0.0000 
      7 O2B        25.5240   14.4480  -27.8820 O.co2     1 ANP803      0.0000 
      8 N3B        23.7570   16.5250  -27.5700 N.3       1 ANP803      0.0000 
      9 PA         21.7590   14.9440  -29.4450 P.3       1 ANP803      0.0000 
     10 O1A        20.9900   13.9280  -30.2560 O.co2     1 ANP803      0.0000 
     11 O2A        21.1960   15.4460  -28.1370 O.co2     1 ANP803      0.0000 
     12 O3A        23.2320   14.3550  -29.1660 O.3       1 ANP803      0.0000 
     13 O5'        22.0600   16.2150  -30.3850 O.3       1 ANP803      0.0000 
     14 C5'        22.2920   16.0440  -31.7810 C.3       1 ANP803      0.0000 
     15 C4'        21.9010   17.3170  -32.5210 C.3       1 ANP803      0.0000 
     16 O4'        22.6220   17.3990  -33.7540 O.3       1 ANP803      0.0000 
     17 C3'        20.4160   17.3300  -32.8490 C.3       1 ANP803      0.0000 
     18 O3'        19.7930   18.4700  -32.2510 O.3       1 ANP803      0.0000 
     19 C2'        20.3140   17.4140  -34.3580 C.3       1 ANP803      0.0000 
     20 O2'        19.6220   18.6080  -34.7370 O.3       1 ANP803      0.0000 
     21 C1'        21.7420   17.4520  -34.8800 C.3       1 ANP803      0.0000 
     22 N9         21.9840   16.2800  -35.7590 N.pl3     1 ANP803      0.0000 
     23 C8         22.2730   15.0320  -35.3450 C.2       1 ANP803      0.0000 
     24 N7         22.4370   14.1920  -36.3990 N.2       1 ANP803      0.0000 
     25 C5         22.2500   14.9100  -37.5210 C.ar      1 ANP803      0.0000 
     26 C6         22.2760   14.6410  -38.9790 C.ar      1 ANP803      0.0000 
     27 N6         22.5430   13.4020  -39.4580 N.pl3     1 ANP803      0.0000 
     28 N1         22.0260   15.6740  -39.8130 N.ar      1 ANP803      0.0000 
     29 C2         21.7600   16.9100  -39.3500 C.ar      1 ANP803      0.0000 
     30 N3         21.7190   17.2250  -38.0430 N.ar      1 ANP803      0.0000 
     31 C4         21.9520   16.2860  -37.0950 C.ar      1 ANP803      0.0000 
@<TRIPOS>BOND
     1    1    2 ar   
     2    1    3 ar   
     3    1    4 ar   
     4    1    8 1    
     5    5    6 ar   
     6    5    7 ar   
     7    5    8 1    
     8    5   12 1    
     9    9   10 ar   
    10    9   11 ar   
    11    9   12 1    
    12    9   13 1    
    13   13   14 1    
    14   14   15 1    
    15   15   16 1    
    16   15   17 1    
    17   16   21 1    
    18   17   18 1    
    19   17   19 1    
    20   19   20 1    
    21   19   21 1    
    22   21   22 1    
    23   22   23 1    
    24   22   31 1    
    25   23   24 2    
    26   24   25 1    
    27   25   26 ar   
    28   25   31 ar   
    29   26   27 1    
    30   26   28 ar   
    31   28   29 ar   
    32   29   30 ar   
    33   30   31 ar   
@<TRIPOS>SUBSTRUCTURE
     1 ANP803      1 GROUP   
@<TRIPOS>SET
ATOM$ORANGE STATIC     ATOMS   COLORGROUP SYSTEM 
20 14 14 15 15 17 17 19 19 21 21 23 23 25 25 26 26 29 \
29 31 31 

