#    Name: 5zmf_1_ANP
#    Modification time : Fri May 22 19:31:53 2020

@<TRIPOS>MOLECULE
5zmf_1_ANP
   31    33     1     0     1
SMALL
NO_CHARGES


@<TRIPOS>ATOM
      1 PG         39.5040   19.3290  -24.1950 P.3       1 ANP801      0.0000 
      2 O1G        39.2660   18.4050  -25.3550 O.co2     1 ANP801      0.0000 
      3 O2G        40.8610   18.9150  -23.4910 O.co2     1 ANP801      0.0000 
      4 O3G        38.3220   19.1340  -23.1560 O.co2     1 ANP801      0.0000 
      5 PB         40.9800   21.6790  -25.1910 P.3       1 ANP801      0.0000 
      6 O1B        42.1700   20.7580  -24.7600 O.co2     1 ANP801      0.0000 
      7 O2B        41.2020   22.9940  -24.5190 O.co2     1 ANP801      0.0000 
      8 N3B        39.5110   20.9780  -24.6820 N.3       1 ANP801      0.0000 
      9 PA         42.3300   21.9980  -27.6440 P.3       1 ANP801      0.0000 
     10 O1A        42.7590   23.4050  -27.8850 O.co2     1 ANP801      0.0000 
     11 O2A        43.4260   21.1420  -26.9940 O.co2     1 ANP801      0.0000 
     12 O3A        40.9860   21.9330  -26.7480 O.3       1 ANP801      0.0000 
     13 O5'        41.9360   21.3530  -29.0510 O.3       1 ANP801      0.0000 
     14 C5'        42.6060   20.1870  -29.6190 C.3       1 ANP801      0.0000 
     15 C4'        42.9550   20.4990  -31.0530 C.3       1 ANP801      0.0000 
     16 O4'        42.1050   21.5640  -31.5460 O.3       1 ANP801      0.0000 
     17 C3'        44.4070   20.9440  -31.2570 C.3       1 ANP801      0.0000 
     18 O3'        45.1170   20.1780  -32.2270 O.3       1 ANP801      0.0000 
     19 C2'        44.3010   22.4330  -31.6280 C.3       1 ANP801      0.0000 
     20 O2'        45.3060   22.7180  -32.5960 O.3       1 ANP801      0.0000 
     21 C1'        42.8790   22.5570  -32.1930 C.3       1 ANP801      0.0000 
     22 N9         42.2300   23.8730  -31.9890 N.pl3     1 ANP801      0.0000 
     23 C8         41.3890   24.2190  -30.9640 C.2       1 ANP801      0.0000 
     24 N7         40.9450   25.4560  -31.0240 N.2       1 ANP801      0.0000 
     25 C5         41.5330   25.9550  -32.1730 C.ar      1 ANP801      0.0000 
     26 C6         41.4690   27.2230  -32.8060 C.ar      1 ANP801      0.0000 
     27 N6         40.7490   28.2490  -32.3370 N.pl3     1 ANP801      0.0000 
     28 N1         42.1890   27.4010  -33.9400 N.ar      1 ANP801      0.0000 
     29 C2         42.9020   26.3750  -34.4180 C.ar      1 ANP801      0.0000 
     30 N3         43.0390   25.1440  -33.9130 N.ar      1 ANP801      0.0000 
     31 C4         42.3290   24.9990  -32.7910 C.ar      1 ANP801      0.0000 
@<TRIPOS>BOND
     1    1    2 ar   
     2    1    3 ar   
     3    1    4 ar   
     4    1    8 1    
     5    5    6 ar   
     6    5    7 ar   
     7    5    8 1    
     8    5   12 1    
     9    9   10 ar   
    10    9   11 ar   
    11    9   12 1    
    12    9   13 1    
    13   13   14 1    
    14   14   15 1    
    15   15   16 1    
    16   15   17 1    
    17   16   21 1    
    18   17   18 1    
    19   17   19 1    
    20   19   20 1    
    21   19   21 1    
    22   21   22 1    
    23   22   23 1    
    24   22   31 1    
    25   23   24 2    
    26   24   25 1    
    27   25   26 ar   
    28   25   31 ar   
    29   26   27 1    
    30   26   28 ar   
    31   28   29 ar   
    32   29   30 ar   
    33   30   31 ar   
@<TRIPOS>SUBSTRUCTURE
     1 ANP801      1 GROUP   
@<TRIPOS>SET
ATOM$ORANGE STATIC     ATOMS   COLORGROUP SYSTEM 
20 14 14 15 15 17 17 19 19 21 21 23 23 25 25 26 26 29 \
29 31 31 

