#    Name: 5zmf_1_ANP_CAVITY_N1_8
#    Modification time : Fri May 22 19:31:54 2020

@<TRIPOS>MOLECULE
5zmf_1_ANP_CAVITY_N1_8
   43     0     6     0     0
SMALL
NO_CHARGES


@<TRIPOS>ATOM
      1 OG         37.3900   19.9900  -36.0400 O.3       1 SER1        0.0000 
      2 OG         37.2600   18.7900  -35.1500 O.3       1 SER1        0.0000 
      3 OG         35.9100   19.2600  -34.7100 O.3       1 SER1        0.0000 
      4 OG         37.8900   19.5600  -34.0300 O.3       1 SER1        0.0000 
      5 N          34.3400   25.7600  -36.3000 N.am      2 ALA2        0.0000 
      6 N          35.4300   22.9000  -34.9500 N.am      2 ALA2        0.0000 
      7 N          34.0800   23.3700  -34.5100 N.am      2 ALA2        0.0000 
      8 N          36.6600   21.2300  -34.4900 N.am      2 ALA2        0.0000 
      9 N          35.3100   21.7000  -34.0500 N.am      2 ALA2        0.0000 
     10 N          35.1800   20.5000  -33.1600 N.am      2 ALA2        0.0000 
     11 N          33.4800   25.8100  -33.8500 N.am      2 ALA2        0.0000 
     12 O          38.7800   22.7300  -34.6900 O.2       2 ALA2        0.0000 
     13 N          33.3500   24.6100  -32.9500 N.am      2 ALA2        0.0000 
     14 O          37.2900   22.0000  -33.3600 O.2       2 ALA2        0.0000 
     15 N          34.4500   21.7500  -31.6000 N.am      2 ALA2        0.0000 
     16 NZ         40.2300   20.2500  -37.8100 N.4       3 LYS4        0.0000 
     17 NZ         38.8800   20.7200  -37.3700 N.4       3 LYS4        0.0000 
     18 NZ         40.1000   19.0500  -36.9200 N.4       3 LYS4        0.0000 
     19 NZ         38.7500   19.5200  -36.4800 N.4       3 LYS4        0.0000 
     20 NZ         39.9700   17.8500  -36.0200 N.4       3 LYS4        0.0000 
     21 CZ         36.2900   22.8500  -37.4000 C.ar      4 PHE5        0.0000 
     22 CA         37.7800   23.5800  -38.7300 C.3       5 GLY6        0.0000 
     23 CA         36.4200   24.0500  -38.2900 C.3       5 GLY6        0.0000 
     24 CA         40.3600   21.4400  -38.7000 C.3       5 GLY6        0.0000 
     25 CA         39.0000   21.9100  -38.2700 C.3       5 GLY6        0.0000 
     26 CA         37.6500   22.3800  -37.8300 C.3       5 GLY6        0.0000 
     27 CA         35.7800   18.0700  -33.8200 C.3       5 GLY6        0.0000 
     28 CA         39.6300   22.6800  -37.1500 C.3       5 GLY6        0.0000 
     29 CA         38.2800   23.1600  -36.7100 C.3       5 GLY6        0.0000 
     30 CA         35.5600   24.1000  -35.8400 C.3       5 GLY6        0.0000 
     31 CA         42.2200   20.5500  -37.1200 C.3       5 GLY6        0.0000 
     32 CA         40.8600   21.0200  -36.6900 C.3       5 GLY6        0.0000 
     33 CA         36.7900   22.4300  -35.3800 C.3       5 GLY6        0.0000 
     34 DU         37.5200   21.1900  -36.9400 H         6 CUB7        0.0000 
     35 DU         36.1600   21.6600  -36.5000 H         6 CUB7        0.0000 
     36 DU         36.0300   20.4600  -35.6100 H         6 CUB7        0.0000 
     37 DU         39.5000   21.4900  -36.2500 H         6 CUB7        0.0000 
     38 DU         38.1500   21.9600  -35.8200 H         6 CUB7        0.0000 
     39 DU         39.3700   20.2900  -35.3600 H         6 CUB7        0.0000 
     40 DU         38.0200   20.7600  -34.9200 H         6 CUB7        0.0000 
     41 DU         36.5300   20.0300  -33.5900 H         6 CUB7        0.0000 
     42 DU         35.0500   19.3100  -32.2600 H         6 CUB7        0.0000 
     43 DU         40.1300   22.2600  -35.1300 H         6 CUB7        0.0000 
@<TRIPOS>BOND
@<TRIPOS>SUBSTRUCTURE
     1 SER1        1 GROUP   
     2 ALA2        5 GROUP   
     3 LYS4       16 GROUP   
     4 PHE5       21 GROUP   
     5 GLY6       22 GROUP   
     6 CUB7       34 GROUP   
@<TRIPOS>SET

