#    Name: 6i55_4_FMN
#    Modification time : Fri May 22 19:26:59 2020

@<TRIPOS>MOLECULE
6i55_4_FMN
   31    33     1     0     1
SMALL
NO_CHARGES


@<TRIPOS>ATOM
      1 N1         36.9320   61.6600   54.3790 N.2       1 FMN602      0.0000 
      2 C2         36.2100   60.4420   54.7210 C.2       1 FMN602      0.0000 
      3 O2         35.6850   59.8500   53.8490 O.2       1 FMN602      0.0000 
      4 N3         36.1610   59.9850   56.1390 N.am      1 FMN602      0.0000 
      5 C4         36.8010   60.7530   57.1850 C.2       1 FMN602      0.0000 
      6 O4         36.7540   60.4010   58.3160 O.2       1 FMN602      0.0000 
      7 C4A        37.5480   61.9960   56.7980 C.2       1 FMN602      0.0000 
      8 N5         38.2290   62.7730   57.8020 N.2       1 FMN602      0.0000 
      9 C5A        38.9320   64.0330   57.4120 C.ar      1 FMN602      0.0000 
     10 C6         39.5760   64.8000   58.4040 C.ar      1 FMN602      0.0000 
     11 C7         40.2380   65.9760   58.0370 C.ar      1 FMN602      0.0000 
     12 C7M        40.8550   66.5910   59.3020 C.3       1 FMN602      0.0000 
     13 C8         40.2650   66.3770   56.6870 C.ar      1 FMN602      0.0000 
     14 C8M        40.9880   67.6560   56.2840 C.3       1 FMN602      0.0000 
     15 C9         39.6190   65.6170   55.6980 C.ar      1 FMN602      0.0000 
     16 C9A        38.9510   64.4410   56.0650 C.ar      1 FMN602      0.0000 
     17 N10        38.2680   63.6260   55.0200 N.pl3     1 FMN602      0.0000 
     18 C10        37.5790   62.4280   55.4130 C.2       1 FMN602      0.0000 
     19 C1'        38.2740   64.0060   53.6110 C.3       1 FMN602      0.0000 
     20 C2'        37.1910   65.0450   53.3470 C.3       1 FMN602      0.0000 
     21 O2'        35.9290   64.4460   53.5370 O.3       1 FMN602      0.0000 
     22 C3'        37.2970   65.5520   51.9070 C.3       1 FMN602      0.0000 
     23 O3'        37.0540   64.4710   51.0390 O.3       1 FMN602      0.0000 
     24 C4'        38.6910   66.1420   51.6380 C.3       1 FMN602      0.0000 
     25 O4'        39.0710   67.0120   52.6690 O.3       1 FMN602      0.0000 
     26 C5'        38.6950   66.8980   50.3000 C.3       1 FMN602      0.0000 
     27 O5'        37.7320   67.9180   50.2890 O.3       1 FMN602      0.0000 
     28 P          38.2020   69.4930   50.4850 P.3       1 FMN602      0.0000 
     29 O1P        38.7410   69.6910   51.8890 O.co2     1 FMN602      0.0000 
     30 O2P        36.9610   70.3440   50.3020 O.co2     1 FMN602      0.0000 
     31 O3P        39.2240   69.7980   49.4160 O.co2     1 FMN602      0.0000 
@<TRIPOS>BOND
     1    1    2 1    
     2    1   18 2    
     3    2    3 2    
     4    2    4 am   
     5    4    5 am   
     6    5    6 2    
     7    5    7 1    
     8    7    8 2    
     9    7   18 1    
    10    8    9 1    
    11    9   10 ar   
    12    9   16 ar   
    13   10   11 ar   
    14   11   12 1    
    15   11   13 ar   
    16   13   14 1    
    17   13   15 ar   
    18   15   16 ar   
    19   16   17 1    
    20   17   18 1    
    21   17   19 1    
    22   19   20 1    
    23   20   21 1    
    24   20   22 1    
    25   22   23 1    
    26   22   24 1    
    27   24   25 1    
    28   24   26 1    
    29   26   27 1    
    30   27   28 1    
    31   28   29 ar   
    32   28   30 ar   
    33   28   31 ar   
@<TRIPOS>SUBSTRUCTURE
     1 FMN602      1 GROUP   
@<TRIPOS>SET
ATOM$ORANGE STATIC     ATOMS   COLORGROUP SYSTEM 
34 2 2 5 5 7 7 9 9 10 10 11 11 12 12 13 13 14 \
14 15 15 16 16 18 18 19 19 20 20 22 22 24 24 26 26 

