#    Name: 6i55_4_FMN_CAVITY_N1_6
#    Modification time : Fri May 22 19:27:01 2020

@<TRIPOS>MOLECULE
6i55_4_FMN_CAVITY_N1_6
   72     0     6     0     0
SMALL
NO_CHARGES


@<TRIPOS>ATOM
      1 OG         36.7800   59.6400   56.0100 O.3       1 SER1        0.0000 
      2 OG         40.3600   59.2100   56.7500 O.3       1 SER1        0.0000 
      3 OG         41.2700   59.6500   55.6400 O.3       1 SER1        0.0000 
      4 OG         37.3600   60.7000   56.9000 O.3       1 SER1        0.0000 
      5 OG         37.8600   65.3300   51.0200 O.3       1 SER1        0.0000 
      6 OG         38.7700   65.7700   49.9100 O.3       1 SER1        0.0000 
      7 OG         40.9300   60.2800   57.6400 O.3       1 SER1        0.0000 
      8 OG         41.7000   62.1100   54.9300 O.3       1 SER1        0.0000 
      9 OG         38.4300   66.4000   51.9000 O.3       1 SER1        0.0000 
     10 OG         37.3800   67.3600   51.4200 O.3       1 SER1        0.0000 
     11 OG         38.2900   67.7900   50.3100 O.3       1 SER1        0.0000 
     12 OG         39.1400   66.0600   54.3800 O.3       1 SER1        0.0000 
     13 OG         39.0000   67.4600   52.7900 O.3       1 SER1        0.0000 
     14 OG         38.9400   65.3000   57.9700 O.3       1 SER1        0.0000 
     15 OG         39.7100   67.1300   55.2700 O.3       1 SER1        0.0000 
     16 OG         39.5700   68.5300   53.6800 O.3       1 SER1        0.0000 
     17 O          37.8300   58.6700   56.4900 O.2       2 ALA2        0.0000 
     18 O          38.7400   59.1100   55.3800 O.2       2 ALA2        0.0000 
     19 O          37.6900   60.0700   54.9000 O.2       2 ALA2        0.0000 
     20 N          40.2200   60.6100   55.1600 N.am      2 ALA2        0.0000 
     21 N          39.1800   61.5700   54.6800 N.am      2 ALA2        0.0000 
     22 N          37.2200   62.1000   55.3100 N.am      2 ALA2        0.0000 
     23 N          38.1300   62.5300   54.2000 N.am      2 ALA2        0.0000 
     24 O          41.8400   60.7200   56.5300 O.2       2 ALA2        0.0000 
     25 N          40.8000   61.6800   56.0500 N.am      2 ALA2        0.0000 
     26 N          37.7900   63.1600   56.2000 N.am      2 ALA2        0.0000 
     27 N          38.7000   63.6000   55.0900 N.am      2 ALA2        0.0000 
     28 N          37.6600   64.5600   54.6100 N.am      2 ALA2        0.0000 
     29 N          36.6100   65.5200   54.1300 N.am      2 ALA2        0.0000 
     30 N          41.5000   61.3500   58.5200 N.am      2 ALA2        0.0000 
     31 N          40.4600   62.3100   58.0400 N.am      2 ALA2        0.0000 
     32 O          40.3200   63.7000   56.4500 O.2       2 ALA2        0.0000 
     33 N          38.3600   64.2300   57.0800 N.am      2 ALA2        0.0000 
     34 O          39.2700   64.6700   55.9700 O.2       2 ALA2        0.0000 
     35 O          40.1800   65.1000   54.8600 O.2       2 ALA2        0.0000 
     36 N          41.0300   63.3700   58.9300 N.am      2 ALA2        0.0000 
     37 N          39.9800   64.3300   58.4500 N.am      2 ALA2        0.0000 
     38 O          39.8500   65.7300   56.8600 O.2       2 ALA2        0.0000 
     39 O          40.7600   66.1700   55.7500 O.2       2 ALA2        0.0000 
     40 N          40.5600   65.4000   59.3400 N.am      2 ALA2        0.0000 
     41 OD1        36.6500   61.0300   54.4200 O.co2     3 ASP3        0.0000 
     42 OD1        37.0800   63.5000   53.7200 O.co2     3 ASP3        0.0000 
     43 OD1        37.9900   63.9300   52.6100 O.co2     3 ASP3        0.0000 
     44 OD1        36.0400   64.4600   53.2400 O.co2     3 ASP3        0.0000 
     45 OD1        36.9500   64.8900   52.1300 O.co2     3 ASP3        0.0000 
     46 OD1        40.0200   59.8400   58.7500 O.co2     3 ASP3        0.0000 
     47 OD1        38.9800   60.8100   58.2700 O.co2     3 ASP3        0.0000 
     48 OD1        39.8900   61.2400   57.1600 O.co2     3 ASP3        0.0000 
     49 OD1        37.9300   61.7700   57.7900 O.co2     3 ASP3        0.0000 
     50 OD1        38.5000   62.8300   58.6700 O.co2     3 ASP3        0.0000 
     51 CZ         38.4000   59.7400   57.3800 C.ar      4 PHE5        0.0000 
     52 CZ         39.3100   60.1800   56.2700 C.ar      4 PHE5        0.0000 
     53 CZ         37.5200   65.9600   53.0100 C.ar      4 PHE5        0.0000 
     54 CZ         38.2300   65.6300   55.4900 C.ar      4 PHE5        0.0000 
     55 CZ         38.0900   67.0300   53.9000 C.ar      4 PHE5        0.0000 
     56 CZ         40.2800   68.1900   56.1600 C.ar      4 PHE5        0.0000 
     57 CA         36.3100   61.6600   56.4200 C.3       5 GLY6        0.0000 
     58 CA         38.9000   64.3700   51.5000 C.3       5 GLY6        0.0000 
     59 CA         40.6600   63.0700   54.4500 C.3       5 GLY6        0.0000 
     60 CA         39.6100   64.0400   53.9700 C.3       5 GLY6        0.0000 
     61 CA         38.5700   65.0000   53.4900 C.3       5 GLY6        0.0000 
     62 CA         39.4800   65.4300   52.3800 C.3       5 GLY6        0.0000 
     63 CA         39.3400   66.8300   50.7900 C.3       5 GLY6        0.0000 
     64 CA         36.4700   66.9200   52.5300 C.3       5 GLY6        0.0000 
     65 CA         37.9600   68.4200   52.3100 C.3       5 GLY6        0.0000 
     66 CA         38.8700   68.8600   51.2000 C.3       5 GLY6        0.0000 
     67 CA         40.1200   62.9400   60.0400 C.3       5 GLY6        0.0000 
     68 CA         39.0700   63.9000   59.5600 C.3       5 GLY6        0.0000 
     69 DU         38.2700   61.1400   55.7900 H         6 CUB7        0.0000 
     70 DU         38.8400   62.2000   56.6800 H         6 CUB7        0.0000 
     71 DU         39.7500   62.6400   55.5700 H         6 CUB7        0.0000 
     72 DU         39.4100   63.2700   57.5600 H         6 CUB7        0.0000 
@<TRIPOS>BOND
@<TRIPOS>SUBSTRUCTURE
     1 SER1        1 GROUP   
     2 ALA2       17 GROUP   
     3 ASP3       41 GROUP   
     4 PHE5       51 GROUP   
     5 GLY6       57 GROUP   
     6 CUB7       69 GROUP   
@<TRIPOS>SET

