#    Name: 6emm_1_SAL_CAVITY_N1_4
#    Modification time : Fri May 22 19:24:26 2020

@<TRIPOS>MOLECULE
6emm_1_SAL_CAVITY_N1_4
   44     0     5     0     0
SMALL
NO_CHARGES


@<TRIPOS>ATOM
      1 OG         11.2500  122.4100   55.0700 O.3       1 SER1        0.0000 
      2 OG         11.8200  123.0200   53.1300 O.3       1 SER1        0.0000 
      3 N          12.2600  121.9400   54.0700 N.am      2 ALA2        0.0000 
      4 N          13.7100  121.7900   55.6000 N.am      2 ALA2        0.0000 
      5 N          13.2800  122.8700   54.6600 N.am      2 ALA2        0.0000 
      6 N          14.2900  122.4000   53.6500 N.am      2 ALA2        0.0000 
      7 O          15.2900  121.9300   52.6500 O.2       2 ALA2        0.0000 
      8 O          16.3000  121.4500   51.6400 O.2       2 ALA2        0.0000 
      9 O          13.8500  123.4800   52.7100 O.2       2 ALA2        0.0000 
     10 N          13.7300  123.1800   57.2000 N.am      2 ALA2        0.0000 
     11 N          14.3000  123.7900   55.2500 N.am      2 ALA2        0.0000 
     12 N          15.3100  123.3200   54.2400 N.am      2 ALA2        0.0000 
     13 N          16.3200  122.8500   53.2400 N.am      2 ALA2        0.0000 
     14 O          15.8800  123.9300   52.3000 O.2       2 ALA2        0.0000 
     15 O          16.8900  123.4600   51.2900 O.2       2 ALA2        0.0000 
     16 N          15.3200  124.7200   55.8400 N.am      2 ALA2        0.0000 
     17 N          16.3300  124.2500   54.8400 N.am      2 ALA2        0.0000 
     18 N          17.3400  123.7800   53.8300 N.am      2 ALA2        0.0000 
     19 O          17.9100  124.3900   51.8800 O.2       2 ALA2        0.0000 
     20 CZ         12.8200  121.1600   50.5200 C.ar      3 PHE5        0.0000 
     21 CZ         14.2700  121.0000   52.0600 C.ar      3 PHE5        0.0000 
     22 CZ         15.2800  120.5300   51.0500 C.ar      3 PHE5        0.0000 
     23 CZ         12.8300  122.5500   52.1200 C.ar      3 PHE5        0.0000 
     24 CZ         13.8400  122.0800   51.1100 C.ar      3 PHE5        0.0000 
     25 CZ         14.8500  121.6100   50.1100 C.ar      3 PHE5        0.0000 
     26 CZ         14.8600  123.0100   51.7100 C.ar      3 PHE5        0.0000 
     27 CZ         17.3200  122.3800   52.2300 C.ar      3 PHE5        0.0000 
     28 CZ         18.3300  121.9100   51.2300 C.ar      3 PHE5        0.0000 
     29 CZ         16.4500  124.5400   50.3500 C.ar      3 PHE5        0.0000 
     30 CZ         18.3500  123.3100   52.8200 C.ar      3 PHE5        0.0000 
     31 CA         14.2600  119.6000   50.4600 C.3       4 GLY6        0.0000 
     32 CA         13.8200  120.6800   49.5200 C.3       4 GLY6        0.0000 
     33 CA         11.7000  122.7300   57.6100 C.3       4 GLY6        0.0000 
     34 CA         12.7000  122.2600   56.6100 C.3       4 GLY6        0.0000 
     35 CA         11.2600  123.8100   56.6700 C.3       4 GLY6        0.0000 
     36 CA         12.2700  123.3400   55.6700 C.3       4 GLY6        0.0000 
     37 CA         12.8400  123.9500   53.7200 C.3       4 GLY6        0.0000 
     38 CA         15.8700  122.5400   50.7000 C.3       4 GLY6        0.0000 
     39 CA         12.2800  124.7300   57.2600 C.3       4 GLY6        0.0000 
     40 CA         13.2900  124.2600   56.2600 C.3       4 GLY6        0.0000 
     41 CA         17.9000  122.9900   50.2800 C.3       4 GLY6        0.0000 
     42 CA         14.3100  125.1900   56.8500 C.3       4 GLY6        0.0000 
     43 DU         13.2500  120.0700   51.4700 H         5 CUB7        0.0000 
     44 DU         13.2600  121.4700   53.0600 H         5 CUB7        0.0000 
@<TRIPOS>BOND
@<TRIPOS>SUBSTRUCTURE
     1 SER1        1 GROUP   
     2 ALA2        3 GROUP   
     3 PHE5       20 GROUP   
     4 GLY6       31 GROUP   
     5 CUB7       43 GROUP   
@<TRIPOS>SET

