#    Name: 6emm_1_SAL
#    Modification time : Fri May 22 19:24:25 2020

@<TRIPOS>MOLECULE
6emm_1_SAL
   10    10     1     0     0
SMALL
NO_CHARGES


@<TRIPOS>ATOM
      1 C1'        12.0990  122.5260   53.1440 C.2       1 SAL303      0.0000 
      2 O1'        10.9150  122.7520   52.6220 O.co2     1 SAL303      0.0000 
      3 O2'        12.4460  122.8530   54.2840 O.co2     1 SAL303      0.0000 
      4 C1         13.0330  121.8030   52.2250 C.ar      1 SAL303      0.0000 
      5 C2         14.4320  121.8750   52.4140 C.ar      1 SAL303      0.0000 
      6 C3         15.2660  121.1810   51.5450 C.ar      1 SAL303      0.0000 
      7 C4         14.7200  120.4270   50.5190 C.ar      1 SAL303      0.0000 
      8 C5         13.3560  120.3570   50.3300 C.ar      1 SAL303      0.0000 
      9 C6         12.5030  121.0440   51.1740 C.ar      1 SAL303      0.0000 
     10 O2         15.0010  122.6000   53.4210 O.3       1 SAL303      0.0000 
@<TRIPOS>BOND
     1    1    2 ar   
     2    1    3 ar   
     3    1    4 1    
     4    4    5 ar   
     5    4    9 ar   
     6    5    6 ar   
     7    5   10 1    
     8    6    7 ar   
     9    7    8 ar   
    10    8    9 ar   
@<TRIPOS>SUBSTRUCTURE
     1 SAL303      1 GROUP   
@<TRIPOS>SET

