#    Name: 6emm_1_SAL_CAVITY_N1_6
#    Modification time : Fri May 22 19:24:26 2020

@<TRIPOS>MOLECULE
6emm_1_SAL_CAVITY_N1_6
   94     0     5     0     0
SMALL
NO_CHARGES


@<TRIPOS>ATOM
      1 OG         11.2500  122.4100   55.0700 O.3       1 SER1        0.0000 
      2 OG         11.8200  123.0200   53.1300 O.3       1 SER1        0.0000 
      3 N          12.2600  121.9400   54.0700 N.am      2 ALA2        0.0000 
      4 N          13.7100  121.7900   55.6000 N.am      2 ALA2        0.0000 
      5 N          13.2800  122.8700   54.6600 N.am      2 ALA2        0.0000 
      6 N          14.2900  122.4000   53.6500 N.am      2 ALA2        0.0000 
      7 O          15.2900  121.9300   52.6500 O.2       2 ALA2        0.0000 
      8 O          16.3000  121.4500   51.6400 O.2       2 ALA2        0.0000 
      9 O          13.8500  123.4800   52.7100 O.2       2 ALA2        0.0000 
     10 N          13.7300  123.1800   57.2000 N.am      2 ALA2        0.0000 
     11 N          14.3000  123.7900   55.2500 N.am      2 ALA2        0.0000 
     12 N          15.3100  123.3200   54.2400 N.am      2 ALA2        0.0000 
     13 N          16.3200  122.8500   53.2400 N.am      2 ALA2        0.0000 
     14 O          15.8800  123.9300   52.3000 O.2       2 ALA2        0.0000 
     15 O          16.8900  123.4600   51.2900 O.2       2 ALA2        0.0000 
     16 O          14.1700  123.5000   59.7400 O.2       2 ALA2        0.0000 
     17 O          13.7400  124.5800   58.8000 O.2       2 ALA2        0.0000 
     18 O          14.7500  124.1100   57.7900 O.2       2 ALA2        0.0000 
     19 N          15.3200  124.7200   55.8400 N.am      2 ALA2        0.0000 
     20 N          16.3300  124.2500   54.8400 N.am      2 ALA2        0.0000 
     21 N          17.3400  123.7800   53.8300 N.am      2 ALA2        0.0000 
     22 N          11.8600  127.2100   57.9200 N.am      2 ALA2        0.0000 
     23 O          17.9100  124.3900   51.8800 O.2       2 ALA2        0.0000 
     24 O          17.4700  125.4700   50.9400 O.2       2 ALA2        0.0000 
     25 O          15.7700  125.0300   58.3800 O.2       2 ALA2        0.0000 
     26 O          16.7800  124.5600   57.3800 O.2       2 ALA2        0.0000 
     27 N          17.7900  124.0900   56.3700 N.am      2 ALA2        0.0000 
     28 O          16.3400  125.6500   56.4300 O.2       2 ALA2        0.0000 
     29 O          17.3500  125.1700   55.4300 O.2       2 ALA2        0.0000 
     30 N          13.8900  127.6700   57.5000 N.am      2 ALA2        0.0000 
     31 O          15.9100  126.7300   55.4900 O.2       2 ALA2        0.0000 
     32 O          16.9100  126.2600   54.4800 O.2       2 ALA2        0.0000 
     33 O          17.9200  125.7900   53.4800 O.2       2 ALA2        0.0000 
     34 O          17.4900  126.8700   52.5300 O.2       2 ALA2        0.0000 
     35 O          18.5000  126.4000   51.5300 O.2       2 ALA2        0.0000 
     36 O          17.9400  127.1800   55.0700 O.2       2 ALA2        0.0000 
     37 CZ         12.8200  121.1600   50.5200 C.ar      3 PHE5        0.0000 
     38 CZ         14.2700  121.0000   52.0600 C.ar      3 PHE5        0.0000 
     39 CZ         15.2800  120.5300   51.0500 C.ar      3 PHE5        0.0000 
     40 CZ         12.8300  122.5500   52.1200 C.ar      3 PHE5        0.0000 
     41 CZ         13.8400  122.0800   51.1100 C.ar      3 PHE5        0.0000 
     42 CZ         14.8500  121.6100   50.1100 C.ar      3 PHE5        0.0000 
     43 CZ         14.8600  123.0100   51.7100 C.ar      3 PHE5        0.0000 
     44 CZ         17.3200  122.3800   52.2300 C.ar      3 PHE5        0.0000 
     45 CZ         18.3300  121.9100   51.2300 C.ar      3 PHE5        0.0000 
     46 CZ         16.4500  124.5400   50.3500 C.ar      3 PHE5        0.0000 
     47 CZ         17.0300  125.1600   48.4000 C.ar      3 PHE5        0.0000 
     48 CZ         18.3500  123.3100   52.8200 C.ar      3 PHE5        0.0000 
     49 CZ         19.3500  122.8400   51.8200 C.ar      3 PHE5        0.0000 
     50 CZ         17.0400  126.5500   49.9900 C.ar      3 PHE5        0.0000 
     51 CZ         18.7900  123.6200   55.3600 C.ar      3 PHE5        0.0000 
     52 CZ         18.3600  124.7000   54.4200 C.ar      3 PHE5        0.0000 
     53 CZ         19.3700  124.2300   53.4100 C.ar      3 PHE5        0.0000 
     54 CZ         20.3800  123.7600   52.4100 C.ar      3 PHE5        0.0000 
     55 CZ         19.8200  124.5500   55.9500 C.ar      3 PHE5        0.0000 
     56 CA         14.2600  119.6000   50.4600 C.3       4 GLY6        0.0000 
     57 CA         13.8200  120.6800   49.5200 C.3       4 GLY6        0.0000 
     58 CA         11.7000  122.7300   57.6100 C.3       4 GLY6        0.0000 
     59 CA         12.7000  122.2600   56.6100 C.3       4 GLY6        0.0000 
     60 CA         11.2600  123.8100   56.6700 C.3       4 GLY6        0.0000 
     61 CA         12.2700  123.3400   55.6700 C.3       4 GLY6        0.0000 
     62 CA         12.8400  123.9500   53.7200 C.3       4 GLY6        0.0000 
     63 CA         15.8700  122.5400   50.7000 C.3       4 GLY6        0.0000 
     64 CA         12.7200  123.6500   58.2000 C.3       4 GLY6        0.0000 
     65 CA         11.2700  125.2100   58.2700 C.3       4 GLY6        0.0000 
     66 CA         12.2800  124.7300   57.2600 C.3       4 GLY6        0.0000 
     67 CA         13.2900  124.2600   56.2600 C.3       4 GLY6        0.0000 
     68 CA         17.9000  122.9900   50.2800 C.3       4 GLY6        0.0000 
     69 CA         17.4600  124.0700   49.3400 C.3       4 GLY6        0.0000 
     70 CA         18.4700  123.6000   48.3400 C.3       4 GLY6        0.0000 
     71 CA         12.7300  125.0500   59.8000 C.3       4 GLY6        0.0000 
     72 CA         12.2900  126.1300   58.8600 C.3       4 GLY6        0.0000 
     73 CA         13.3000  125.6600   57.8500 C.3       4 GLY6        0.0000 
     74 CA         14.3100  125.1900   56.8500 C.3       4 GLY6        0.0000 
     75 CA         20.3600  122.3700   50.8100 C.3       4 GLY6        0.0000 
     76 CA         12.8700  126.7400   56.9100 C.3       4 GLY6        0.0000 
     77 CA         13.8800  126.2700   55.9000 C.3       4 GLY6        0.0000 
     78 CA         19.9300  123.4500   49.8700 C.3       4 GLY6        0.0000 
     79 CA         19.4900  124.5300   48.9300 C.3       4 GLY6        0.0000 
     80 CA         14.9000  127.2000   56.4900 C.3       4 GLY6        0.0000 
     81 DU         13.2500  120.0700   51.4700 H         5 CUB7        0.0000 
     82 DU         13.2600  121.4700   53.0600 H         5 CUB7        0.0000 
     83 DU         18.9200  123.9200   50.8800 H         5 CUB7        0.0000 
     84 DU         18.4800  125.0000   49.9300 H         5 CUB7        0.0000 
     85 DU         14.3200  126.5900   58.4400 H         5 CUB7        0.0000 
     86 DU         15.3300  126.1200   57.4400 H         5 CUB7        0.0000 
     87 DU         18.9300  125.3200   52.4700 H         5 CUB7        0.0000 
     88 DU         19.9400  124.8400   51.4700 H         5 CUB7        0.0000 
     89 DU         18.8100  125.0200   56.9600 H         5 CUB7        0.0000 
     90 DU         17.3600  126.5700   57.0200 H         5 CUB7        0.0000 
     91 DU         18.3700  126.1000   56.0200 H         5 CUB7        0.0000 
     92 DU         19.3800  125.6300   55.0100 H         5 CUB7        0.0000 
     93 DU         20.3900  125.1600   54.0100 H         5 CUB7        0.0000 
     94 DU         18.9400  126.7100   54.0700 H         5 CUB7        0.0000 
@<TRIPOS>BOND
@<TRIPOS>SUBSTRUCTURE
     1 SER1        1 GROUP   
     2 ALA2        3 GROUP   
     3 PHE5       37 GROUP   
     4 GLY6       56 GROUP   
     5 CUB7       81 GROUP   
@<TRIPOS>SET

