#    Name: 6f4l_1_NTM_CAVITY_N1_4
#    Modification time : Fri May 22 19:25:17 2020

@<TRIPOS>MOLECULE
6f4l_1_NTM_CAVITY_N1_4
   40     0     6     0     0
SMALL
NO_CHARGES


@<TRIPOS>ATOM
      1 OG          9.8500   -0.3700   12.0700 O.3       1 SER1        0.0000 
      2 OG          9.5800    1.5900   11.2900 O.3       1 SER1        0.0000 
      3 OG         10.5300    0.4600   11.0200 O.3       1 SER1        0.0000 
      4 OG         12.4300   -1.8000   10.4700 O.3       1 SER1        0.0000 
      5 OG          9.8400    1.3000   13.3700 O.3       1 SER1        0.0000 
      6 OG         10.7900    0.1700   13.1000 O.3       1 SER1        0.0000 
      7 OG         11.7400   -0.9600   12.8300 O.3       1 SER1        0.0000 
      8 OG         11.4700    1.0000   12.0500 O.3       1 SER1        0.0000 
      9 OG         12.4200   -0.1300   11.7800 O.3       1 SER1        0.0000 
     10 OG         12.6800   -0.4100   13.8600 O.3       1 SER1        0.0000 
     11 N          14.5900   -4.3400   12.0100 N.am      2 ALA2        0.0000 
     12 O          10.7800    1.8400   14.4100 O.2       2 ALA2        0.0000 
     13 N          15.5300   -3.8000   13.0400 N.am      2 ALA2        0.0000 
     14 NZ         13.3700   -1.2600   11.5000 N.4       3 LYS4        0.0000 
     15 NZ         14.3200   -2.3900   11.2300 N.4       3 LYS4        0.0000 
     16 NZ         15.2700   -3.5100   10.9600 N.4       3 LYS4        0.0000 
     17 NZ         14.3100   -0.7200   12.5400 N.4       3 LYS4        0.0000 
     18 NZ         15.2600   -1.8400   12.2700 N.4       3 LYS4        0.0000 
     19 CZ         12.0200   -4.5800   12.3000 C.ar      4 PHE5        0.0000 
     20 CZ         10.8000   -1.5000   11.7900 C.ar      4 PHE5        0.0000 
     21 CZ         12.7000   -3.7500   11.2500 C.ar      4 PHE5        0.0000 
     22 CZ         13.3800   -2.9300   10.2000 C.ar      4 PHE5        0.0000 
     23 CZ         12.6900   -2.0800   12.5500 C.ar      4 PHE5        0.0000 
     24 CZ         13.9000   -3.5000   14.3700 C.ar      4 PHE5        0.0000 
     25 CZ         14.8400   -2.9600   15.4000 C.ar      4 PHE5        0.0000 
     26 CZ         13.6200    0.1300   14.9000 C.ar      4 PHE5        0.0000 
     27 CA         11.0600   -1.7800   13.8800 C.3       5 GLY6        0.0000 
     28 CA         12.0100   -2.9100   13.6100 C.3       5 GLY6        0.0000 
     29 CA         10.5200    2.1300   12.3200 C.3       5 GLY6        0.0000 
     30 CA         10.1000    1.0200   15.4600 C.3       5 GLY6        0.0000 
     31 CA         11.0500   -0.1100   15.1900 C.3       5 GLY6        0.0000 
     32 CA         12.9500   -2.3700   14.6400 C.3       5 GLY6        0.0000 
     33 CA         13.6300   -1.5400   13.5900 C.3       5 GLY6        0.0000 
     34 CA         14.5800   -2.6700   13.3200 C.3       5 GLY6        0.0000 
     35 CA         11.9900    0.4300   16.2200 C.3       5 GLY6        0.0000 
     36 CA         12.6700    1.2500   15.1700 C.3       5 GLY6        0.0000 
     37 CA         14.5700   -1.0000   14.6300 C.3       5 GLY6        0.0000 
     38 DU         12.9600   -4.0400   13.3300 H         6 CUB7        0.0000 
     39 DU         13.6400   -3.2100   12.2800 H         6 CUB7        0.0000 
     40 DU         11.7300    0.7100   14.1400 H         6 CUB7        0.0000 
@<TRIPOS>BOND
@<TRIPOS>SUBSTRUCTURE
     1 SER1        1 GROUP   
     2 ALA2       11 GROUP   
     3 LYS4       14 GROUP   
     4 PHE5       19 GROUP   
     5 GLY6       27 GROUP   
     6 CUB7       38 GROUP   
@<TRIPOS>SET

