#    Name: 6f4l_1_NTM
#    Modification time : Fri May 22 19:25:16 2020

@<TRIPOS>MOLECULE
6f4l_1_NTM
   12    12     1     0     0
SMALL
NO_CHARGES


@<TRIPOS>ATOM
      1 N1         11.6400    0.1450   10.9210 N.ar      1 NTM302      0.0000 
      2 C2         10.9560    0.8880   11.8080 C.ar      1 NTM302      0.0000 
      3 C3         11.1990    0.6670   13.2590 C.ar      1 NTM302      0.0000 
      4 C4         12.1100   -0.2990   13.6110 C.ar      1 NTM302      0.0000 
      5 C5         12.7630   -1.0290   12.6350 C.ar      1 NTM302      0.0000 
      6 C6         12.5090   -0.7880   11.3000 C.ar      1 NTM302      0.0000 
      7 C7          9.9910    1.8950   11.2640 C.2       1 NTM302      0.0000 
      8 O1          9.9330    2.0680   10.0380 O.co2     1 NTM302      0.0000 
      9 O2          9.2590    2.5370   12.0260 O.co2     1 NTM302      0.0000 
     10 C8         10.5180    1.4100   14.3480 C.2       1 NTM302      0.0000 
     11 O3         10.9840    2.4650   14.7170 O.co2     1 NTM302      0.0000 
     12 O4          9.5160    0.9560   14.8930 O.co2     1 NTM302      0.0000 
@<TRIPOS>BOND
     1    1    2 ar   
     2    1    6 ar   
     3    2    3 ar   
     4    2    7 1    
     5    3    4 ar   
     6    3   10 1    
     7    4    5 ar   
     8    5    6 ar   
     9    7    8 ar   
    10    7    9 ar   
    11   10   11 ar   
    12   10   12 ar   
@<TRIPOS>SUBSTRUCTURE
     1 NTM302      1 GROUP   
@<TRIPOS>SET

