#    Name: 6f7l_2_FAD
#    Modification time : Fri May 22 19:31:21 2020

@<TRIPOS>MOLECULE
6f7l_2_FAD
   53    58     1     0     1
SMALL
NO_CHARGES


@<TRIPOS>ATOM
      1 PA         51.8530  117.0020   18.5290 P.3       1 FAD501      0.0000 
      2 O1A        51.6510  118.4760   18.3820 O.co2     1 FAD501      0.0000 
      3 O2A        50.8460  116.3330   19.4180 O.co2     1 FAD501      0.0000 
      4 O5B        53.3480  116.6000   18.9490 O.3       1 FAD501      0.0000 
      5 C5B        54.4510  117.4660   18.7480 C.3       1 FAD501      0.0000 
      6 C4B        55.3430  117.3230   19.9680 C.3       1 FAD501      0.0000 
      7 O4B        56.6350  117.8570   19.6770 O.3       1 FAD501      0.0000 
      8 C3B        54.7960  118.0380   21.2100 C.3       1 FAD501      0.0000 
      9 O3B        54.6840  117.1460   22.3380 O.3       1 FAD501      0.0000 
     10 C2B        55.8090  119.1530   21.4230 C.3       1 FAD501      0.0000 
     11 O2B        55.9450  119.6070   22.7530 O.3       1 FAD501      0.0000 
     12 C1B        57.0640  118.5020   20.8710 C.3       1 FAD501      0.0000 
     13 N9A        58.1800  119.4430   20.6370 N.pl3     1 FAD501      0.0000 
     14 C8A        58.0600  120.7350   20.2490 C.2       1 FAD501      0.0000 
     15 N7A        59.2570  121.3010   20.1750 N.2       1 FAD501      0.0000 
     16 C5A        60.1430  120.3610   20.5070 C.ar      1 FAD501      0.0000 
     17 C6A        61.6050  120.3330   20.6350 C.ar      1 FAD501      0.0000 
     18 N6A        62.2780  121.4570   20.3430 N.pl3     1 FAD501      0.0000 
     19 N1A        62.2070  119.1540   21.0070 N.ar      1 FAD501      0.0000 
     20 C2A        61.4700  118.0500   21.2780 C.ar      1 FAD501      0.0000 
     21 N3A        60.1130  118.0120   21.2030 N.ar      1 FAD501      0.0000 
     22 C4A        59.4420  119.1220   20.8160 C.ar      1 FAD501      0.0000 
     23 N1         42.8750  114.7780   16.3160 N.2       1 FAD501      0.0000 
     24 C2         41.8930  113.7820   16.4070 C.2       1 FAD501      0.0000 
     25 O2         42.0050  112.7460   15.7090 O.2       1 FAD501      0.0000 
     26 N3         40.8380  113.9020   17.2420 N.am      1 FAD501      0.0000 
     27 C4         40.6200  114.9720   17.9960 C.2       1 FAD501      0.0000 
     28 O4         39.6290  115.0390   18.7930 O.2       1 FAD501      0.0000 
     29 C4X        41.5850  116.0920   17.9120 C.2       1 FAD501      0.0000 
     30 N5         41.4110  117.2020   18.6350 N.2       1 FAD501      0.0000 
     31 C5X        42.3400  118.1700   18.6440 C.ar      1 FAD501      0.0000 
     32 C6         42.1650  119.2970   19.4250 C.ar      1 FAD501      0.0000 
     33 C7         43.1030  120.2880   19.4510 C.ar      1 FAD501      0.0000 
     34 C7M        42.8900  121.5060   20.2840 C.3       1 FAD501      0.0000 
     35 C8         44.3160  120.1600   18.6070 C.ar      1 FAD501      0.0000 
     36 C8M        45.3830  121.1930   18.6680 C.3       1 FAD501      0.0000 
     37 C9         44.5080  119.0310   17.8350 C.ar      1 FAD501      0.0000 
     38 C9A        43.5550  118.0320   17.7930 C.ar      1 FAD501      0.0000 
     39 N10        43.7050  116.8630   16.9980 N.pl3     1 FAD501      0.0000 
     40 C10        42.7280  115.8950   17.0400 C.2       1 FAD501      0.0000 
     41 C1'        44.7630  116.7190   16.0140 C.3       1 FAD501      0.0000 
     42 C2'        46.1190  116.4340   16.4930 C.3       1 FAD501      0.0000 
     43 O2'        47.0460  117.3580   15.9820 O.3       1 FAD501      0.0000 
     44 C3'        46.4890  115.0540   16.0590 C.3       1 FAD501      0.0000 
     45 O3'        45.4190  114.1840   16.4300 O.3       1 FAD501      0.0000 
     46 C4'        47.7320  114.5520   16.7460 C.3       1 FAD501      0.0000 
     47 O4'        47.5580  114.6510   18.1600 O.3       1 FAD501      0.0000 
     48 C5'        48.9850  115.2950   16.3260 C.3       1 FAD501      0.0000 
     49 O5'        50.0600  114.3830   16.5510 O.3       1 FAD501      0.0000 
     50 P          51.5820  114.8790   16.5720 P.3       1 FAD501      0.0000 
     51 O1P        52.4400  113.9450   17.3280 O.co2     1 FAD501      0.0000 
     52 O2P        52.0510  114.8560   15.1420 O.co2     1 FAD501      0.0000 
     53 O3P        51.5820  116.3630   17.1120 O.3       1 FAD501      0.0000 
@<TRIPOS>BOND
     1    1    2 ar   
     2    1    3 ar   
     3    1    4 1    
     4    1   53 1    
     5    4    5 1    
     6    5    6 1    
     7    6    7 1    
     8    6    8 1    
     9    7   12 1    
    10    8    9 1    
    11    8   10 1    
    12   10   11 1    
    13   10   12 1    
    14   12   13 1    
    15   13   14 1    
    16   13   22 1    
    17   14   15 2    
    18   15   16 1    
    19   16   17 ar   
    20   16   22 ar   
    21   17   18 1    
    22   17   19 ar   
    23   19   20 ar   
    24   20   21 ar   
    25   21   22 ar   
    26   23   24 1    
    27   23   40 2    
    28   24   25 2    
    29   24   26 am   
    30   26   27 am   
    31   27   28 2    
    32   27   29 1    
    33   29   30 2    
    34   29   40 1    
    35   30   31 1    
    36   31   32 ar   
    37   31   38 ar   
    38   32   33 ar   
    39   33   34 1    
    40   33   35 ar   
    41   35   36 1    
    42   35   37 ar   
    43   37   38 ar   
    44   38   39 1    
    45   39   40 1    
    46   39   41 1    
    47   41   42 1    
    48   42   43 1    
    49   42   44 1    
    50   44   45 1    
    51   44   46 1    
    52   46   47 1    
    53   46   48 1    
    54   48   49 1    
    55   49   50 1    
    56   50   51 ar   
    57   50   52 ar   
    58   50   53 1    
@<TRIPOS>SUBSTRUCTURE
     1 FAD501      1 GROUP   
@<TRIPOS>SET
ATOM$ORANGE STATIC     ATOMS   COLORGROUP SYSTEM 
54 5 5 6 6 8 8 10 10 12 12 14 14 16 16 17 17 20 \
20 22 22 24 24 27 27 29 29 31 31 32 32 33 33 34 34 35 \
35 36 36 37 37 38 38 40 40 41 41 42 42 44 44 46 46 48 \
48 

