#    Name: 6f7l_1_FAD
#    Modification time : Fri May 22 19:31:14 2020

@<TRIPOS>MOLECULE
6f7l_1_FAD
   53    58     1     0     1
SMALL
NO_CHARGES


@<TRIPOS>ATOM
      1 PA          4.8250   93.3080   -2.3380 P.3       1 FAD501      0.0000 
      2 O1A         4.2420   92.5870   -1.1520 O.co2     1 FAD501      0.0000 
      3 O2A         4.8830   94.7860   -2.2110 O.co2     1 FAD501      0.0000 
      4 O5B         4.0120   93.0260   -3.6900 O.3       1 FAD501      0.0000 
      5 C5B         3.5110   91.7620   -4.0940 C.3       1 FAD501      0.0000 
      6 C4B         2.2910   92.0810   -4.9550 C.3       1 FAD501      0.0000 
      7 O4B         1.6810   90.8660   -5.4130 O.3       1 FAD501      0.0000 
      8 C3B         1.2150   92.8890   -4.2290 C.3       1 FAD501      0.0000 
      9 O3B         0.9630   94.1570   -4.8520 O.3       1 FAD501      0.0000 
     10 C2B         0.0120   91.9720   -4.2020 C.3       1 FAD501      0.0000 
     11 O2B        -1.2320   92.6840   -4.1810 O.3       1 FAD501      0.0000 
     12 C1B         0.2760   91.1080   -5.4240 C.3       1 FAD501      0.0000 
     13 N9A        -0.4330   89.8050   -5.4870 N.pl3     1 FAD501      0.0000 
     14 C8A        -0.7270   88.9670   -4.4650 C.2       1 FAD501      0.0000 
     15 N7A        -1.3740   87.8750   -4.8630 N.2       1 FAD501      0.0000 
     16 C5A        -1.5030   88.0200   -6.2050 C.ar      1 FAD501      0.0000 
     17 C6A        -2.1110   87.2400   -7.3050 C.ar      1 FAD501      0.0000 
     18 N6A        -2.6850   86.0610   -7.0680 N.pl3     1 FAD501      0.0000 
     19 N1A        -2.0420   87.7200   -8.5420 N.ar      1 FAD501      0.0000 
     20 C2A        -1.4500   88.8920   -8.8360 C.ar      1 FAD501      0.0000 
     21 N3A        -0.8740   89.6770   -7.9050 N.ar      1 FAD501      0.0000 
     22 C4A        -0.8770   89.2850   -6.6090 C.ar      1 FAD501      0.0000 
     23 N1         11.0500   98.3190    2.8490 N.2       1 FAD501      0.0000 
     24 C2         11.8990   99.3590    2.8450 C.2       1 FAD501      0.0000 
     25 O2         12.9100   99.2560    2.0920 O.2       1 FAD501      0.0000 
     26 N3         11.6450  100.4840    3.5780 N.am      1 FAD501      0.0000 
     27 C4         10.5830  100.6460    4.3580 C.2       1 FAD501      0.0000 
     28 O4         10.3760  101.7330    5.0170 O.2       1 FAD501      0.0000 
     29 C4X         9.6370   99.5150    4.4060 C.2       1 FAD501      0.0000 
     30 N5          8.5390   99.5620    5.1620 N.2       1 FAD501      0.0000 
     31 C5X         7.6730   98.5280    5.1600 C.ar      1 FAD501      0.0000 
     32 C6          6.5400   98.5960    5.9540 C.ar      1 FAD501      0.0000 
     33 C7          5.6170   97.5980    5.9800 C.ar      1 FAD501      0.0000 
     34 C7M         4.4440   97.7310    6.8940 C.3       1 FAD501      0.0000 
     35 C8          5.8410   96.4110    5.1430 C.ar      1 FAD501      0.0000 
     36 C8M         4.8680   95.2750    5.1190 C.3       1 FAD501      0.0000 
     37 C9          6.9790   96.3290    4.3600 C.ar      1 FAD501      0.0000 
     38 C9A         7.9220   97.3310    4.3610 C.ar      1 FAD501      0.0000 
     39 N10         9.0660   97.2680    3.5920 N.pl3     1 FAD501      0.0000 
     40 C10         9.9410   98.3490    3.5940 C.2       1 FAD501      0.0000 
     41 C1'         9.4350   96.0780    2.8500 C.3       1 FAD501      0.0000 
     42 C2'         8.7730   95.6580    1.5750 C.3       1 FAD501      0.0000 
     43 O2'         8.5550   94.2430    1.6780 O.3       1 FAD501      0.0000 
     44 C3'         9.6570   95.9450    0.3540 C.3       1 FAD501      0.0000 
     45 O3'        10.2470   97.2490    0.4170 O.3       1 FAD501      0.0000 
     46 C4'         8.8870   95.9350   -0.9550 C.3       1 FAD501      0.0000 
     47 O4'         7.7650   96.7990   -0.8600 O.3       1 FAD501      0.0000 
     48 C5'         8.3790   94.5850   -1.3760 C.3       1 FAD501      0.0000 
     49 O5'         7.9390   94.6490   -2.7240 O.3       1 FAD501      0.0000 
     50 P           7.5080   93.2550   -3.4690 P.3       1 FAD501      0.0000 
     51 O1P         8.5630   92.1550   -3.4560 O.co2     1 FAD501      0.0000 
     52 O2P         7.1200   93.6280   -4.8700 O.co2     1 FAD501      0.0000 
     53 O3P         6.2650   92.7150   -2.6210 O.3       1 FAD501      0.0000 
@<TRIPOS>BOND
     1    1    2 ar   
     2    1    3 ar   
     3    1    4 1    
     4    1   53 1    
     5    4    5 1    
     6    5    6 1    
     7    6    7 1    
     8    6    8 1    
     9    7   12 1    
    10    8    9 1    
    11    8   10 1    
    12   10   11 1    
    13   10   12 1    
    14   12   13 1    
    15   13   14 1    
    16   13   22 1    
    17   14   15 2    
    18   15   16 1    
    19   16   17 ar   
    20   16   22 ar   
    21   17   18 1    
    22   17   19 ar   
    23   19   20 ar   
    24   20   21 ar   
    25   21   22 ar   
    26   23   24 1    
    27   23   40 2    
    28   24   25 2    
    29   24   26 am   
    30   26   27 am   
    31   27   28 2    
    32   27   29 1    
    33   29   30 2    
    34   29   40 1    
    35   30   31 1    
    36   31   32 ar   
    37   31   38 ar   
    38   32   33 ar   
    39   33   34 1    
    40   33   35 ar   
    41   35   36 1    
    42   35   37 ar   
    43   37   38 ar   
    44   38   39 1    
    45   39   40 1    
    46   39   41 1    
    47   41   42 1    
    48   42   43 1    
    49   42   44 1    
    50   44   45 1    
    51   44   46 1    
    52   46   47 1    
    53   46   48 1    
    54   48   49 1    
    55   49   50 1    
    56   50   51 ar   
    57   50   52 ar   
    58   50   53 1    
@<TRIPOS>SUBSTRUCTURE
     1 FAD501      1 GROUP   
@<TRIPOS>SET
ATOM$ORANGE STATIC     ATOMS   COLORGROUP SYSTEM 
54 5 5 6 6 8 8 10 10 12 12 14 14 16 16 17 17 20 \
20 22 22 24 24 27 27 29 29 31 31 32 32 33 33 34 34 35 \
35 36 36 37 37 38 38 40 40 41 41 42 42 44 44 46 46 48 \
48 

