#    Name: 5z6t_2_NAP
#    Modification time : Fri May 22 19:27:10 2020

@<TRIPOS>MOLECULE
5z6t_2_NAP
   48    52     1     0     1
SMALL
NO_CHARGES


@<TRIPOS>ATOM
      1 PA          5.9100   40.1240   -1.0160 P.3       1 NAP401      0.0000 
      2 O1A         5.5200   39.0930   -2.0950 O.co2     1 NAP401      0.0000 
      3 O2A         7.2800   39.8340   -0.4280 O.co2     1 NAP401      0.0000 
      4 O5B         5.8490   41.6430   -1.5470 O.3       1 NAP401      0.0000 
      5 C5B         4.8400   41.8970   -2.5280 C.3       1 NAP401      0.0000 
      6 C4B         5.1450   43.0040   -3.5310 C.3       1 NAP401      0.0000 
      7 O4B         6.0950   42.6920   -4.5450 O.3       1 NAP401      0.0000 
      8 C3B         3.8260   43.1720   -4.2560 C.3       1 NAP401      0.0000 
      9 O3B         3.2240   44.3370   -3.6850 O.3       1 NAP401      0.0000 
     10 C2B         4.1270   43.1830   -5.7490 C.3       1 NAP401      0.0000 
     11 O2B         3.6690   44.3510   -6.4340 O.3       1 NAP401      0.0000 
     12 C1B         5.6280   43.0990   -5.8300 C.3       1 NAP401      0.0000 
     13 N9A         6.1700   42.1670   -6.8600 N.pl3     1 NAP401      0.0000 
     14 C8A         5.7520   40.9570   -7.2310 C.2       1 NAP401      0.0000 
     15 N7A         6.5330   40.3890   -8.1880 N.2       1 NAP401      0.0000 
     16 C5A         7.4910   41.2740   -8.4560 C.ar      1 NAP401      0.0000 
     17 C6A         8.6230   41.3420   -9.3890 C.ar      1 NAP401      0.0000 
     18 N6A         8.8750   40.3010  -10.2120 N.pl3     1 NAP401      0.0000 
     19 N1A         9.3840   42.4710   -9.3790 N.ar      1 NAP401      0.0000 
     20 C2A         9.0930   43.5010   -8.5760 C.ar      1 NAP401      0.0000 
     21 N3A         8.0740   43.5240   -7.6860 N.ar      1 NAP401      0.0000 
     22 C4A         7.2500   42.4450   -7.5880 C.ar      1 NAP401      0.0000 
     23 O3          4.7220   40.0710    0.0620 O.3       1 NAP401      0.0000 
     24 PN          3.4370   39.0790   -0.0160 P.3       1 NAP401      0.0000 
     25 O1N         2.7120   39.8310   -1.1460 O.co2     1 NAP401      0.0000 
     26 O2N         3.6840   37.5610    0.1470 O.co2     1 NAP401      0.0000 
     27 O5D         2.8490   39.4960    1.3950 O.3       1 NAP401      0.0000 
     28 C5D         2.2860   40.7950    1.5410 C.3       1 NAP401      0.0000 
     29 C4D         1.6430   40.8300    2.9100 C.3       1 NAP401      0.0000 
     30 O4D         0.6680   39.7710    3.0530 O.3       1 NAP401      0.0000 
     31 C3D         2.7060   40.6560    3.9690 C.3       1 NAP401      0.0000 
     32 O3D         2.6160   41.7680    4.8650 O.3       1 NAP401      0.0000 
     33 C2D         2.3640   39.3480    4.6430 C.3       1 NAP401      0.0000 
     34 O2D         2.4300   39.5810    6.0390 O.3       1 NAP401      0.0000 
     35 C1D         0.9460   38.9800    4.1910 C.3       1 NAP401      0.0000 
     36 N1N         0.8130   37.5280    3.9400 N.pl3     1 NAP401      0.0000 
     37 C2N         0.5620   36.7860    5.0470 C.ar      1 NAP401      0.0000 
     38 C3N         0.4320   35.4300    4.9470 C.ar      1 NAP401      0.0000 
     39 C7N         0.1480   34.6360    6.1640 C.2       1 NAP401      0.0000 
     40 O7N         0.0220   35.1610    7.2620 O.2       1 NAP401      0.0000 
     41 N7N         0.0270   33.3220    6.0500 N.am      1 NAP401      0.0000 
     42 C4N         0.5720   34.7680    3.5890 C.ar      1 NAP401      0.0000 
     43 C5N         0.8510   35.6420    2.4600 C.ar      1 NAP401      0.0000 
     44 C6N         0.9670   37.0130    2.6950 C.ar      1 NAP401      0.0000 
     45 P2B         2.6620   44.3300   -7.7350 P.3       1 NAP401      0.0000 
     46 O1X         2.3980   45.7940   -7.9470 O.co2     1 NAP401      0.0000 
     47 O2X         3.3500   43.5680   -8.8900 O.co2     1 NAP401      0.0000 
     48 O3X         1.3720   43.7210   -7.2130 O.co2     1 NAP401      0.0000 
@<TRIPOS>BOND
     1    1    2 ar   
     2    1    3 ar   
     3    1    4 1    
     4    1   23 1    
     5    4    5 1    
     6    5    6 1    
     7    6    7 1    
     8    6    8 1    
     9    7   12 1    
    10    8    9 1    
    11    8   10 1    
    12   10   11 1    
    13   10   12 1    
    14   11   45 1    
    15   12   13 1    
    16   13   14 1    
    17   13   22 1    
    18   14   15 2    
    19   15   16 1    
    20   16   17 ar   
    21   16   22 ar   
    22   17   18 1    
    23   17   19 ar   
    24   19   20 ar   
    25   20   21 ar   
    26   21   22 ar   
    27   23   24 1    
    28   24   25 ar   
    29   24   26 ar   
    30   24   27 1    
    31   27   28 1    
    32   28   29 1    
    33   29   30 1    
    34   29   31 1    
    35   30   35 1    
    36   31   32 1    
    37   31   33 1    
    38   33   34 1    
    39   33   35 1    
    40   35   36 1    
    41   36   37 ar   
    42   36   44 ar   
    43   37   38 ar   
    44   38   39 1    
    45   38   42 ar   
    46   39   40 2    
    47   39   41 am   
    48   42   43 ar   
    49   43   44 ar   
    50   45   46 ar   
    51   45   47 ar   
    52   45   48 ar   
@<TRIPOS>SUBSTRUCTURE
     1 NAP401      1 GROUP   
@<TRIPOS>SET
ATOM$ORANGE STATIC     ATOMS   COLORGROUP SYSTEM 
42 5 5 6 6 8 8 10 10 12 12 14 14 16 16 17 17 20 \
20 22 22 28 28 29 29 31 31 33 33 35 35 37 37 38 38 39 \
39 42 42 43 43 44 44 

