#    Name: 5z6t_2_NAP_CAVITY_N1_4
#    Modification time : Fri May 22 19:27:13 2020

@<TRIPOS>MOLECULE
5z6t_2_NAP_CAVITY_N1_4
  176     0     7     0     0
SMALL
NO_CHARGES


@<TRIPOS>ATOM
      1 OG         11.2100   42.6700  -10.1400 O.3       1 SER1        0.0000 
      2 OG         -0.5100   36.4200    1.5500 O.3       1 SER1        0.0000 
      3 OG          0.8800   36.1400    1.0600 O.3       1 SER1        0.0000 
      4 OG          0.0500   36.8100    2.8900 O.3       1 SER1        0.0000 
      5 OG         -0.0800   35.3900    3.3500 O.3       1 SER1        0.0000 
      6 OG          3.0700   39.0900    0.9800 O.3       1 SER1        0.0000 
      7 OG         -0.7900   37.4800    4.7200 O.3       1 SER1        0.0000 
      8 OG         -0.9100   36.0600    5.1800 O.3       1 SER1        0.0000 
      9 OG          2.2400   39.7600    2.8100 O.3       1 SER1        0.0000 
     10 OG          3.7500   40.9000    1.8500 O.3       1 SER1        0.0000 
     11 OG          3.6300   39.4800    2.3200 O.3       1 SER1        0.0000 
     12 OG          3.5000   38.0600    2.7800 O.3       1 SER1        0.0000 
     13 OG          5.1400   40.6200    1.3600 O.3       1 SER1        0.0000 
     14 OG          2.7900   40.1500    4.1500 O.3       1 SER1        0.0000 
     15 OG          4.3000   41.2900    3.1900 O.3       1 SER1        0.0000 
     16 N           2.7500   42.9400   -6.7300 N.am      2 ALA2        0.0000 
     17 N           4.1400   42.6600   -7.2200 N.am      2 ALA2        0.0000 
     18 N           5.4100   40.9500   -7.2400 N.am      2 ALA2        0.0000 
     19 N           3.1800   41.9100   -4.9200 N.am      2 ALA2        0.0000 
     20 N           4.6900   43.0400   -5.8800 N.am      2 ALA2        0.0000 
     21 N           4.5700   41.6200   -5.4100 N.am      2 ALA2        0.0000 
     22 N           0.5800   38.5900   -1.2100 N.am      2 ALA2        0.0000 
     23 N           1.8400   36.8900   -1.2400 N.am      2 ALA2        0.0000 
     24 N           1.7200   35.4700   -0.7800 N.am      2 ALA2        0.0000 
     25 O           3.3600   38.0300   -2.1900 O.2       2 ALA2        0.0000 
     26 N           3.2300   36.6100   -1.7300 N.am      2 ALA2        0.0000 
     27 N           5.5000   46.2700   -5.4700 N.am      2 ALA2        0.0000 
     28 O           4.8700   39.1700   -3.1500 O.2       2 ALA2        0.0000 
     29 O           4.7500   37.7500   -2.6800 O.2       2 ALA2        0.0000 
     30 N           4.5300   45.5200   -3.1700 N.am      2 ALA2        0.0000 
     31 O           3.7900   37.0000   -0.3900 O.2       2 ALA2        0.0000 
     32 N           5.9200   45.2400   -3.6600 N.am      2 ALA2        0.0000 
     33 N           7.4400   46.3800   -4.6200 N.am      2 ALA2        0.0000 
     34 O           2.9500   37.6700    1.4400 O.2       2 ALA2        0.0000 
     35 N           5.0900   45.9100   -1.8300 N.am      2 ALA2        0.0000 
     36 N           6.4800   45.6300   -2.3200 N.am      2 ALA2        0.0000 
     37 N           6.3500   44.2100   -1.8600 N.am      2 ALA2        0.0000 
     38 N           6.2300   42.7900   -1.4000 N.am      2 ALA2        0.0000 
     39 N           7.8700   45.3500   -2.8100 N.am      2 ALA2        0.0000 
     40 N           7.7400   43.9300   -2.3500 N.am      2 ALA2        0.0000 
     41 O           0.3500   34.3600    5.1500 O.2       2 ALA2        0.0000 
     42 N           5.3900   43.4600    0.4300 N.am      2 ALA2        0.0000 
     43 N           5.2700   42.0400    0.9000 N.am      2 ALA2        0.0000 
     44 O          -1.3800   40.9900    5.6200 O.2       2 ALA2        0.0000 
     45 O           0.0100   40.7100    5.1300 O.2       2 ALA2        0.0000 
     46 O          -0.2400   37.8700    6.0600 O.2       2 ALA2        0.0000 
     47 O           1.5300   41.8500    4.1700 O.2       2 ALA2        0.0000 
     48 N          -0.8200   41.3800    6.9600 N.am      2 ALA2        0.0000 
     49 N          -0.9500   39.9600    7.4200 N.am      2 ALA2        0.0000 
     50 O          -1.0700   38.5400    7.8900 O.2       2 ALA2        0.0000 
     51 N           0.5700   41.1000    6.4700 N.am      2 ALA2        0.0000 
     52 O           0.4400   39.6800    6.9300 O.2       2 ALA2        0.0000 
     53 O           1.8300   39.4000    6.4400 O.2       2 ALA2        0.0000 
     54 OD1         9.3900   43.9800  -11.4500 O.co2     3 ASP3        0.0000 
     55 OD1         1.4900   44.6400   -6.7000 O.co2     3 ASP3        0.0000 
     56 OD1         3.0000   45.7800   -7.6500 O.co2     3 ASP3        0.0000 
     57 OD1         2.8800   44.3600   -7.1900 O.co2     3 ASP3        0.0000 
     58 OD1         8.4300   43.2300   -9.1500 O.co2     3 ASP3        0.0000 
     59 OD1         9.9500   44.3700  -10.1100 O.co2     3 ASP3        0.0000 
     60 OD1         9.8200   42.9500   -9.6500 O.co2     3 ASP3        0.0000 
     61 OD1         2.0400   45.0300   -5.3600 O.co2     3 ASP3        0.0000 
     62 OD1         3.4300   44.7500   -5.8500 O.co2     3 ASP3        0.0000 
     63 OD1         3.3000   43.3300   -5.3900 O.co2     3 ASP3        0.0000 
     64 OD1         4.8200   44.4700   -6.3400 O.co2     3 ASP3        0.0000 
     65 OD1         6.2100   44.1800   -6.8300 O.co2     3 ASP3        0.0000 
     66 OD1         7.7200   45.3200   -7.7900 O.co2     3 ASP3        0.0000 
     67 OD1         7.6000   43.9000   -7.3200 O.co2     3 ASP3        0.0000 
     68 OD1         9.1100   45.0400   -8.2800 O.co2     3 ASP3        0.0000 
     69 OD1         2.4700   44.0000   -3.5600 O.co2     3 ASP3        0.0000 
     70 OD1         2.3400   42.5800   -3.0900 O.co2     3 ASP3        0.0000 
     71 OD1         3.8600   43.7100   -4.0500 O.co2     3 ASP3        0.0000 
     72 OD1         6.8800   45.9900   -5.9600 O.co2     3 ASP3        0.0000 
     73 OD1         1.2600   40.4000   -0.3300 O.co2     3 ASP3        0.0000 
     74 OD1         3.0200   44.3900   -2.2200 O.co2     3 ASP3        0.0000 
     75 OD1         2.6500   40.1200   -0.8300 O.co2     3 ASP3        0.0000 
     76 OD1         4.2900   42.6800   -2.2400 O.co2     3 ASP3        0.0000 
     77 OD1         4.1600   41.2600   -1.7800 O.co2     3 ASP3        0.0000 
     78 OD1         1.8100   40.7900    1.0000 O.co2     3 ASP3        0.0000 
     79 OD1         3.2000   40.5100    0.5100 O.co2     3 ASP3        0.0000 
     80 OD1         4.8400   43.0700   -0.9100 O.co2     3 ASP3        0.0000 
     81 OD1         4.7100   41.6500   -0.4400 O.co2     3 ASP3        0.0000 
     82 OD1         2.4900   42.6000    1.8800 O.co2     3 ASP3        0.0000 
     83 OD1         3.8800   42.3200    1.3900 O.co2     3 ASP3        0.0000 
     84 NZ          9.1400   41.1400  -10.5200 N.4       4 LYS4        0.0000 
     85 NZ         10.6600   42.2800  -11.4800 N.4       4 LYS4        0.0000 
     86 CZ          6.7900   40.6700   -7.7400 C.ar      5 PHE5        0.0000 
     87 CZ          8.1800   40.3900   -8.2300 C.ar      5 PHE5        0.0000 
     88 CZ          5.9600   41.3400   -5.9100 C.ar      5 PHE5        0.0000 
     89 CZ          7.4700   42.4800   -6.8600 C.ar      5 PHE5        0.0000 
     90 CZ          8.9900   43.6200   -7.8200 C.ar      5 PHE5        0.0000 
     91 CZ          8.8600   42.2000   -7.3500 C.ar      5 PHE5        0.0000 
     92 CZ         10.5000   44.7600   -8.7700 C.ar      5 PHE5        0.0000 
     93 CZ         10.3700   43.3400   -8.3100 C.ar      5 PHE5        0.0000 
     94 CZ         10.2500   41.9200   -7.8400 C.ar      5 PHE5        0.0000 
     95 CZ          5.1200   42.0100   -4.0800 C.ar      5 PHE5        0.0000 
     96 CZ          5.0000   40.5900   -3.6100 C.ar      5 PHE5        0.0000 
     97 CZ          6.7600   44.5700   -5.4900 C.ar      5 PHE5        0.0000 
     98 CZ          6.6400   43.1500   -5.0300 C.ar      5 PHE5        0.0000 
     99 CZ          6.5100   41.7300   -4.5700 C.ar      5 PHE5        0.0000 
    100 CZ          8.2700   45.7100   -6.4500 C.ar      5 PHE5        0.0000 
    101 CZ          8.1500   44.2900   -5.9800 C.ar      5 PHE5        0.0000 
    102 CZ          8.0200   42.8700   -5.5200 C.ar      5 PHE5        0.0000 
    103 CZ         12.4400   44.8600   -7.9200 C.ar      5 PHE5        0.0000 
    104 CZ         12.3200   43.4400   -7.4600 C.ar      5 PHE5        0.0000 
    105 CZ          5.5500   40.9800   -2.2700 C.ar      5 PHE5        0.0000 
    106 CZ          5.4200   39.5600   -1.8100 C.ar      5 PHE5        0.0000 
    107 CZ          7.3100   44.9600   -4.1500 C.ar      5 PHE5        0.0000 
    108 CZ          7.1900   43.5400   -3.6900 C.ar      5 PHE5        0.0000 
    109 CZ          7.0600   42.1200   -3.2300 C.ar      5 PHE5        0.0000 
    110 CZ         -1.2200   38.5100    2.9100 C.ar      5 PHE5        0.0000 
    111 CZ          0.1700   38.2300    2.4200 C.ar      5 PHE5        0.0000 
    112 CZ          1.6900   39.3700    1.4700 C.ar      5 PHE5        0.0000 
    113 CZ         -2.0500   39.1800    4.7400 C.ar      5 PHE5        0.0000 
    114 CZ         -2.1800   37.7600    5.2100 C.ar      5 PHE5        0.0000 
    115 CZ         -0.6600   38.9000    4.2500 C.ar      5 PHE5        0.0000 
    116 CZ         -1.0400   34.6400    5.6400 C.ar      5 PHE5        0.0000 
    117 CZ          0.9700   41.4600    2.8400 C.ar      5 PHE5        0.0000 
    118 CZ          0.8500   40.0400    3.3000 C.ar      5 PHE5        0.0000 
    119 CZ          0.7200   38.6200    3.7600 C.ar      5 PHE5        0.0000 
    120 CZ          0.6000   37.2000    4.2300 C.ar      5 PHE5        0.0000 
    121 CZ          0.4700   35.7800    4.6900 C.ar      5 PHE5        0.0000 
    122 CZ          2.1100   38.3400    3.2700 C.ar      5 PHE5        0.0000 
    123 CZ         -1.6300   38.1500    6.5500 C.ar      5 PHE5        0.0000 
    124 CZ         -0.3600   36.4500    6.5200 C.ar      5 PHE5        0.0000 
    125 CZ         -0.4900   35.0300    6.9800 C.ar      5 PHE5        0.0000 
    126 CZ          1.2800   39.0100    5.1000 C.ar      5 PHE5        0.0000 
    127 CZ          1.1500   37.5900    5.5600 C.ar      5 PHE5        0.0000 
    128 CZ          1.0300   36.1700    6.0300 C.ar      5 PHE5        0.0000 
    129 CZ          2.6700   38.7300    4.6100 C.ar      5 PHE5        0.0000 
    130 CA          8.8400   43.5900  -12.7900 C.3       6 GLY6        0.0000 
    131 CA          8.7200   42.1700  -12.3200 C.3       6 GLY6        0.0000 
    132 CA          7.7600   41.4200  -10.0300 C.3       6 GLY6        0.0000 
    133 CA          9.2700   42.5600  -10.9900 C.3       6 GLY6        0.0000 
    134 CA          5.5300   42.3700   -7.7100 C.3       6 GLY6        0.0000 
    135 CA          6.9200   42.0900   -8.2000 C.3       6 GLY6        0.0000 
    136 CA          8.3100   41.8100   -8.6900 C.3       6 GLY6        0.0000 
    137 CA          9.7000   41.5300   -9.1800 C.3       6 GLY6        0.0000 
    138 CA         11.7600   43.0500   -8.8000 C.3       6 GLY6        0.0000 
    139 CA          0.4600   37.1700   -0.7500 C.3       6 GLY6        0.0000 
    140 CA          2.2200   41.1500   -2.6300 C.3       6 GLY6        0.0000 
    141 CA          2.0900   39.7300   -2.1700 C.3       6 GLY6        0.0000 
    142 CA          1.9700   38.3100   -1.7000 C.3       6 GLY6        0.0000 
    143 CA          3.7300   42.2900   -3.5800 C.3       6 GLY6        0.0000 
    144 CA          3.6100   40.8700   -3.1200 C.3       6 GLY6        0.0000 
    145 CA          3.4800   39.4500   -2.6600 C.3       6 GLY6        0.0000 
    146 CA         -0.3800   37.8400    1.0800 C.3       6 GLY6        0.0000 
    147 CA          1.1300   38.9800    0.1300 C.3       6 GLY6        0.0000 
    148 CA          1.0100   37.5600    0.5900 C.3       6 GLY6        0.0000 
    149 CA          0.7600   34.7200    1.5200 C.3       6 GLY6        0.0000 
    150 CA          2.2700   35.8600    0.5600 C.3       6 GLY6        0.0000 
    151 CA          1.4400   36.5300    2.3900 C.3       6 GLY6        0.0000 
    152 CA          1.3100   35.1100    2.8600 C.3       6 GLY6        0.0000 
    153 CA          4.5900   40.2300    0.0200 C.3       6 GLY6        0.0000 
    154 CA          4.4600   38.8100    0.4900 C.3       6 GLY6        0.0000 
    155 CA          2.3600   41.1800    2.3400 C.3       6 GLY6        0.0000 
    156 CA          5.5200   44.8800   -0.0300 C.3       6 GLY6        0.0000 
    157 CA          6.5300   40.3300    0.8700 C.3       6 GLY6        0.0000 
    158 DU         11.3400   44.0900  -10.6000 H         7 CUB7        0.0000 
    159 DU          6.0800   42.7600   -6.3700 H         7 CUB7        0.0000 
    160 DU         11.8900   44.4800   -9.2600 H         7 CUB7        0.0000 
    161 DU          3.9800   45.1400   -4.5100 H         7 CUB7        0.0000 
    162 DU          5.3700   44.8500   -5.0000 H         7 CUB7        0.0000 
    163 DU          5.2500   43.4300   -4.5400 H         7 CUB7        0.0000 
    164 DU          2.5200   38.7000   -0.3600 H         7 CUB7        0.0000 
    165 DU          2.4000   37.2800    0.1000 H         7 CUB7        0.0000 
    166 DU          4.4100   44.1000   -2.7100 H         7 CUB7        0.0000 
    167 DU          4.0400   39.8400   -1.3200 H         7 CUB7        0.0000 
    168 DU          3.9100   38.4200   -0.8500 H         7 CUB7        0.0000 
    169 DU          5.8000   43.8200   -3.2000 H         7 CUB7        0.0000 
    170 DU          5.6700   42.4000   -2.7400 H         7 CUB7        0.0000 
    171 DU          1.5600   37.9500    1.9300 H         7 CUB7        0.0000 
    172 DU          4.9600   44.4900   -1.3700 H         7 CUB7        0.0000 
    173 DU         -1.5000   39.5700    6.0800 H         7 CUB7        0.0000 
    174 DU         -0.1100   39.2900    5.5900 H         7 CUB7        0.0000 
    175 DU          1.4000   40.4300    4.6400 H         7 CUB7        0.0000 
    176 DU          2.9200   41.5700    3.6800 H         7 CUB7        0.0000 
@<TRIPOS>BOND
@<TRIPOS>SUBSTRUCTURE
     1 SER1        1 GROUP   
     2 ALA2       16 GROUP   
     3 ASP3       54 GROUP   
     4 LYS4       84 GROUP   
     5 PHE5       86 GROUP   
     6 GLY6      130 GROUP   
     7 CUB7      158 GROUP   
@<TRIPOS>SET

