#    Name: 6aws_4_QUE
#    Modification time : Fri May 22 19:27:00 2020

@<TRIPOS>MOLECULE
6aws_4_QUE
   22    24     1     0     0
SMALL
NO_CHARGES


@<TRIPOS>ATOM
      1 C1         41.2120   13.9250    8.7890 C.ar      1 QUE202      0.0000 
      2 C2         42.1480   14.3820    9.7100 C.ar      1 QUE202      0.0000 
      3 C3         42.6730   13.4590   10.7420 C.ar      1 QUE202      0.0000 
      4 C4         42.1880   12.0610   10.7740 C.ar      1 QUE202      0.0000 
      5 C5         41.2450   11.6850    9.8010 C.ar      1 QUE202      0.0000 
      6 C6         40.7730   12.5980    8.8320 C.ar      1 QUE202      0.0000 
      7 C9         43.6580   13.9060   11.7450 C.2       1 QUE202      0.0000 
      8 C10        44.1300   12.9300   12.7460 C.2       1 QUE202      0.0000 
      9 C11        43.5880   11.5350   12.7360 C.2       1 QUE202      0.0000 
     10 C14        44.0760   10.4760   13.6950 C.ar      1 QUE202      0.0000 
     11 C15        43.9530    9.1330   13.2770 C.ar      1 QUE202      0.0000 
     12 C16        44.3990    8.0520   14.0470 C.ar      1 QUE202      0.0000 
     13 C17        45.0180    8.2780   15.2680 C.ar      1 QUE202      0.0000 
     14 C18        45.1770    9.6820   15.7230 C.ar      1 QUE202      0.0000 
     15 C19        44.7100   10.7350   14.9230 C.ar      1 QUE202      0.0000 
     16 O12        42.6750   11.1960   11.7400 O.3       1 QUE202      0.0000 
     17 O13        44.0860   15.0780   11.7400 O.2       1 QUE202      0.0000 
     18 O23        45.7830    9.9330   16.9200 O.3       1 QUE202      0.0000 
     19 O24        45.4620    7.2440   16.0390 O.3       1 QUE202      0.0000 
     20 O27        45.0360   13.3840   13.6390 O.co2     1 QUE202      0.0000 
     21 O29        39.8600   12.2060    7.8970 O.3       1 QUE202      0.0000 
     22 O30        42.5890   15.6600    9.6870 O.co2     1 QUE202      0.0000 
@<TRIPOS>BOND
     1    1    2 ar   
     2    1    6 ar   
     3    2    3 ar   
     4    2   22 ar   
     5    3    4 ar   
     6    3    7 1    
     7    4    5 ar   
     8    4   16 1    
     9    5    6 ar   
    10    6   21 1    
    11    7    8 1    
    12    7   17 2    
    13    8    9 2    
    14    8   20 ar   
    15    9   10 1    
    16    9   16 1    
    17   10   11 ar   
    18   10   15 ar   
    19   11   12 ar   
    20   12   13 ar   
    21   13   14 ar   
    22   13   19 1    
    23   14   15 ar   
    24   14   18 1    
@<TRIPOS>SUBSTRUCTURE
     1 QUE202      1 GROUP   
@<TRIPOS>SET

