#    Name: 6aws_5_QUE
#    Modification time : Fri May 22 19:27:03 2020

@<TRIPOS>MOLECULE
6aws_5_QUE
   22    24     1     0     0
SMALL
NO_CHARGES


@<TRIPOS>ATOM
      1 C1         43.2930    5.2840    4.3100 C.ar      1 QUE203      0.0000 
      2 C2         43.0190    6.2910    5.2310 C.ar      1 QUE203      0.0000 
      3 C3         42.9320    7.6990    4.7520 C.ar      1 QUE203      0.0000 
      4 C4         43.1360    7.9720    3.3060 C.ar      1 QUE203      0.0000 
      5 C5         43.4070    6.8910    2.4610 C.ar      1 QUE203      0.0000 
      6 C6         43.4950    5.5760    2.9570 C.ar      1 QUE203      0.0000 
      7 C9         42.6510    8.8350    5.6640 C.2       1 QUE203      0.0000 
      8 C10        42.5830   10.2020    5.0970 C.2       1 QUE203      0.0000 
      9 C11        42.7970   10.3760    3.6200 C.2       1 QUE203      0.0000 
     10 C14        42.7280   11.7160    2.9530 C.ar      1 QUE203      0.0000 
     11 C15        42.8940   12.9180    3.6640 C.ar      1 QUE203      0.0000 
     12 C16        42.8170   14.1470    3.0210 C.ar      1 QUE203      0.0000 
     13 C17        42.5680   14.2310    1.6640 C.ar      1 QUE203      0.0000 
     14 C18        42.3840   12.9750    0.9010 C.ar      1 QUE203      0.0000 
     15 C19        42.4690   11.7610    1.5730 C.ar      1 QUE203      0.0000 
     16 O12        43.0550    9.2640    2.8300 O.3       1 QUE203      0.0000 
     17 O13        42.4860    8.6520    6.8840 O.2       1 QUE203      0.0000 
     18 O23        42.1380   13.0090   -0.4360 O.3       1 QUE203      0.0000 
     19 O24        42.4990   15.4450    1.0570 O.3       1 QUE203      0.0000 
     20 O27        42.3080   11.2260    5.9540 O.co2     1 QUE203      0.0000 
     21 O29        43.7450    4.5380    2.1050 O.3       1 QUE203      0.0000 
     22 O30        42.8560    5.9800    6.5470 O.co2     1 QUE203      0.0000 
@<TRIPOS>BOND
     1    1    2 ar   
     2    1    6 ar   
     3    2    3 ar   
     4    2   22 ar   
     5    3    4 ar   
     6    3    7 1    
     7    4    5 ar   
     8    4   16 1    
     9    5    6 ar   
    10    6   21 1    
    11    7    8 1    
    12    7   17 2    
    13    8    9 2    
    14    8   20 ar   
    15    9   10 1    
    16    9   16 1    
    17   10   11 ar   
    18   10   15 ar   
    19   11   12 ar   
    20   12   13 ar   
    21   13   14 ar   
    22   13   19 1    
    23   14   15 ar   
    24   14   18 1    
@<TRIPOS>SUBSTRUCTURE
     1 QUE203      1 GROUP   
@<TRIPOS>SET

