#    Name: 6aws_3_QUE
#    Modification time : Fri May 22 19:26:57 2020

@<TRIPOS>MOLECULE
6aws_3_QUE
   22    24     1     0     0
SMALL
NO_CHARGES


@<TRIPOS>ATOM
      1 C1         19.6510   18.6300   31.9590 C.ar      1 QUE207      0.0000 
      2 C2         19.2930   17.7110   32.9440 C.ar      1 QUE207      0.0000 
      3 C3         19.1270   16.3010   32.5470 C.ar      1 QUE207      0.0000 
      4 C4         19.3430   15.9520   31.1290 C.ar      1 QUE207      0.0000 
      5 C5         19.7020   16.9160   30.2170 C.ar      1 QUE207      0.0000 
      6 C6         19.8470   18.2270   30.6280 C.ar      1 QUE207      0.0000 
      7 C9         18.7560   15.2440   33.5080 C.2       1 QUE207      0.0000 
      8 C10        18.6230   13.8730   32.9820 C.2       1 QUE207      0.0000 
      9 C11        18.8660   13.6590   31.5230 C.2       1 QUE207      0.0000 
     10 C14        18.8140   12.3480   30.8580 C.ar      1 QUE207      0.0000 
     11 C15        18.7260   12.2840   29.4580 C.ar      1 QUE207      0.0000 
     12 C16        18.7280   11.0620   28.7990 C.ar      1 QUE207      0.0000 
     13 C17        18.8320    9.8970   29.5400 C.ar      1 QUE207      0.0000 
     14 C18        18.9360    9.9790   31.0100 C.ar      1 QUE207      0.0000 
     15 C19        18.9400   11.1980   31.6210 C.ar      1 QUE207      0.0000 
     16 O12        19.2210   14.6840   30.7050 O.3       1 QUE207      0.0000 
     17 O13        18.5580   15.4890   34.7140 O.2       1 QUE207      0.0000 
     18 O23        19.0280    8.8960   31.7960 O.3       1 QUE207      0.0000 
     19 O24        18.8300    8.7040   28.9220 O.3       1 QUE207      0.0000 
     20 O27        18.2770   12.8760   33.8430 O.co2     1 QUE207      0.0000 
     21 O29        20.1940   19.1100   29.6660 O.3       1 QUE207      0.0000 
     22 O30        19.1040   18.0740   34.2440 O.co2     1 QUE207      0.0000 
@<TRIPOS>BOND
     1    1    2 ar   
     2    1    6 ar   
     3    2    3 ar   
     4    2   22 ar   
     5    3    4 ar   
     6    3    7 1    
     7    4    5 ar   
     8    4   16 1    
     9    5    6 ar   
    10    6   21 1    
    11    7    8 1    
    12    7   17 2    
    13    8    9 2    
    14    8   20 ar   
    15    9   10 1    
    16    9   16 1    
    17   10   11 ar   
    18   10   15 ar   
    19   11   12 ar   
    20   12   13 ar   
    21   13   14 ar   
    22   13   19 1    
    23   14   15 ar   
    24   14   18 1    
@<TRIPOS>SUBSTRUCTURE
     1 QUE207      1 GROUP   
@<TRIPOS>SET

