#    Name: 6aws_6_QUE
#    Modification time : Fri May 22 19:27:06 2020

@<TRIPOS>MOLECULE
6aws_6_QUE
   22    24     1     0     0
SMALL
NO_CHARGES


@<TRIPOS>ATOM
      1 C1         41.1670    1.9850   10.0480 C.ar      1 QUE204      0.0000 
      2 C2         39.9630    1.3040    9.8430 C.ar      1 QUE204      0.0000 
      3 C3         39.5950    0.8690    8.4630 C.ar      1 QUE204      0.0000 
      4 C4         40.5430    1.1910    7.3650 C.ar      1 QUE204      0.0000 
      5 C5         41.7260    1.8770    7.6630 C.ar      1 QUE204      0.0000 
      6 C6         42.0300    2.2650    8.9780 C.ar      1 QUE204      0.0000 
      7 C9         38.3360    0.1410    8.1280 C.2       1 QUE204      0.0000 
      8 C10        38.0780   -0.2450    6.6970 C.2       1 QUE204      0.0000 
      9 C11        39.1190    0.1330    5.6630 C.2       1 QUE204      0.0000 
     10 C14        39.0670   -0.1220    4.1800 C.ar      1 QUE204      0.0000 
     11 C15        39.9650    0.6210    3.3760 C.ar      1 QUE204      0.0000 
     12 C16        40.0270    0.4890    1.9830 C.ar      1 QUE204      0.0000 
     13 C17        39.1830   -0.4040    1.3290 C.ar      1 QUE204      0.0000 
     14 C18        38.2320   -1.1890    2.1570 C.ar      1 QUE204      0.0000 
     15 C19        38.1910   -1.0240    3.5560 C.ar      1 QUE204      0.0000 
     16 O12        40.2510    0.8180    6.0730 O.3       1 QUE204      0.0000 
     17 O13        37.5180   -0.1360    9.0360 O.2       1 QUE204      0.0000 
     18 O23        37.4210   -2.0460    1.4850 O.3       1 QUE204      0.0000 
     19 O24        39.2020   -0.5680   -0.0330 O.3       1 QUE204      0.0000 
     20 O27        36.9150   -0.9030    6.3980 O.co2     1 QUE204      0.0000 
     21 O29        43.1960    2.9310    9.2190 O.3       1 QUE204      0.0000 
     22 O30        39.1390    1.0450   10.8930 O.co2     1 QUE204      0.0000 
@<TRIPOS>BOND
     1    1    2 ar   
     2    1    6 ar   
     3    2    3 ar   
     4    2   22 ar   
     5    3    4 ar   
     6    3    7 1    
     7    4    5 ar   
     8    4   16 1    
     9    5    6 ar   
    10    6   21 1    
    11    7    8 1    
    12    7   17 2    
    13    8    9 2    
    14    8   20 ar   
    15    9   10 1    
    16    9   16 1    
    17   10   11 ar   
    18   10   15 ar   
    19   11   12 ar   
    20   12   13 ar   
    21   13   14 ar   
    22   13   19 1    
    23   14   15 ar   
    24   14   18 1    
@<TRIPOS>SUBSTRUCTURE
     1 QUE204      1 GROUP   
@<TRIPOS>SET

