#    Name: 6aws_1_QUE
#    Modification time : Fri May 22 19:26:50 2020

@<TRIPOS>MOLECULE
6aws_1_QUE
   22    24     1     0     0
SMALL
NO_CHARGES


@<TRIPOS>ATOM
      1 C1         20.7500   17.6710   25.8830 C.ar      1 QUE202      0.0000 
      2 C2         19.7550   17.6420   24.9240 C.ar      1 QUE202      0.0000 
      3 C3         19.2430   16.3480   24.4450 C.ar      1 QUE202      0.0000 
      4 C4         19.7670   15.0830   24.9640 C.ar      1 QUE202      0.0000 
      5 C5         20.7650   15.2030   25.9290 C.ar      1 QUE202      0.0000 
      6 C6         21.2420   16.4590   26.3740 C.ar      1 QUE202      0.0000 
      7 C9         18.1990   16.3310   23.4290 C.2       1 QUE202      0.0000 
      8 C10        17.6900   15.0490   22.9500 C.2       1 QUE202      0.0000 
      9 C11        18.2680   13.7790   23.4890 C.2       1 QUE202      0.0000 
     10 C14        17.6920   12.4510   23.0450 C.ar      1 QUE202      0.0000 
     11 C15        17.8140   11.3600   23.9360 C.ar      1 QUE202      0.0000 
     12 C16        17.2660   10.1000   23.6410 C.ar      1 QUE202      0.0000 
     13 C17        16.5490    9.8890   22.4570 C.ar      1 QUE202      0.0000 
     14 C18        16.3750   11.0250   21.5230 C.ar      1 QUE202      0.0000 
     15 C19        16.9400   12.2680   21.8500 C.ar      1 QUE202      0.0000 
     16 O12        19.2560   13.8790   24.4810 O.3       1 QUE202      0.0000 
     17 O13        17.7470   17.3950   22.9880 O.2       1 QUE202      0.0000 
     18 O23        15.6770   10.8230   20.3640 O.3       1 QUE202      0.0000 
     19 O24        16.0140    8.6720   22.1420 O.3       1 QUE202      0.0000 
     20 O27        16.7220   15.1270   22.0050 O.co2     1 QUE202      0.0000 
     21 O29        22.2220   16.5220   27.3210 O.3       1 QUE202      0.0000 
     22 O30        19.2260   18.7710   24.3930 O.co2     1 QUE202      0.0000 
@<TRIPOS>BOND
     1    1    2 ar   
     2    1    6 ar   
     3    2    3 ar   
     4    2   22 ar   
     5    3    4 ar   
     6    3    7 1    
     7    4    5 ar   
     8    4   16 1    
     9    5    6 ar   
    10    6   21 1    
    11    7    8 1    
    12    7   17 2    
    13    8    9 2    
    14    8   20 ar   
    15    9   10 1    
    16    9   16 1    
    17   10   11 ar   
    18   10   15 ar   
    19   11   12 ar   
    20   12   13 ar   
    21   13   14 ar   
    22   13   19 1    
    23   14   15 ar   
    24   14   18 1    
@<TRIPOS>SUBSTRUCTURE
     1 QUE202      1 GROUP   
@<TRIPOS>SET

