#    Name: 6aws_2_QUE
#    Modification time : Fri May 22 19:26:54 2020

@<TRIPOS>MOLECULE
6aws_2_QUE
   22    24     1     0     0
SMALL
NO_CHARGES


@<TRIPOS>ATOM
      1 C1         23.2970    5.6730   34.3830 C.ar      1 QUE206      0.0000 
      2 C2         22.0180    6.1160   34.0970 C.ar      1 QUE206      0.0000 
      3 C3         21.5420    5.9670   32.6950 C.ar      1 QUE206      0.0000 
      4 C4         22.4190    5.3690   31.6550 C.ar      1 QUE206      0.0000 
      5 C5         23.6900    4.9630   32.0550 C.ar      1 QUE206      0.0000 
      6 C6         24.1110    5.1150   33.3890 C.ar      1 QUE206      0.0000 
      7 C9         20.1960    6.4020   32.3170 C.2       1 QUE206      0.0000 
      8 C10        19.7840    6.2270   30.9150 C.2       1 QUE206      0.0000 
      9 C11        20.7520    5.6950   29.9040 C.2       1 QUE206      0.0000 
     10 C14        20.2260    5.3640   28.5660 C.ar      1 QUE206      0.0000 
     11 C15        20.7570    4.1830   28.0400 C.ar      1 QUE206      0.0000 
     12 C16        20.2780    3.6090   26.8660 C.ar      1 QUE206      0.0000 
     13 C17        19.2030    4.1360   26.1910 C.ar      1 QUE206      0.0000 
     14 C18        18.5560    5.3400   26.7720 C.ar      1 QUE206      0.0000 
     15 C19        19.0710    5.8740   27.9540 C.ar      1 QUE206      0.0000 
     16 O12        21.9830    5.2330   30.3500 O.3       1 QUE206      0.0000 
     17 O13        19.4290    6.9150   33.1640 O.2       1 QUE206      0.0000 
     18 O23        17.4800    5.9260   26.1630 O.3       1 QUE206      0.0000 
     19 O24        18.7780    3.5370   25.0420 O.3       1 QUE206      0.0000 
     20 O27        18.5310    6.6520   30.6210 O.co2     1 QUE206      0.0000 
     21 O29        25.3630    4.7110   33.7570 O.3       1 QUE206      0.0000 
     22 O30        21.2490    6.6720   35.0810 O.co2     1 QUE206      0.0000 
@<TRIPOS>BOND
     1    1    2 ar   
     2    1    6 ar   
     3    2    3 ar   
     4    2   22 ar   
     5    3    4 ar   
     6    3    7 1    
     7    4    5 ar   
     8    4   16 1    
     9    5    6 ar   
    10    6   21 1    
    11    7    8 1    
    12    7   17 2    
    13    8    9 2    
    14    8   20 ar   
    15    9   10 1    
    16    9   16 1    
    17   10   11 ar   
    18   10   15 ar   
    19   11   12 ar   
    20   12   13 ar   
    21   13   14 ar   
    22   13   19 1    
    23   14   15 ar   
    24   14   18 1    
@<TRIPOS>SUBSTRUCTURE
     1 QUE206      1 GROUP   
@<TRIPOS>SET

