#    Name: 6a60_1_064
#    Modification time : Fri May 22 19:24:32 2020

@<TRIPOS>MOLECULE
6a60_1_064
   36    39     1     0     0
SMALL
NO_CHARGES


@<TRIPOS>ATOM
      1 C1         39.1280  -42.4130   -5.5870 C.2       1 064501      0.0000 
      2 N4         38.3500  -43.4050   -5.0930 N.2       1 064501      0.0000 
      3 C5         40.5010  -44.1090   -4.8570 C.2       1 064501      0.0000 
      4 C6         41.7430  -41.9200   -5.8890 C.3       1 064501      0.0000 
      5 C7         38.5340  -40.9370   -7.5750 C.ar      1 064501      0.0000 
      6 C8         38.3830  -40.0460   -5.1930 C.ar      1 064501      0.0000 
      7 C10        41.5230  -45.1060   -4.4260 C.3       1 064501      0.0000 
      8 C16        41.2600  -45.5160   -2.9750 C.3       1 064501      0.0000 
      9 C17        41.5380  -46.3070   -5.3700 C.3       1 064501      0.0000 
     10 C18        42.5520  -39.5710   -5.7200 C.ar      1 064501      0.0000 
     11 C19        37.8160  -38.6590   -7.1050 C.ar      1 064501      0.0000 
     12 C20        42.6150  -38.4380   -4.9150 C.ar      1 064501      0.0000 
     13 C21        43.3990  -39.6780   -6.8300 C.ar      1 064501      0.0000 
     14 C22        43.5060  -37.4120   -5.1930 C.ar      1 064501      0.0000 
     15 C23        44.3100  -38.6790   -7.1490 C.ar      1 064501      0.0000 
     16 C24        44.4060  -37.5140   -6.3920 C.ar      1 064501      0.0000 
     17 C26        45.4890  -36.5780   -6.8280 C.2       1 064501      0.0000 
     18 C27        45.9650  -35.5940   -6.0590 C.2       1 064501      0.0000 
     19 C28        47.0960  -34.6870   -6.4310 C.ar      1 064501      0.0000 
     20 C29        47.3690  -33.6660   -5.5190 C.ar      1 064501      0.0000 
     21 C30        47.8910  -34.8010   -7.5840 C.ar      1 064501      0.0000 
     22 C32        48.9200  -33.8790   -7.8090 C.ar      1 064501      0.0000 
     23 C2         40.5580  -42.7640   -5.4670 C.2       1 064501      0.0000 
     24 C3         38.6690  -41.1360   -6.1300 C.ar      1 064501      0.0000 
     25 O9         39.1690  -44.3830   -4.6780 O.3       1 064501      0.0000 
     26 O11        41.6430  -40.5660   -5.4030 O.3       1 064501      0.0000 
     27 C12        38.1060  -39.6890   -8.0150 C.ar      1 064501      0.0000 
     28 CL13       38.9340  -42.3190   -8.6540 Cl        1 064501      0.0000 
     29 C14        37.9510  -38.8280   -5.7220 C.ar      1 064501      0.0000 
     30 CL15       38.6000  -40.3760   -3.4260 Cl        1 064501      0.0000 
     31 CL25       43.4450  -36.0400   -4.0480 Cl        1 064501      0.0000 
     32 C31        48.3910  -32.7510   -5.7340 C.ar      1 064501      0.0000 
     33 C33        49.1710  -32.8530   -6.8900 C.ar      1 064501      0.0000 
     34 C34        48.5950  -31.6770   -4.7010 C.2       1 064501      0.0000 
     35 O35        48.3660  -30.4920   -5.0280 O.co2     1 064501      0.0000 
     36 O36        48.9540  -31.9930   -3.5390 O.co2     1 064501      0.0000 
@<TRIPOS>BOND
     1    1    2 2    
     2    1   23 1    
     3    1   24 1    
     4    2   25 1    
     5    3    7 1    
     6    3   23 2    
     7    3   25 1    
     8    4   23 1    
     9    4   26 1    
    10    5   24 ar   
    11    5   27 ar   
    12    5   28 1    
    13    6   24 ar   
    14    6   29 ar   
    15    6   30 1    
    16    7    8 1    
    17    7    9 1    
    18   10   12 ar   
    19   10   13 ar   
    20   10   26 1    
    21   11   27 ar   
    22   11   29 ar   
    23   12   14 ar   
    24   13   15 ar   
    25   14   16 ar   
    26   14   31 1    
    27   15   16 ar   
    28   16   17 1    
    29   17   18 2    
    30   18   19 1    
    31   19   20 ar   
    32   19   21 ar   
    33   20   32 ar   
    34   21   22 ar   
    35   22   33 ar   
    36   32   33 ar   
    37   32   34 1    
    38   34   35 ar   
    39   34   36 ar   
@<TRIPOS>SUBSTRUCTURE
     1 064501      1 GROUP   
@<TRIPOS>SET

