#    Name: 6a60_2_9CR
#    Modification time : Fri May 22 19:24:36 2020

@<TRIPOS>MOLECULE
6a60_2_9CR
   22    22     1     0     0
SMALL
NO_CHARGES


@<TRIPOS>ATOM
      1 C1         10.6710  -42.4750    2.7260 C.3       1 9CR501      0.0000 
      2 C2         11.1230  -42.9760    4.1040 C.3       1 9CR501      0.0000 
      3 C3         10.5490  -42.2100    5.2540 C.3       1 9CR501      0.0000 
      4 C4         10.8640  -40.7280    5.1340 C.3       1 9CR501      0.0000 
      5 C5         10.6580  -40.1810    3.7480 C.2       1 9CR501      0.0000 
      6 C6         10.6600  -40.9570    2.6440 C.2       1 9CR501      0.0000 
      7 C7         10.6190  -40.3280    1.3520 C.2       1 9CR501      0.0000 
      8 C8          9.5610  -40.2790    0.4930 C.2       1 9CR501      0.0000 
      9 C9          9.2180  -39.1670   -0.2790 C.2       1 9CR501      0.0000 
     10 C10         7.9490  -38.5340   -0.2060 C.2       1 9CR501      0.0000 
     11 C11         7.5540  -37.2570   -0.5860 C.2       1 9CR501      0.0000 
     12 C12         6.3410  -36.5380   -0.4310 C.2       1 9CR501      0.0000 
     13 C13         5.3430  -36.6370    0.5580 C.2       1 9CR501      0.0000 
     14 C14         4.2030  -35.8360    0.7170 C.2       1 9CR501      0.0000 
     15 C15         3.9700  -34.3800    0.4170 C.2       1 9CR501      0.0000 
     16 C16        11.6610  -43.0380    1.6990 C.3       1 9CR501      0.0000 
     17 C17         9.2850  -43.0590    2.4170 C.3       1 9CR501      0.0000 
     18 C18        10.4700  -38.6880    3.7170 C.3       1 9CR501      0.0000 
     19 C19        10.2580  -38.5960   -1.1540 C.3       1 9CR501      0.0000 
     20 C20         5.5340  -37.6810    1.5720 C.3       1 9CR501      0.0000 
     21 O1          4.8160  -33.7150   -0.2520 O.co2     1 9CR501      0.0000 
     22 O2          2.9310  -33.9050    0.8830 O.co2     1 9CR501      0.0000 
@<TRIPOS>BOND
     1    1    2 1    
     2    1    6 1    
     3    1   16 1    
     4    1   17 1    
     5    2    3 1    
     6    3    4 1    
     7    4    5 1    
     8    5    6 2    
     9    5   18 1    
    10    6    7 1    
    11    7    8 2    
    12    8    9 1    
    13    9   10 2    
    14    9   19 1    
    15   10   11 1    
    16   11   12 2    
    17   12   13 1    
    18   13   14 2    
    19   13   20 1    
    20   14   15 1    
    21   15   21 ar   
    22   15   22 ar   
@<TRIPOS>SUBSTRUCTURE
     1 9CR501      1 GROUP   
@<TRIPOS>SET

