#    Name: 6uxl_1_PLG_CAVITY_N1_6
#    Modification time : Fri May 22 19:26:00 2020

@<TRIPOS>MOLECULE
6uxl_1_PLG_CAVITY_N1_6
   35     0     6     0     0
SMALL
NO_CHARGES


@<TRIPOS>ATOM
      1 OG         -8.0400   -5.2200   28.1100 O.3       1 SER1        0.0000 
      2 OG         -7.3100   -4.5400   26.9900 O.3       1 SER1        0.0000 
      3 OG         -9.6600   -2.7400   26.5400 O.3       1 SER1        0.0000 
      4 OG         -5.5600   -4.4600   28.1900 O.3       1 SER1        0.0000 
      5 OG         -7.4700   -4.2300   29.0800 O.3       1 SER1        0.0000 
      6 OG         -6.7300   -3.5600   27.9600 O.3       1 SER1        0.0000 
      7 N          -8.9300   -2.0600   25.4200 N.am      2 ALA2        0.0000 
      8 N          -9.0900   -1.7500   27.5200 N.am      2 ALA2        0.0000 
      9 O          -5.7200   -4.1500   30.2800 O.2       2 ALA2        0.0000 
     10 O          -4.9800   -3.4700   29.1600 O.2       2 ALA2        0.0000 
     11 N          -6.8900   -3.2500   30.0500 N.am      2 ALA2        0.0000 
     12 N          -6.1600   -2.5700   28.9400 N.am      2 ALA2        0.0000 
     13 N          -8.0700   -2.3500   29.8300 N.am      2 ALA2        0.0000 
     14 N          -7.3400   -1.6700   28.7100 N.am      2 ALA2        0.0000 
     15 N          -8.5100   -0.7600   28.4900 N.am      2 ALA2        0.0000 
     16 NZ         -5.9700   -5.7500   25.1200 N.4       3 LYS4        0.0000 
     17 NZ         -8.6100   -6.2100   27.1300 N.4       3 LYS4        0.0000 
     18 NZ         -7.8800   -5.5300   26.0100 N.4       3 LYS4        0.0000 
     19 NZ         -6.1300   -5.4500   27.2100 N.4       3 LYS4        0.0000 
     20 NZ         -5.4000   -4.7700   26.0900 N.4       3 LYS4        0.0000 
     21 CZ         -9.7900   -5.3100   26.9100 C.ar      4 PHE5        0.0000 
     22 CZ         -8.3200   -3.9500   24.6700 C.ar      4 PHE5        0.0000 
     23 CZ         -8.4800   -3.6400   26.7700 C.ar      4 PHE5        0.0000 
     24 CZ         -4.3800   -5.3600   28.4100 C.ar      4 PHE5        0.0000 
     25 CZ         -3.6500   -4.6800   27.2900 C.ar      4 PHE5        0.0000 
     26 CZ         -4.8200   -3.7800   27.0700 C.ar      4 PHE5        0.0000 
     27 CZ         -3.8100   -4.3700   29.3800 C.ar      4 PHE5        0.0000 
     28 CA         -7.1400   -4.8500   24.9000 C.3       5 GLY6        0.0000 
     29 CA         -9.2200   -4.3200   27.8800 C.3       5 GLY6        0.0000 
     30 CA         -7.7500   -2.9600   25.6500 C.3       5 GLY6        0.0000 
     31 CA         -8.6400   -3.3300   28.8600 C.3       5 GLY6        0.0000 
     32 CA         -7.9100   -2.6500   27.7400 C.3       5 GLY6        0.0000 
     33 CA         -7.1800   -1.9700   26.6200 C.3       5 GLY6        0.0000 
     34 DU         -6.5700   -3.8600   25.8700 H         6 CUB7        0.0000 
     35 DU         -6.0000   -2.8800   26.8400 H         6 CUB7        0.0000 
@<TRIPOS>BOND
@<TRIPOS>SUBSTRUCTURE
     1 SER1        1 GROUP   
     2 ALA2        7 GROUP   
     3 LYS4       16 GROUP   
     4 PHE5       21 GROUP   
     5 GLY6       28 GROUP   
     6 CUB7       34 GROUP   
@<TRIPOS>SET

