#    Name: 6uxl_2_PLG_CAVITY_N1_4
#    Modification time : Fri May 22 19:26:08 2020

@<TRIPOS>MOLECULE
6uxl_2_PLG_CAVITY_N1_4
   12     0     5     0     0
SMALL
NO_CHARGES


@<TRIPOS>ATOM
      1 OG        -19.2900  -28.1500    4.8200 O.3       1 SER1        0.0000 
      2 OG        -18.5600  -27.4700    3.7000 O.3       1 SER1        0.0000 
      3 OG        -20.4700  -27.2500    4.5900 O.3       1 SER1        0.0000 
      4 OG        -18.2800  -28.7400    7.1300 O.3       1 SER1        0.0000 
      5 OG        -17.5400  -28.0600    6.0100 O.3       1 SER1        0.0000 
      6 OG        -19.4500  -27.8400    6.9100 O.3       1 SER1        0.0000 
      7 OD1       -19.8600  -29.1400    3.8400 O.co2     2 ASP3        0.0000 
      8 OD1       -18.1100  -29.0500    5.0400 O.co2     2 ASP3        0.0000 
      9 NZ        -19.9000  -26.2600    5.5700 N.4       3 LYS4        0.0000 
     10 NZ        -18.8800  -26.8500    7.8800 N.4       3 LYS4        0.0000 
     11 CZ        -18.7200  -27.1600    5.7900 C.ar      4 PHE5        0.0000 
     12 CA        -19.1300  -28.4600    2.7200 C.3       5 GLY6        0.0000 
@<TRIPOS>BOND
@<TRIPOS>SUBSTRUCTURE
     1 SER1        1 GROUP   
     2 ASP3        7 GROUP   
     3 LYS4        9 GROUP   
     4 PHE5       11 GROUP   
     5 GLY6       12 GROUP   
@<TRIPOS>SET

