#    Name: 6uxl_2_PLG
#    Modification time : Fri May 22 19:26:07 2020

@<TRIPOS>MOLECULE
6uxl_2_PLG
   20    20     1     0     0
SMALL
NO_CHARGES


@<TRIPOS>ATOM
      1 N1        -12.4830  -25.1200    6.4080 N.ar      1 PLG501      0.0000 
      2 C2        -13.2280  -26.1320    5.9120 C.ar      1 PLG501      0.0000 
      3 C2A       -12.7630  -26.8850    4.6700 C.3       1 PLG501      0.0000 
      4 C3        -14.4160  -26.4960    6.5220 C.ar      1 PLG501      0.0000 
      5 O3        -15.1700  -27.5500    5.9850 O.3       1 PLG501      0.0000 
      6 C4        -14.8390  -25.8350    7.6260 C.ar      1 PLG501      0.0000 
      7 C4A       -16.1560  -26.2520    8.2800 C.3       1 PLG501      0.0000 
      8 C5        -14.0860  -24.8190    8.1290 C.ar      1 PLG501      0.0000 
      9 C6        -12.9000  -24.4580    7.5080 C.ar      1 PLG501      0.0000 
     10 C5A       -14.5280  -24.0330    9.3630 C.3       1 PLG501      0.0000 
     11 OP4       -14.5440  -24.7970   10.5330 O.3       1 PLG501      0.0000 
     12 P         -15.4010  -24.1840   11.8060 P.3       1 PLG501      0.0000 
     13 OP1       -14.7850  -24.6140   13.1130 O.co2     1 PLG501      0.0000 
     14 OP2       -15.4150  -22.6740   11.7400 O.co2     1 PLG501      0.0000 
     15 OP3       -16.8270  -24.6790   11.7490 O.co2     1 PLG501      0.0000 
     16 C         -18.4690  -28.9850    7.2230 C.2       1 PLG501      0.0000 
     17 O         -17.9330  -29.2840    6.1230 O.co2     1 PLG501      0.0000 
     18 OXT       -19.3800  -29.7170    7.6960 O.co2     1 PLG501      0.0000 
     19 CA        -18.0140  -27.7390    7.9850 C.3       1 PLG501      0.0000 
     20 N         -16.6390  -27.4510    7.6160 N.4       1 PLG501      0.0000 
@<TRIPOS>BOND
     1    1    2 ar   
     2    1    9 ar   
     3    2    3 1    
     4    2    4 ar   
     5    4    5 1    
     6    4    6 ar   
     7    6    7 1    
     8    6    8 ar   
     9    7   20 1    
    10    8    9 ar   
    11    8   10 1    
    12   10   11 1    
    13   11   12 1    
    14   12   13 ar   
    15   12   14 ar   
    16   12   15 ar   
    17   16   17 ar   
    18   16   18 ar   
    19   16   19 1    
    20   19   20 1    
@<TRIPOS>SUBSTRUCTURE
     1 PLG501      1 GROUP   
@<TRIPOS>SET

