#    Name: 6uxl_2_PLG_CAVITY_N1_8
#    Modification time : Fri May 22 19:26:08 2020

@<TRIPOS>MOLECULE
6uxl_2_PLG_CAVITY_N1_8
   58     0     7     0     0
SMALL
NO_CHARGES


@<TRIPOS>ATOM
      1 OG        -21.0400  -28.2300    3.6200 O.3       1 SER1        0.0000 
      2 OG        -22.9500  -28.0100    4.5200 O.3       1 SER1        0.0000 
      3 OG        -19.2900  -28.1500    4.8200 O.3       1 SER1        0.0000 
      4 OG        -18.5600  -27.4700    3.7000 O.3       1 SER1        0.0000 
      5 OG        -20.4700  -27.2500    4.5900 O.3       1 SER1        0.0000 
      6 OG        -18.2800  -28.7400    7.1300 O.3       1 SER1        0.0000 
      7 OG        -17.5400  -28.0600    6.0100 O.3       1 SER1        0.0000 
      8 OG        -19.4500  -27.8400    6.9100 O.3       1 SER1        0.0000 
      9 N         -23.3600  -29.3100    1.4500 N.am      2 ALA2        0.0000 
     10 N         -22.6300  -28.6300    0.3300 N.am      2 ALA2        0.0000 
     11 N         -26.0100  -29.7600    3.4600 N.am      2 ALA2        0.0000 
     12 N         -25.2700  -29.0800    2.3500 N.am      2 ALA2        0.0000 
     13 N         -19.7000  -29.4400    1.7500 N.am      2 ALA2        0.0000 
     14 O         -22.3500  -29.9000    3.7700 O.2       2 ALA2        0.0000 
     15 N         -21.6100  -29.2200    2.6500 N.am      2 ALA2        0.0000 
     16 N         -20.8800  -28.5400    1.5300 N.am      2 ALA2        0.0000 
     17 N         -20.1500  -27.8600    0.4100 N.am      2 ALA2        0.0000 
     18 O         -23.5200  -29.0000    3.5400 O.2       2 ALA2        0.0000 
     19 N         -22.7900  -28.3200    2.4200 N.am      2 ALA2        0.0000 
     20 N         -22.0600  -27.6400    1.3000 N.am      2 ALA2        0.0000 
     21 N         -21.3200  -26.9600    0.1900 N.am      2 ALA2        0.0000 
     22 N         -24.7000  -28.0900    3.3200 N.am      2 ALA2        0.0000 
     23 N         -18.4000  -27.7800    1.6100 N.am      2 ALA2        0.0000 
     24 N         -19.5800  -26.8800    1.3800 N.am      2 ALA2        0.0000 
     25 N         -19.0000  -25.8900    2.3600 N.am      2 ALA2        0.0000 
     26 O         -19.6100  -24.0000    3.1100 O.2       2 ALA2        0.0000 
     27 OD1       -19.8600  -29.1400    3.8400 O.co2     3 ASP3        0.0000 
     28 OD1       -18.1100  -29.0500    5.0400 O.co2     3 ASP3        0.0000 
     29 NZ        -22.3800  -27.0200    5.4900 N.4       4 LYS4        0.0000 
     30 NZ        -21.6500  -26.3400    4.3700 N.4       4 LYS4        0.0000 
     31 NZ        -19.9000  -26.2600    5.5700 N.4       4 LYS4        0.0000 
     32 NZ        -21.0700  -25.3600    5.3400 N.4       4 LYS4        0.0000 
     33 NZ        -18.8800  -26.8500    7.8800 N.4       4 LYS4        0.0000 
     34 CZ        -24.2600  -29.6800    4.6600 C.ar      5 PHE5        0.0000 
     35 CZ        -25.4300  -28.7700    4.4400 C.ar      5 PHE5        0.0000 
     36 CZ        -24.8600  -27.7900    5.4100 C.ar      5 PHE5        0.0000 
     37 CZ        -24.1300  -27.1100    4.2900 C.ar      5 PHE5        0.0000 
     38 CZ        -23.4000  -26.4300    3.1700 C.ar      5 PHE5        0.0000 
     39 CZ        -19.7400  -26.5700    3.4700 C.ar      5 PHE5        0.0000 
     40 CZ        -22.8200  -25.4400    4.1500 C.ar      5 PHE5        0.0000 
     41 CZ        -18.7200  -27.1600    5.7900 C.ar      5 PHE5        0.0000 
     42 CZ        -19.1600  -25.5800    4.4500 C.ar      5 PHE5        0.0000 
     43 CZ        -20.3400  -24.6800    4.2300 C.ar      5 PHE5        0.0000 
     44 CZ        -22.2500  -24.4500    5.1200 C.ar      5 PHE5        0.0000 
     45 CA        -19.1300  -28.4600    2.7200 C.3       6 GLY6        0.0000 
     46 CA        -20.7500  -25.9700    1.1600 C.3       6 GLY6        0.0000 
     47 CA        -21.9300  -25.0700    0.9400 C.3       6 GLY6        0.0000 
     48 CA        -20.1800  -24.9900    2.1300 C.3       6 GLY6        0.0000 
     49 CA        -22.0900  -24.7600    3.0300 C.3       6 GLY6        0.0000 
     50 CA        -21.3600  -24.0800    1.9100 C.3       6 GLY6        0.0000 
     51 CA        -21.5200  -23.7800    4.0000 C.3       6 GLY6        0.0000 
     52 DU        -23.9700  -27.4200    2.2000 H         7 CUB7        0.0000 
     53 DU        -23.2300  -26.7400    1.0800 H         7 CUB7        0.0000 
     54 DU        -20.3100  -27.5600    2.5000 H         7 CUB7        0.0000 
     55 DU        -22.2200  -27.3300    3.4000 H         7 CUB7        0.0000 
     56 DU        -21.4900  -26.6500    2.2800 H         7 CUB7        0.0000 
     57 DU        -22.6600  -25.7500    2.0500 H         7 CUB7        0.0000 
     58 DU        -20.9100  -25.6700    3.2500 H         7 CUB7        0.0000 
@<TRIPOS>BOND
@<TRIPOS>SUBSTRUCTURE
     1 SER1        1 GROUP   
     2 ALA2        9 GROUP   
     3 ASP3       27 GROUP   
     4 LYS4       29 GROUP   
     5 PHE5       34 GROUP   
     6 GLY6       45 GROUP   
     7 CUB7       52 GROUP   
@<TRIPOS>SET

