#    Name: 6uxl_1_PLG
#    Modification time : Fri May 22 19:25:59 2020

@<TRIPOS>MOLECULE
6uxl_1_PLG
   20    20     1     0     0
SMALL
NO_CHARGES


@<TRIPOS>ATOM
      1 N1        -15.3690   -6.3780   25.2030 N.ar      1 PLG501      0.0000 
      2 C2        -14.6210   -5.8710   26.2060 C.ar      1 PLG501      0.0000 
      3 C2A       -15.0950   -4.6320   26.9600 C.3       1 PLG501      0.0000 
      4 C3        -13.4220   -6.4680   26.5580 C.ar      1 PLG501      0.0000 
      5 O3        -12.6590   -5.9270   27.6010 O.3       1 PLG501      0.0000 
      6 C4        -12.9940   -7.5680   25.8970 C.ar      1 PLG501      0.0000 
      7 C4A       -11.6660   -8.2060   26.3050 C.3       1 PLG501      0.0000 
      8 C5        -13.7520   -8.0810   24.8880 C.ar      1 PLG501      0.0000 
      9 C6        -14.9470   -7.4740   24.5390 C.ar      1 PLG501      0.0000 
     10 C5A       -13.3090   -9.3120   24.0990 C.3       1 PLG501      0.0000 
     11 OP4       -13.2310  -10.4720   24.8730 O.3       1 PLG501      0.0000 
     12 P         -12.4970  -11.7740   24.1710 P.3       1 PLG501      0.0000 
     13 OP1       -13.3310  -13.0120   24.3800 O.co2     1 PLG501      0.0000 
     14 OP2       -12.3350  -11.5370   22.6880 O.co2     1 PLG501      0.0000 
     15 OP3       -11.1290  -11.9850   24.7780 O.co2     1 PLG501      0.0000 
     16 C          -9.4550   -7.0730   29.0740 C.2       1 PLG501      0.0000 
     17 O         -10.1840   -6.1330   29.4950 O.co2     1 PLG501      0.0000 
     18 OXT        -8.4040   -7.3760   29.6950 O.co2     1 PLG501      0.0000 
     19 CA         -9.8500   -7.8400   27.8120 C.3       1 PLG501      0.0000 
     20 N         -11.2800   -7.6870   27.6060 N.4       1 PLG501      0.0000 
@<TRIPOS>BOND
     1    1    2 ar   
     2    1    9 ar   
     3    2    3 1    
     4    2    4 ar   
     5    4    5 1    
     6    4    6 ar   
     7    6    7 1    
     8    6    8 ar   
     9    7   20 1    
    10    8    9 ar   
    11    8   10 1    
    12   10   11 1    
    13   11   12 1    
    14   12   13 ar   
    15   12   14 ar   
    16   12   15 ar   
    17   16   17 ar   
    18   16   18 ar   
    19   16   19 1    
    20   19   20 1    
@<TRIPOS>SUBSTRUCTURE
     1 PLG501      1 GROUP   
@<TRIPOS>SET

