#    Name: 6uxl_1_PLG_CAVITY_N1_4
#    Modification time : Fri May 22 19:26:00 2020

@<TRIPOS>MOLECULE
6uxl_1_PLG_CAVITY_N1_4
    9     0     4     0     0
SMALL
NO_CHARGES


@<TRIPOS>ATOM
      1 OG         -8.0400   -5.2200   28.1100 O.3       1 SER1        0.0000 
      2 OG         -7.3100   -4.5400   26.9900 O.3       1 SER1        0.0000 
      3 OG         -7.4700   -4.2300   29.0800 O.3       1 SER1        0.0000 
      4 NZ         -8.6100   -6.2100   27.1300 N.4       2 LYS4        0.0000 
      5 NZ         -7.8800   -5.5300   26.0100 N.4       2 LYS4        0.0000 
      6 NZ         -6.1300   -5.4500   27.2100 N.4       2 LYS4        0.0000 
      7 CZ         -9.7900   -5.3100   26.9100 C.ar      3 PHE5        0.0000 
      8 CA         -9.2200   -4.3200   27.8800 C.3       4 GLY6        0.0000 
      9 CA         -8.6400   -3.3300   28.8600 C.3       4 GLY6        0.0000 
@<TRIPOS>BOND
@<TRIPOS>SUBSTRUCTURE
     1 SER1        1 GROUP   
     2 LYS4        4 GROUP   
     3 PHE5        7 GROUP   
     4 GLY6        8 GROUP   
@<TRIPOS>SET

