#    Name: 6uxl_2_PLG_CAVITY_N1_ALL
#    Modification time : Fri May 22 19:26:08 2020

@<TRIPOS>MOLECULE
6uxl_2_PLG_CAVITY_N1_ALL
  105     0     7     0     0
SMALL
NO_CHARGES


@<TRIPOS>ATOM
      1 OG        -21.0400  -28.2300    3.6200 O.3       1 SER1        0.0000 
      2 OG        -22.9500  -28.0100    4.5200 O.3       1 SER1        0.0000 
      3 OG        -19.2900  -28.1500    4.8200 O.3       1 SER1        0.0000 
      4 OG        -18.5600  -27.4700    3.7000 O.3       1 SER1        0.0000 
      5 OG        -20.4700  -27.2500    4.5900 O.3       1 SER1        0.0000 
      6 OG        -24.4400  -22.9600    2.5800 O.3       1 SER1        0.0000 
      7 OG        -18.2800  -28.7400    7.1300 O.3       1 SER1        0.0000 
      8 OG        -17.5400  -28.0600    6.0100 O.3       1 SER1        0.0000 
      9 OG        -19.4500  -27.8400    6.9100 O.3       1 SER1        0.0000 
     10 N         -25.1100  -29.3900    0.2500 N.am      2 ALA2        0.0000 
     11 O         -24.3800  -28.7100   -0.8700 O.2       2 ALA2        0.0000 
     12 N         -27.0200  -29.1700    1.1500 N.am      2 ALA2        0.0000 
     13 O         -25.5600  -27.8100   -1.0900 O.2       2 ALA2        0.0000 
     14 N         -23.3600  -29.3100    1.4500 N.am      2 ALA2        0.0000 
     15 N         -22.6300  -28.6300    0.3300 N.am      2 ALA2        0.0000 
     16 N         -26.0100  -29.7600    3.4600 N.am      2 ALA2        0.0000 
     17 N         -25.2700  -29.0800    2.3500 N.am      2 ALA2        0.0000 
     18 N         -24.5400  -28.4000    1.2300 N.am      2 ALA2        0.0000 
     19 N         -23.0700  -27.0500   -1.0100 N.am      2 ALA2        0.0000 
     20 N         -22.3400  -26.3700   -2.1300 N.am      2 ALA2        0.0000 
     21 N         -26.4500  -28.1800    2.1200 N.am      2 ALA2        0.0000 
     22 O         -22.7900  -24.7800   -3.4700 O.2       2 ALA2        0.0000 
     23 N         -19.7000  -29.4400    1.7500 N.am      2 ALA2        0.0000 
     24 O         -22.3500  -29.9000    3.7700 O.2       2 ALA2        0.0000 
     25 N         -21.6100  -29.2200    2.6500 N.am      2 ALA2        0.0000 
     26 N         -20.8800  -28.5400    1.5300 N.am      2 ALA2        0.0000 
     27 N         -20.1500  -27.8600    0.4100 N.am      2 ALA2        0.0000 
     28 O         -23.5200  -29.0000    3.5400 O.2       2 ALA2        0.0000 
     29 N         -22.7900  -28.3200    2.4200 N.am      2 ALA2        0.0000 
     30 N         -22.0600  -27.6400    1.3000 N.am      2 ALA2        0.0000 
     31 N         -21.3200  -26.9600    0.1900 N.am      2 ALA2        0.0000 
     32 N         -24.7000  -28.0900    3.3200 N.am      2 ALA2        0.0000 
     33 N         -18.4000  -27.7800    1.6100 N.am      2 ALA2        0.0000 
     34 N         -19.5800  -26.8800    1.3800 N.am      2 ALA2        0.0000 
     35 N         -19.0000  -25.8900    2.3600 N.am      2 ALA2        0.0000 
     36 O         -19.6100  -24.0000    3.1100 O.2       2 ALA2        0.0000 
     37 OD1       -19.8600  -29.1400    3.8400 O.co2     3 ASP3        0.0000 
     38 OD1       -18.1100  -29.0500    5.0400 O.co2     3 ASP3        0.0000 
     39 NZ        -22.3800  -27.0200    5.4900 N.4       4 LYS4        0.0000 
     40 NZ        -21.6500  -26.3400    4.3700 N.4       4 LYS4        0.0000 
     41 NZ        -19.9000  -26.2600    5.5700 N.4       4 LYS4        0.0000 
     42 NZ        -21.0700  -25.3600    5.3400 N.4       4 LYS4        0.0000 
     43 NZ        -18.8800  -26.8500    7.8800 N.4       4 LYS4        0.0000 
     44 CZ        -24.2600  -29.6800    4.6600 C.ar      5 PHE5        0.0000 
     45 CZ        -25.4300  -28.7700    4.4400 C.ar      5 PHE5        0.0000 
     46 CZ        -26.6100  -27.8700    4.2100 C.ar      5 PHE5        0.0000 
     47 CZ        -25.8800  -27.1900    3.1000 C.ar      5 PHE5        0.0000 
     48 CZ        -27.0500  -26.2900    2.8700 C.ar      5 PHE5        0.0000 
     49 CZ        -24.8600  -27.7900    5.4100 C.ar      5 PHE5        0.0000 
     50 CZ        -24.1300  -27.1100    4.2900 C.ar      5 PHE5        0.0000 
     51 CZ        -23.4000  -26.4300    3.1700 C.ar      5 PHE5        0.0000 
     52 CZ        -24.5700  -25.5300    2.9500 C.ar      5 PHE5        0.0000 
     53 CZ        -25.7500  -24.6200    2.7300 C.ar      5 PHE5        0.0000 
     54 CZ        -19.7400  -26.5700    3.4700 C.ar      5 PHE5        0.0000 
     55 CZ        -22.8200  -25.4400    4.1500 C.ar      5 PHE5        0.0000 
     56 CZ        -18.7200  -27.1600    5.7900 C.ar      5 PHE5        0.0000 
     57 CZ        -19.1600  -25.5800    4.4500 C.ar      5 PHE5        0.0000 
     58 CZ        -20.3400  -24.6800    4.2300 C.ar      5 PHE5        0.0000 
     59 CZ        -22.2500  -24.4500    5.1200 C.ar      5 PHE5        0.0000 
     60 CA        -26.2900  -28.4900    0.0300 C.3       6 GLY6        0.0000 
     61 CA        -24.8200  -27.1300   -2.2100 C.3       6 GLY6        0.0000 
     62 CA        -24.0900  -26.4500   -3.3300 C.3       6 GLY6        0.0000 
     63 CA        -28.2000  -28.2600    0.9300 C.3       6 GLY6        0.0000 
     64 CA        -27.4700  -27.5800   -0.1900 C.3       6 GLY6        0.0000 
     65 CA        -26.7300  -26.9100   -1.3100 C.3       6 GLY6        0.0000 
     66 CA        -26.0000  -26.2300   -2.4300 C.3       6 GLY6        0.0000 
     67 CA        -25.2700  -25.5500   -3.5500 C.3       6 GLY6        0.0000 
     68 CA        -27.1800  -28.8600    3.2400 C.3       6 GLY6        0.0000 
     69 CA        -23.5200  -25.4600   -2.3500 C.3       6 GLY6        0.0000 
     70 CA        -28.3600  -27.9600    3.0200 C.3       6 GLY6        0.0000 
     71 CA        -22.5000  -26.0600   -0.0400 C.3       6 GLY6        0.0000 
     72 CA        -23.6800  -25.1600   -0.2600 C.3       6 GLY6        0.0000 
     73 CA        -22.9500  -24.4800   -1.3800 C.3       6 GLY6        0.0000 
     74 CA        -24.8600  -24.2500   -0.4800 C.3       6 GLY6        0.0000 
     75 CA        -24.1200  -23.5700   -1.6000 C.3       6 GLY6        0.0000 
     76 CA        -19.1300  -28.4600    2.7200 C.3       6 GLY6        0.0000 
     77 CA        -20.7500  -25.9700    1.1600 C.3       6 GLY6        0.0000 
     78 CA        -21.9300  -25.0700    0.9400 C.3       6 GLY6        0.0000 
     79 CA        -23.8400  -24.8500    1.8300 C.3       6 GLY6        0.0000 
     80 CA        -24.2800  -23.2700    0.4900 C.3       6 GLY6        0.0000 
     81 CA        -20.1800  -24.9900    2.1300 C.3       6 GLY6        0.0000 
     82 CA        -22.0900  -24.7600    3.0300 C.3       6 GLY6        0.0000 
     83 CA        -21.3600  -24.0800    1.9100 C.3       6 GLY6        0.0000 
     84 CA        -23.2700  -23.8600    2.8000 C.3       6 GLY6        0.0000 
     85 CA        -21.5200  -23.7800    4.0000 C.3       6 GLY6        0.0000 
     86 DU        -23.8100  -27.7200    0.1100 H         7 CUB7        0.0000 
     87 DU        -25.7200  -27.5000    1.0000 H         7 CUB7        0.0000 
     88 DU        -24.9800  -26.8200   -0.1200 H         7 CUB7        0.0000 
     89 DU        -24.2500  -26.1400   -1.2400 H         7 CUB7        0.0000 
     90 DU        -27.6300  -27.2800    1.9000 H         7 CUB7        0.0000 
     91 DU        -26.8900  -26.6000    0.7800 H         7 CUB7        0.0000 
     92 DU        -26.1600  -25.9200   -0.3400 H         7 CUB7        0.0000 
     93 DU        -25.4300  -25.2400   -1.4600 H         7 CUB7        0.0000 
     94 DU        -24.7000  -24.5600   -2.5800 H         7 CUB7        0.0000 
     95 DU        -23.9700  -27.4200    2.2000 H         7 CUB7        0.0000 
     96 DU        -23.2300  -26.7400    1.0800 H         7 CUB7        0.0000 
     97 DU        -25.1400  -26.5100    1.9800 H         7 CUB7        0.0000 
     98 DU        -24.4100  -25.8300    0.8600 H         7 CUB7        0.0000 
     99 DU        -26.3200  -25.6100    1.7500 H         7 CUB7        0.0000 
    100 DU        -25.5900  -24.9300    0.6300 H         7 CUB7        0.0000 
    101 DU        -20.3100  -27.5600    2.5000 H         7 CUB7        0.0000 
    102 DU        -22.2200  -27.3300    3.4000 H         7 CUB7        0.0000 
    103 DU        -21.4900  -26.6500    2.2800 H         7 CUB7        0.0000 
    104 DU        -22.6600  -25.7500    2.0500 H         7 CUB7        0.0000 
    105 DU        -20.9100  -25.6700    3.2500 H         7 CUB7        0.0000 
@<TRIPOS>BOND
@<TRIPOS>SUBSTRUCTURE
     1 SER1        1 GROUP   
     2 ALA2       10 GROUP   
     3 ASP3       37 GROUP   
     4 LYS4       39 GROUP   
     5 PHE5       44 GROUP   
     6 GLY6       60 GROUP   
     7 CUB7       86 GROUP   
@<TRIPOS>SET

