#    Name: 6auw_1_H4B
#    Modification time : Fri May 22 19:35:41 2020

@<TRIPOS>MOLECULE
6auw_1_H4B
   17    18     1     0     1
SMALL
NO_CHARGES


@<TRIPOS>ATOM
      1 N1          9.8190    2.3570   33.5730 N.2       1 H4B802      0.0000 
      2 C2          9.9420    1.9990   32.2750 C.2       1 H4B802      0.0000 
      3 N2         11.1850    1.8320   31.7590 N.pl3     1 H4B802      0.0000 
      4 N3          8.8420    1.8090   31.5020 N.am      1 H4B802      0.0000 
      5 C4          7.6040    1.9730   32.0230 C.2       1 H4B802      0.0000 
      6 O4          6.5900    1.7920   31.3050 O.2       1 H4B802      0.0000 
      7 C4A         7.4690    2.3530   33.3590 C.2       1 H4B802      0.0000 
      8 C8A         8.6030    2.5410   34.1320 C.2       1 H4B802      0.0000 
      9 N5          6.2500    2.5310   33.9130 N.3       1 H4B802      0.0000 
     10 N8          8.5160    2.9080   35.4420 N.pl3     1 H4B802      0.0000 
     11 C6          6.1630    3.3880   35.0940 C.3       1 H4B802      0.0000 
     12 C7          7.2400    3.0630   36.1180 C.3       1 H4B802      0.0000 
     13 C9          4.7870    3.3180   35.7510 C.3       1 H4B802      0.0000 
     14 O9          4.5130    1.9680   36.1330 O.3       1 H4B802      0.0000 
     15 C10         4.7000    4.2170   36.9810 C.3       1 H4B802      0.0000 
     16 C11         3.2440    4.3860   37.3890 C.3       1 H4B802      0.0000 
     17 O10         5.2400    5.5060   36.6690 O.3       1 H4B802      0.0000 
@<TRIPOS>BOND
     1    1    2 2    
     2    1    8 1    
     3    2    3 1    
     4    2    4 1    
     5    4    5 am   
     6    5    6 2    
     7    5    7 1    
     8    7    8 2    
     9    7    9 1    
    10    8   10 1    
    11    9   11 1    
    12   10   12 1    
    13   11   12 1    
    14   11   13 1    
    15   13   14 1    
    16   13   15 1    
    17   15   16 1    
    18   15   17 1    
@<TRIPOS>SUBSTRUCTURE
     1 H4B802      1 GROUP   
@<TRIPOS>SET
ATOM$ORANGE STATIC     ATOMS   COLORGROUP SYSTEM 
18 2 2 5 5 7 7 8 8 11 11 12 12 13 13 15 15 16 \
16 

