#    Name: 6auw_1_H4B_CAVITY_N1_12
#    Modification time : Fri May 22 19:35:41 2020

@<TRIPOS>MOLECULE
6auw_1_H4B_CAVITY_N1_12
   72     0     6     0     0
SMALL
NO_CHARGES


@<TRIPOS>ATOM
      1 OG          8.9100    6.9500   27.2400 O.3       1 SER1        0.0000 
      2 N          16.8300    3.2700   23.2400 N.am      2 ALA2        0.0000 
      3 N          15.4600    3.8900   23.3500 N.am      2 ALA2        0.0000 
      4 N          14.1000    4.5000   23.4600 N.am      2 ALA2        0.0000 
      5 N          17.6900    1.4200   23.8300 N.am      2 ALA2        0.0000 
      6 N          14.9800    6.3300   24.0800 N.am      2 ALA2        0.0000 
      7 N          14.4800    5.1000   24.7800 N.am      2 ALA2        0.0000 
      8 N          16.7000    2.6400   25.2600 N.am      2 ALA2        0.0000 
      9 N          15.3400    3.2600   25.3700 N.am      2 ALA2        0.0000 
     10 N          13.9800    3.8700   25.4800 N.am      2 ALA2        0.0000 
     11 O          17.0800    3.2400   26.5800 O.2       2 ALA2        0.0000 
     12 N          15.7200    3.8500   26.6900 N.am      2 ALA2        0.0000 
     13 N          12.9900    5.0900   26.9100 N.am      2 ALA2        0.0000 
     14 N          11.6300    5.7100   27.0200 N.am      2 ALA2        0.0000 
     15 O          15.2200    2.6300   27.3900 O.2       2 ALA2        0.0000 
     16 N          13.8500    3.2500   27.5000 N.am      2 ALA2        0.0000 
     17 N          12.4900    3.8600   27.6100 N.am      2 ALA2        0.0000 
     18 NZ         15.7000    0.1800   26.6600 N.4       3 LYS4        0.0000 
     19 NZ         14.3400    0.8000   26.7700 N.4       3 LYS4        0.0000 
     20 NZ         12.9700    1.4200   26.8800 N.4       3 LYS4        0.0000 
     21 NZ         11.6100    2.0400   26.9900 N.4       3 LYS4        0.0000 
     22 NZ         11.1100    0.8100   27.6900 N.4       3 LYS4        0.0000 
     23 CZ         12.3600    4.5200   22.2500 C.ar      4 PHE5        0.0000 
     24 CZ         14.6000    5.7300   22.7600 C.ar      4 PHE5        0.0000 
     25 CZ         13.2400    6.3500   22.8700 C.ar      4 PHE5        0.0000 
     26 CZ         11.8800    6.9700   22.9800 C.ar      4 PHE5        0.0000 
     27 CZ         12.7400    5.1200   23.5700 C.ar      4 PHE5        0.0000 
     28 CZ         11.3800    5.7400   23.6800 C.ar      4 PHE5        0.0000 
     29 CZ          9.8900    5.7300   25.8100 C.ar      4 PHE5        0.0000 
     30 CZ         10.7500    3.8800   26.4000 C.ar      4 PHE5        0.0000 
     31 CZ          9.3900    4.5000   26.5100 C.ar      4 PHE5        0.0000 
     32 CZ         10.2500    2.6600   27.1000 C.ar      4 PHE5        0.0000 
     33 CZ         10.2700    6.3300   27.1300 C.ar      4 PHE5        0.0000 
     34 CZ         11.1300    4.4800   27.7200 C.ar      4 PHE5        0.0000 
     35 CZ         11.9900    2.6400   28.3100 C.ar      4 PHE5        0.0000 
     36 CA         17.8100    2.0500   21.8100 C.3       5 GLY6        0.0000 
     37 CA         16.4500    2.6700   21.9200 C.3       5 GLY6        0.0000 
     38 CA         11.0000    5.1400   22.3500 C.3       5 GLY6        0.0000 
     39 CA         10.5200    7.5900   23.0900 C.3       5 GLY6        0.0000 
     40 CA         18.1900    2.6500   23.1300 C.3       5 GLY6        0.0000 
     41 CA         10.0200    6.3600   23.7900 C.3       5 GLY6        0.0000 
     42 CA         10.8800    4.5100   24.3800 C.3       5 GLY6        0.0000 
     43 CA          9.5100    5.1300   24.4900 C.3       5 GLY6        0.0000 
     44 CA          8.1500    5.7500   24.6000 C.3       5 GLY6        0.0000 
     45 CA         13.6200    6.9500   24.1900 C.3       5 GLY6        0.0000 
     46 CA         10.9000    8.1900   24.4100 C.3       5 GLY6        0.0000 
     47 CA         13.1200    5.7200   24.8900 C.3       5 GLY6        0.0000 
     48 CA         10.3900    6.9600   25.1100 C.3       5 GLY6        0.0000 
     49 CA          9.0300    7.5800   25.2200 C.3       5 GLY6        0.0000 
     50 CA         18.0600    2.0200   25.1500 C.3       5 GLY6        0.0000 
     51 CA         17.5600    0.7900   25.8500 C.3       5 GLY6        0.0000 
     52 CA         14.0000    7.5500   25.5100 C.3       5 GLY6        0.0000 
     53 CA         12.6400    8.1700   25.6200 C.3       5 GLY6        0.0000 
     54 CA         13.5000    6.3200   26.2100 C.3       5 GLY6        0.0000 
     55 CA         12.1300    6.9400   26.3200 C.3       5 GLY6        0.0000 
     56 CA         10.7700    7.5600   26.4300 C.3       5 GLY6        0.0000 
     57 CA         14.3600    4.4700   26.8000 C.3       5 GLY6        0.0000 
     58 CA         16.5800    2.0100   27.2800 C.3       5 GLY6        0.0000 
     59 CA         16.0800    0.7800   27.9800 C.3       5 GLY6        0.0000 
     60 CA         14.7100    1.4000   28.0900 C.3       5 GLY6        0.0000 
     61 DU         16.3200    2.0400   23.9400 H         6 CUB7        0.0000 
     62 DU         13.6000    3.2800   24.1600 H         6 CUB7        0.0000 
     63 DU         12.2400    3.9000   24.2700 H         6 CUB7        0.0000 
     64 DU         12.2600    7.5700   24.3000 H         6 CUB7        0.0000 
     65 DU         11.7600    6.3400   25.0000 H         6 CUB7        0.0000 
     66 DU         12.6200    4.4900   25.5900 H         6 CUB7        0.0000 
     67 DU         11.2500    5.1100   25.7000 H         6 CUB7        0.0000 
     68 DU         16.2000    1.4100   25.9600 H         6 CUB7        0.0000 
     69 DU         14.8400    2.0300   26.0700 H         6 CUB7        0.0000 
     70 DU         13.4800    2.6500   26.1800 H         6 CUB7        0.0000 
     71 DU         12.1100    3.2700   26.2900 H         6 CUB7        0.0000 
     72 DU         13.3500    2.0200   28.2000 H         6 CUB7        0.0000 
@<TRIPOS>BOND
@<TRIPOS>SUBSTRUCTURE
     1 SER1        1 GROUP   
     2 ALA2        2 GROUP   
     3 LYS4       18 GROUP   
     4 PHE5       23 GROUP   
     5 GLY6       36 GROUP   
     6 CUB7       61 GROUP   
@<TRIPOS>SET

