#    Name: 6auw_1_H4B_CAVITY_N1_8
#    Modification time : Fri May 22 19:35:41 2020

@<TRIPOS>MOLECULE
6auw_1_H4B_CAVITY_N1_8
   40     0     6     0     0
SMALL
NO_CHARGES


@<TRIPOS>ATOM
      1 OG          8.9100    6.9500   27.2400 O.3       1 SER1        0.0000 
      2 N          15.3400    3.2600   25.3700 N.am      2 ALA2        0.0000 
      3 N          13.9800    3.8700   25.4800 N.am      2 ALA2        0.0000 
      4 O          17.0800    3.2400   26.5800 O.2       2 ALA2        0.0000 
      5 N          15.7200    3.8500   26.6900 N.am      2 ALA2        0.0000 
      6 N          12.9900    5.0900   26.9100 N.am      2 ALA2        0.0000 
      7 N          11.6300    5.7100   27.0200 N.am      2 ALA2        0.0000 
      8 O          15.2200    2.6300   27.3900 O.2       2 ALA2        0.0000 
      9 N          13.8500    3.2500   27.5000 N.am      2 ALA2        0.0000 
     10 N          12.4900    3.8600   27.6100 N.am      2 ALA2        0.0000 
     11 NZ         15.7000    0.1800   26.6600 N.4       3 LYS4        0.0000 
     12 NZ         14.3400    0.8000   26.7700 N.4       3 LYS4        0.0000 
     13 NZ         12.9700    1.4200   26.8800 N.4       3 LYS4        0.0000 
     14 NZ         11.6100    2.0400   26.9900 N.4       3 LYS4        0.0000 
     15 NZ         11.1100    0.8100   27.6900 N.4       3 LYS4        0.0000 
     16 CZ          9.8900    5.7300   25.8100 C.ar      4 PHE5        0.0000 
     17 CZ         10.7500    3.8800   26.4000 C.ar      4 PHE5        0.0000 
     18 CZ          9.3900    4.5000   26.5100 C.ar      4 PHE5        0.0000 
     19 CZ         10.2500    2.6600   27.1000 C.ar      4 PHE5        0.0000 
     20 CZ         10.2700    6.3300   27.1300 C.ar      4 PHE5        0.0000 
     21 CZ         11.1300    4.4800   27.7200 C.ar      4 PHE5        0.0000 
     22 CZ         11.9900    2.6400   28.3100 C.ar      4 PHE5        0.0000 
     23 CA         10.8800    4.5100   24.3800 C.3       5 GLY6        0.0000 
     24 CA          9.5100    5.1300   24.4900 C.3       5 GLY6        0.0000 
     25 CA          8.1500    5.7500   24.6000 C.3       5 GLY6        0.0000 
     26 CA         13.5000    6.3200   26.2100 C.3       5 GLY6        0.0000 
     27 CA         12.1300    6.9400   26.3200 C.3       5 GLY6        0.0000 
     28 CA         10.7700    7.5600   26.4300 C.3       5 GLY6        0.0000 
     29 CA         14.3600    4.4700   26.8000 C.3       5 GLY6        0.0000 
     30 CA         16.5800    2.0100   27.2800 C.3       5 GLY6        0.0000 
     31 CA         16.0800    0.7800   27.9800 C.3       5 GLY6        0.0000 
     32 CA         14.7100    1.4000   28.0900 C.3       5 GLY6        0.0000 
     33 DU         12.2400    3.9000   24.2700 H         6 CUB7        0.0000 
     34 DU         12.6200    4.4900   25.5900 H         6 CUB7        0.0000 
     35 DU         11.2500    5.1100   25.7000 H         6 CUB7        0.0000 
     36 DU         16.2000    1.4100   25.9600 H         6 CUB7        0.0000 
     37 DU         14.8400    2.0300   26.0700 H         6 CUB7        0.0000 
     38 DU         13.4800    2.6500   26.1800 H         6 CUB7        0.0000 
     39 DU         12.1100    3.2700   26.2900 H         6 CUB7        0.0000 
     40 DU         13.3500    2.0200   28.2000 H         6 CUB7        0.0000 
@<TRIPOS>BOND
@<TRIPOS>SUBSTRUCTURE
     1 SER1        1 GROUP   
     2 ALA2        2 GROUP   
     3 LYS4       11 GROUP   
     4 PHE5       16 GROUP   
     5 GLY6       23 GROUP   
     6 CUB7       33 GROUP   
@<TRIPOS>SET

