#    Name: 6cep_8_NAD_CAVITY_N1_6
#    Modification time : Fri May 22 19:25:09 2020

@<TRIPOS>MOLECULE
6cep_8_NAD_CAVITY_N1_6
   78     0     4     0     0
SMALL
NO_CHARGES


@<TRIPOS>ATOM
      1 OG         -0.8500   24.5700  -24.2300 O.3       1 SER1        0.0000 
      2 OG         -0.5900   21.8100  -22.3500 O.3       1 SER1        0.0000 
      3 OG         -1.3100   23.0300  -22.8500 O.3       1 SER1        0.0000 
      4 OG         -2.0200   24.2500  -23.3500 O.3       1 SER1        0.0000 
      5 OG         -2.4800   22.7000  -21.9700 O.3       1 SER1        0.0000 
      6 OG         -1.1500   22.2900  -20.3700 O.3       1 SER1        0.0000 
      7 OG         -1.8700   23.5100  -20.8700 O.3       1 SER1        0.0000 
      8 OG         -2.5900   24.7300  -21.3700 O.3       1 SER1        0.0000 
      9 OG         -0.5500   23.1000  -19.2600 O.3       1 SER1        0.0000 
     10 OG         -1.7200   22.7700  -18.3800 O.3       1 SER1        0.0000 
     11 OG         -2.4300   23.9900  -18.8800 O.3       1 SER1        0.0000 
     12 O           0.0200   22.6200  -21.2500 O.2       2 ALA2        0.0000 
     13 O          -0.7000   23.8400  -21.7500 O.2       2 ALA2        0.0000 
     14 O          -1.4200   25.0600  -22.2500 O.2       2 ALA2        0.0000 
     15 O          -2.1300   26.2800  -22.7400 O.2       2 ALA2        0.0000 
     16 O           0.6200   23.4300  -20.1400 O.2       2 ALA2        0.0000 
     17 O          -1.2600   24.3200  -19.7600 O.2       2 ALA2        0.0000 
     18 O          -1.9800   25.5400  -20.2600 O.2       2 ALA2        0.0000 
     19 O           0.2500   28.2200  -21.4100 O.2       2 ALA2        0.0000 
     20 N           1.2300   24.2400  -19.0300 N.am      2 ALA2        0.0000 
     21 O           0.5100   25.4600  -19.5300 O.2       2 ALA2        0.0000 
     22 O          -0.2000   26.6800  -20.0300 O.2       2 ALA2        0.0000 
     23 O          -0.9200   27.8900  -20.5300 O.2       2 ALA2        0.0000 
     24 O          -1.3700   26.3500  -19.1500 O.2       2 ALA2        0.0000 
     25 N           3.0100   25.3700  -18.8000 N.am      2 ALA2        0.0000 
     26 O           2.2900   26.5900  -19.3000 O.2       2 ALA2        0.0000 
     27 N           1.8400   25.0500  -17.9200 N.am      2 ALA2        0.0000 
     28 O           1.1200   26.2700  -18.4200 O.2       2 ALA2        0.0000 
     29 O           0.4000   27.4900  -18.9200 O.2       2 ALA2        0.0000 
     30 O           3.3500   28.9500  -19.5700 O.2       2 ALA2        0.0000 
     31 N           2.1800   28.6200  -18.6900 N.am      2 ALA2        0.0000 
     32 N           2.4400   25.8600  -16.8200 N.am      2 ALA2        0.0000 
     33 N           1.0100   28.2900  -17.8200 N.am      2 ALA2        0.0000 
     34 N           0.2900   29.5100  -18.3100 N.am      2 ALA2        0.0000 
     35 N          -0.8800   29.1900  -17.4300 N.am      2 ALA2        0.0000 
     36 N           3.5000   28.2100  -17.0900 N.am      2 ALA2        0.0000 
     37 N           2.7800   29.4300  -17.5900 N.am      2 ALA2        0.0000 
     38 N           2.3300   27.8900  -16.2100 N.am      2 ALA2        0.0000 
     39 N           1.6100   29.1000  -16.7100 N.am      2 ALA2        0.0000 
     40 N           1.8800   26.3400  -14.8300 N.am      2 ALA2        0.0000 
     41 N           1.1600   27.5600  -15.3300 N.am      2 ALA2        0.0000 
     42 N          -0.2700   30.0000  -16.3300 N.am      2 ALA2        0.0000 
     43 N           2.9400   28.6900  -15.1000 N.am      2 ALA2        0.0000 
     44 N           1.7700   28.3700  -14.2200 N.am      2 ALA2        0.0000 
     45 N           1.0500   29.5900  -14.7200 N.am      2 ALA2        0.0000 
     46 N           3.0900   27.9600  -12.6100 N.am      2 ALA2        0.0000 
     47 CA         -2.7400   25.4700  -23.8500 C.3       3 GLY6        0.0000 
     48 CA         -1.7600   21.4800  -21.4800 C.3       3 GLY6        0.0000 
     49 CA         -3.1900   23.9200  -22.4700 C.3       3 GLY6        0.0000 
     50 CA          0.7300   21.4000  -20.7500 C.3       3 GLY6        0.0000 
     51 CA         -2.8500   27.5000  -23.2400 C.3       3 GLY6        0.0000 
     52 CA         -0.4400   21.0700  -19.8700 C.3       3 GLY6        0.0000 
     53 CA         -3.3000   25.9500  -21.8700 C.3       3 GLY6        0.0000 
     54 CA          1.3400   22.2100  -19.6400 C.3       3 GLY6        0.0000 
     55 CA          0.1700   21.8800  -18.7600 C.3       3 GLY6        0.0000 
     56 CA         -3.4100   27.9800  -21.2600 C.3       3 GLY6        0.0000 
     57 CA          1.9500   23.0200  -18.5300 C.3       3 GLY6        0.0000 
     58 CA          0.7800   22.6900  -17.6500 C.3       3 GLY6        0.0000 
     59 CA          0.0600   23.9100  -18.1500 C.3       3 GLY6        0.0000 
     60 CA         -0.6600   25.1300  -18.6500 C.3       3 GLY6        0.0000 
     61 CA          1.5700   27.8100  -19.8000 C.3       3 GLY6        0.0000 
     62 CA          2.5500   23.8300  -17.4200 C.3       3 GLY6        0.0000 
     63 CA         -0.0500   25.9400  -17.5400 C.3       3 GLY6        0.0000 
     64 CA          2.8900   27.4000  -18.2000 C.3       3 GLY6        0.0000 
     65 CA          1.2700   25.5300  -15.9400 C.3       3 GLY6        0.0000 
     66 CA          0.5500   26.7500  -16.4400 C.3       3 GLY6        0.0000 
     67 CA         -0.6200   26.4200  -15.5600 C.3       3 GLY6        0.0000 
     68 CA         -0.0100   27.2300  -14.4500 C.3       3 GLY6        0.0000 
     69 DU         -0.3100   28.7000  -19.4200 H         4 CUB7        0.0000 
     70 DU         -0.7700   27.1600  -18.0400 H         4 CUB7        0.0000 
     71 DU          1.7200   27.0800  -17.3200 H         4 CUB7        0.0000 
     72 DU         -0.1600   27.9700  -16.9400 H         4 CUB7        0.0000 
     73 DU         -1.3300   27.6400  -16.0600 H         4 CUB7        0.0000 
     74 DU          0.4400   28.7800  -15.8300 H         4 CUB7        0.0000 
     75 DU         -0.7300   28.4500  -14.9500 H         4 CUB7        0.0000 
     76 DU          0.6000   28.0400  -13.3400 H         4 CUB7        0.0000 
     77 DU         -0.1200   29.2600  -13.8400 H         4 CUB7        0.0000 
     78 DU         -1.2900   28.9300  -12.9600 H         4 CUB7        0.0000 
@<TRIPOS>BOND
@<TRIPOS>SUBSTRUCTURE
     1 SER1        1 GROUP   
     2 ALA2       12 GROUP   
     3 GLY6       47 GROUP   
     4 CUB7       69 GROUP   
@<TRIPOS>SET

