#    Name: 6cep_8_NAD
#    Modification time : Fri May 22 19:25:06 2020

@<TRIPOS>MOLECULE
6cep_8_NAD
   44    48     1     0     1
SMALL
NO_CHARGES


@<TRIPOS>ATOM
      1 PA         -0.6530   29.3510  -12.2540 P.3       1 NAD401      0.0000 
      2 O1A        -1.7110   28.5770  -11.5000 O.co2     1 NAD401      0.0000 
      3 O2A        -0.7400   30.8580  -12.3310 O.co2     1 NAD401      0.0000 
      4 O5B         0.8020   28.9700  -11.6840 O.3       1 NAD401      0.0000 
      5 C5B         1.9280   29.8040  -11.9440 C.3       1 NAD401      0.0000 
      6 C4B         2.8980   29.6650  -10.7810 C.3       1 NAD401      0.0000 
      7 O4B         4.2320   30.0000  -11.1770 O.3       1 NAD401      0.0000 
      8 C3B         2.5190   30.6010   -9.6400 C.3       1 NAD401      0.0000 
      9 O3B         2.2960   29.8390   -8.4490 O.3       1 NAD401      0.0000 
     10 C2B         3.7220   31.5030   -9.4560 C.3       1 NAD401      0.0000 
     11 O2B         3.9780   31.7610   -8.0740 O.3       1 NAD401      0.0000 
     12 C1B         4.8390   30.6860  -10.0800 C.3       1 NAD401      0.0000 
     13 N9A         6.0110   31.5170  -10.4600 N.pl3     1 NAD401      0.0000 
     14 C8A         6.0220   32.6610  -11.1710 C.2       1 NAD401      0.0000 
     15 N7A         7.2920   33.1350  -11.3000 N.2       1 NAD401      0.0000 
     16 C5A         8.1140   32.2860  -10.6530 C.ar      1 NAD401      0.0000 
     17 C6A         9.5710   32.1740  -10.3900 C.ar      1 NAD401      0.0000 
     18 N6A        10.4430   33.0990  -10.8570 N.pl3     1 NAD401      0.0000 
     19 N1A        10.0070   31.1170   -9.6650 N.ar      1 NAD401      0.0000 
     20 C2A         9.1620   30.1840   -9.1900 C.ar      1 NAD401      0.0000 
     21 N3A         7.8330   30.2220   -9.3900 N.ar      1 NAD401      0.0000 
     22 C4A         7.2610   31.2260  -10.0970 C.ar      1 NAD401      0.0000 
     23 O3         -0.5530   28.7670  -13.7520 O.3       1 NAD401      0.0000 
     24 PN         -0.7950   27.2070  -14.0840 P.3       1 NAD401      0.0000 
     25 O1N        -0.2080   26.3650  -12.9770 O.co2     1 NAD401      0.0000 
     26 O2N        -2.2400   27.0380  -14.5000 O.co2     1 NAD401      0.0000 
     27 O5D         0.1220   27.0480  -15.3950 O.3       1 NAD401      0.0000 
     28 C5D         1.5000   26.7100  -15.2690 C.3       1 NAD401      0.0000 
     29 C4D         2.1580   26.7930  -16.6380 C.3       1 NAD401      0.0000 
     30 O4D         2.0390   25.5360  -17.3050 O.3       1 NAD401      0.0000 
     31 C3D         1.4720   27.8370  -17.5040 C.3       1 NAD401      0.0000 
     32 O3D         2.4490   28.7600  -17.9980 O.3       1 NAD401      0.0000 
     33 C2D         0.8670   27.0660  -18.6600 C.3       1 NAD401      0.0000 
     34 O2D         1.0520   27.7750  -19.8870 O.3       1 NAD401      0.0000 
     35 C1D         1.6200   25.7430  -18.6550 C.3       1 NAD401      0.0000 
     36 N1N         0.7900   24.6240  -19.1090 N.pl3     1 NAD401      0.0000 
     37 C2N         1.3140   23.7570  -19.9780 C.ar      1 NAD401      0.0000 
     38 C3N         0.5980   22.6690  -20.4560 C.ar      1 NAD401      0.0000 
     39 C7N         1.2610   21.7470  -21.4370 C.2       1 NAD401      0.0000 
     40 O7N         0.6440   20.7880  -21.8750 O.2       1 NAD401      0.0000 
     41 N7N         2.5170   22.0110  -21.8020 N.am      1 NAD401      0.0000 
     42 C4N        -0.8190   22.4070  -19.9990 C.ar      1 NAD401      0.0000 
     43 C5N        -1.2700   23.4170  -19.0490 C.ar      1 NAD401      0.0000 
     44 C6N        -0.4560   24.4720  -18.6440 C.ar      1 NAD401      0.0000 
@<TRIPOS>BOND
     1    1    2 ar   
     2    1    3 ar   
     3    1    4 1    
     4    1   23 1    
     5    4    5 1    
     6    5    6 1    
     7    6    7 1    
     8    6    8 1    
     9    7   12 1    
    10    8    9 1    
    11    8   10 1    
    12   10   11 1    
    13   10   12 1    
    14   12   13 1    
    15   13   14 1    
    16   13   22 1    
    17   14   15 2    
    18   15   16 1    
    19   16   17 ar   
    20   16   22 ar   
    21   17   18 1    
    22   17   19 ar   
    23   19   20 ar   
    24   20   21 ar   
    25   21   22 ar   
    26   23   24 1    
    27   24   25 ar   
    28   24   26 ar   
    29   24   27 1    
    30   27   28 1    
    31   28   29 1    
    32   29   30 1    
    33   29   31 1    
    34   30   35 1    
    35   31   32 1    
    36   31   33 1    
    37   33   34 1    
    38   33   35 1    
    39   35   36 1    
    40   36   37 ar   
    41   36   44 ar   
    42   37   38 ar   
    43   38   39 1    
    44   38   42 ar   
    45   39   40 2    
    46   39   41 am   
    47   42   43 ar   
    48   43   44 ar   
@<TRIPOS>SUBSTRUCTURE
     1 NAD401      1 GROUP   
@<TRIPOS>SET
ATOM$ORANGE STATIC     ATOMS   COLORGROUP SYSTEM 
42 5 5 6 6 8 8 10 10 12 12 14 14 16 16 17 17 20 \
20 22 22 28 28 29 29 31 31 33 33 35 35 37 37 38 38 39 \
39 42 42 43 43 44 44 

