#    Name: 6lr5_2_FMN
#    Modification time : Fri May 22 19:25:48 2020

@<TRIPOS>MOLECULE
6lr5_2_FMN
   31    33     1     0     1
SMALL
NO_CHARGES


@<TRIPOS>ATOM
      1 N1         29.8130  168.0860  -15.5520 N.2       1 FMN501      0.0000 
      2 C2         28.8230  167.9800  -14.6200 C.2       1 FMN501      0.0000 
      3 O2         28.2350  169.0260  -14.2560 O.2       1 FMN501      0.0000 
      4 N3         28.4550  166.7910  -14.0770 N.am      1 FMN501      0.0000 
      5 C4         29.0420  165.6270  -14.4180 C.2       1 FMN501      0.0000 
      6 O4         28.6600  164.5450  -13.8990 O.2       1 FMN501      0.0000 
      7 C4A        30.1350  165.6830  -15.4370 C.2       1 FMN501      0.0000 
      8 N5         30.7810  164.5840  -15.8520 N.2       1 FMN501      0.0000 
      9 C5A        31.7650  164.6330  -16.7790 C.ar      1 FMN501      0.0000 
     10 C6         32.3820  163.4530  -17.1680 C.ar      1 FMN501      0.0000 
     11 C7         33.3850  163.4360  -18.1110 C.ar      1 FMN501      0.0000 
     12 C7M        33.9960  162.1260  -18.4820 C.3       1 FMN501      0.0000 
     13 C8         33.8140  164.6940  -18.7230 C.ar      1 FMN501      0.0000 
     14 C8M        34.9110  164.7240  -19.7480 C.3       1 FMN501      0.0000 
     15 C9         33.2010  165.8620  -18.3380 C.ar      1 FMN501      0.0000 
     16 C9A        32.1860  165.9070  -17.3840 C.ar      1 FMN501      0.0000 
     17 N10        31.5430  167.0940  -16.9540 N.pl3     1 FMN501      0.0000 
     18 C10        30.5000  167.0060  -16.0010 C.2       1 FMN501      0.0000 
     19 C1'        31.8990  168.3980  -17.5340 C.3       1 FMN501      0.0000 
     20 C2'        33.3450  168.8480  -17.2600 C.3       1 FMN501      0.0000 
     21 O2'        33.3290  169.6710  -16.0950 O.3       1 FMN501      0.0000 
     22 C3'        33.9240  169.5280  -18.5280 C.3       1 FMN501      0.0000 
     23 O3'        34.8080  168.6470  -19.2380 O.3       1 FMN501      0.0000 
     24 C4'        34.6990  170.7870  -18.2510 C.3       1 FMN501      0.0000 
     25 O4'        33.8220  171.6760  -17.5790 O.3       1 FMN501      0.0000 
     26 C5'        35.1880  171.4710  -19.5230 C.3       1 FMN501      0.0000 
     27 O5'        36.3510  172.2070  -19.1780 O.3       1 FMN501      0.0000 
     28 P          36.2240  173.5210  -18.2510 P.3       1 FMN501      0.0000 
     29 O1P        35.5510  173.1440  -16.9570 O.co2     1 FMN501      0.0000 
     30 O2P        37.6530  173.9900  -18.0890 O.co2     1 FMN501      0.0000 
     31 O3P        35.3400  174.4050  -19.0960 O.co2     1 FMN501      0.0000 
@<TRIPOS>BOND
     1    1    2 1    
     2    1   18 2    
     3    2    3 2    
     4    2    4 am   
     5    4    5 am   
     6    5    6 2    
     7    5    7 1    
     8    7    8 2    
     9    7   18 1    
    10    8    9 1    
    11    9   10 ar   
    12    9   16 ar   
    13   10   11 ar   
    14   11   12 1    
    15   11   13 ar   
    16   13   14 1    
    17   13   15 ar   
    18   15   16 ar   
    19   16   17 1    
    20   17   18 1    
    21   17   19 1    
    22   19   20 1    
    23   20   21 1    
    24   20   22 1    
    25   22   23 1    
    26   22   24 1    
    27   24   25 1    
    28   24   26 1    
    29   26   27 1    
    30   27   28 1    
    31   28   29 ar   
    32   28   30 ar   
    33   28   31 ar   
@<TRIPOS>SUBSTRUCTURE
     1 FMN501      1 GROUP   
@<TRIPOS>SET
ATOM$ORANGE STATIC     ATOMS   COLORGROUP SYSTEM 
34 2 2 5 5 7 7 9 9 10 10 11 11 12 12 13 13 14 \
14 15 15 16 16 18 18 19 19 20 20 22 22 24 24 26 26 

