#    Name: 6lr5_1_FMN
#    Modification time : Fri May 22 19:25:42 2020

@<TRIPOS>MOLECULE
6lr5_1_FMN
   31    33     1     0     1
SMALL
NO_CHARGES


@<TRIPOS>ATOM
      1 N1         17.1750  168.1900   15.5730 N.2       1 FMN501      0.0000 
      2 C2         18.1060  168.0580   14.5840 C.2       1 FMN501      0.0000 
      3 O2         18.7240  169.0750   14.1620 O.2       1 FMN501      0.0000 
      4 N3         18.3880  166.8480   14.0440 N.am      1 FMN501      0.0000 
      5 C4         17.7710  165.7130   14.4340 C.2       1 FMN501      0.0000 
      6 O4         18.0790  164.6170   13.9080 O.2       1 FMN501      0.0000 
      7 C4A        16.7410  165.7960   15.5050 C.2       1 FMN501      0.0000 
      8 N5         16.0650  164.7180   15.9720 N.2       1 FMN501      0.0000 
      9 C5A        15.1230  164.7840   16.9540 C.ar      1 FMN501      0.0000 
     10 C6         14.4550  163.6350   17.4150 C.ar      1 FMN501      0.0000 
     11 C7         13.4870  163.6960   18.4290 C.ar      1 FMN501      0.0000 
     12 C7M        12.8060  162.4330   18.9020 C.3       1 FMN501      0.0000 
     13 C8         13.1700  165.0170   19.0350 C.ar      1 FMN501      0.0000 
     14 C8M        12.1370  165.1810   20.1230 C.3       1 FMN501      0.0000 
     15 C9         13.8370  166.1400   18.5750 C.ar      1 FMN501      0.0000 
     16 C9A        14.8060  166.1020   17.5560 C.ar      1 FMN501      0.0000 
     17 N10        15.5040  167.2480   17.0660 N.pl3     1 FMN501      0.0000 
     18 C10        16.4780  167.1330   16.0570 C.2       1 FMN501      0.0000 
     19 C1'        15.2190  168.5670   17.6110 C.3       1 FMN501      0.0000 
     20 C2'        13.7840  168.9690   17.2230 C.3       1 FMN501      0.0000 
     21 O2'        13.7700  169.6550   15.9560 O.3       1 FMN501      0.0000 
     22 C3'        13.2410  169.7410   18.4360 C.3       1 FMN501      0.0000 
     23 O3'        12.4520  168.9080   19.3060 O.3       1 FMN501      0.0000 
     24 C4'        12.4120  170.9270   18.0420 C.3       1 FMN501      0.0000 
     25 O4'        13.1460  171.7110   17.0910 O.3       1 FMN501      0.0000 
     26 C5'        12.1140  171.7380   19.2940 C.3       1 FMN501      0.0000 
     27 O5'        10.8440  172.3160   19.1030 O.3       1 FMN501      0.0000 
     28 P          10.7330  173.6090   18.1670 P.3       1 FMN501      0.0000 
     29 O1P        11.5250  174.6620   18.9020 O.co2     1 FMN501      0.0000 
     30 O2P        11.3320  173.2260   16.8380 O.co2     1 FMN501      0.0000 
     31 O3P         9.2460  173.8490   18.1690 O.co2     1 FMN501      0.0000 
@<TRIPOS>BOND
     1    1    2 1    
     2    1   18 2    
     3    2    3 2    
     4    2    4 am   
     5    4    5 am   
     6    5    6 2    
     7    5    7 1    
     8    7    8 2    
     9    7   18 1    
    10    8    9 1    
    11    9   10 ar   
    12    9   16 ar   
    13   10   11 ar   
    14   11   12 1    
    15   11   13 ar   
    16   13   14 1    
    17   13   15 ar   
    18   15   16 ar   
    19   16   17 1    
    20   17   18 1    
    21   17   19 1    
    22   19   20 1    
    23   20   21 1    
    24   20   22 1    
    25   22   23 1    
    26   22   24 1    
    27   24   25 1    
    28   24   26 1    
    29   26   27 1    
    30   27   28 1    
    31   28   29 ar   
    32   28   30 ar   
    33   28   31 ar   
@<TRIPOS>SUBSTRUCTURE
     1 FMN501      1 GROUP   
@<TRIPOS>SET
ATOM$ORANGE STATIC     ATOMS   COLORGROUP SYSTEM 
34 2 2 5 5 7 7 9 9 10 10 11 11 12 12 13 13 14 \
14 15 15 16 16 18 18 19 19 20 20 22 22 24 24 26 26 

