#    Name: 6neu_2_FAD
#    Modification time : Fri May 22 19:25:31 2020

@<TRIPOS>MOLECULE
6neu_2_FAD
   84    89     1     0     1
SMALL
NO_CHARGES


@<TRIPOS>ATOM
      1 PA         60.4140   92.3670   97.3010 P.3       1 FAD501      0.0000 
      2 O1A        60.4200   93.8270   97.6600 O.co2     1 FAD501      0.0000 
      3 O2A        61.7620   91.8230   96.8740 O.co2     1 FAD501      0.0000 
      4 O5B        59.2900   91.9850   96.2040 O.3       1 FAD501      0.0000 
      5 C5B        58.0550   92.5890   96.4240 C.3       1 FAD501      0.0000 
      6 C4B        57.2880   92.5770   95.0790 C.3       1 FAD501      0.0000 
      7 O4B        56.0420   92.9520   95.1720 O.3       1 FAD501      0.0000 
      8 C3B        57.9820   93.5600   94.0720 C.3       1 FAD501      0.0000 
      9 O3B        58.2730   92.8270   92.9720 O.3       1 FAD501      0.0000 
     10 C2B        56.9380   94.6630   93.8620 C.3       1 FAD501      0.0000 
     11 O2B        57.0540   95.3560   92.5440 O.3       1 FAD501      0.0000 
     12 C1B        55.8310   93.9990   93.9630 C.3       1 FAD501      0.0000 
     13 N9A        54.7700   94.8440   94.4050 N.pl3     1 FAD501      0.0000 
     14 C8A        54.7970   95.8200   95.3160 C.2       1 FAD501      0.0000 
     15 N7A        53.5510   96.2900   95.4250 N.2       1 FAD501      0.0000 
     16 C5A        52.7810   95.6150   94.5920 C.ar      1 FAD501      0.0000 
     17 C6A        51.4640   95.7180   94.3290 C.ar      1 FAD501      0.0000 
     18 N6A        50.4870   96.6010   94.8910 N.pl3     1 FAD501      0.0000 
     19 N1A        50.9180   94.8900   93.4300 N.ar      1 FAD501      0.0000 
     20 C2A        51.6680   93.9410   92.8050 C.ar      1 FAD501      0.0000 
     21 N3A        52.9810   93.8350   93.0710 N.ar      1 FAD501      0.0000 
     22 C4A        53.5210   94.6930   93.9590 C.ar      1 FAD501      0.0000 
     23 N1         68.3990   89.1140  102.4000 N.2       1 FAD501      0.0000 
     24 C2         69.1060   87.8490  102.4980 C.2       1 FAD501      0.0000 
     25 O2         68.5330   86.8530  102.8220 O.2       1 FAD501      0.0000 
     26 N3         70.5190   87.8280  102.1610 N.am      1 FAD501      0.0000 
     27 C4         71.1830   88.9900  101.7220 C.2       1 FAD501      0.0000 
     28 O4         72.3380   88.9500  101.4580 O.2       1 FAD501      0.0000 
     29 C4X        70.4690   90.2770  101.6630 C.2       1 FAD501      0.0000 
     30 N5         71.1720   91.4920  101.2710 N.2       1 FAD501      0.0000 
     31 C5X        70.3760   92.7300  101.2580 C.ar      1 FAD501      0.0000 
     32 C6         71.0230   93.8920  100.8860 C.ar      1 FAD501      0.0000 
     33 C7         70.3310   95.0880  100.8520 C.ar      1 FAD501      0.0000 
     34 C7M        71.1890   96.2740  100.4490 C.3       1 FAD501      0.0000 
     35 C8         68.9910   95.1250  101.1760 C.ar      1 FAD501      0.0000 
     36 C8M        68.3220   96.4880  101.1030 C.3       1 FAD501      0.0000 
     37 C9         68.3240   93.9540  101.5430 C.ar      1 FAD501      0.0000 
     38 C9A        69.0240   92.7550  101.5930 C.ar      1 FAD501      0.0000 
     39 N10        68.3440   91.5130  102.0000 N.pl3     1 FAD501      0.0000 
     40 C10        69.0850   90.2950  102.0040 C.2       1 FAD501      0.0000 
     41 C1'        66.9190   91.4400  102.3280 C.3       1 FAD501      0.0000 
     42 C2'        66.1660   90.9110  101.1160 C.3       1 FAD501      0.0000 
     43 O2'        66.5580   91.5900   99.9430 O.3       1 FAD501      0.0000 
     44 C3'        64.6850   91.1490  101.3080 C.3       1 FAD501      0.0000 
     45 O3'        64.2660   90.5590  102.4780 O.3       1 FAD501      0.0000 
     46 C4'        63.8770   90.5250  100.1750 C.3       1 FAD501      0.0000 
     47 O4'        64.2790   91.2220   99.0400 O.3       1 FAD501      0.0000 
     48 C5'        62.3660   90.6400  100.3600 C.3       1 FAD501      0.0000 
     49 O5'        61.7380   89.8700   99.3870 O.3       1 FAD501      0.0000 
     50 P          60.1720   90.0980   99.1230 P.3       1 FAD501      0.0000 
     51 O1P        59.7520   89.1850   97.9700 O.co2     1 FAD501      0.0000 
     52 O2P        59.2910   90.0560  100.3610 O.co2     1 FAD501      0.0000 
     53 O3P        59.9710   91.6960   98.7210 O.3       1 FAD501      0.0000 
     54 H51A       58.1820   93.5020   96.7260 H         1 FAD501      0.0000 
     55 H52A       57.5580   92.0940   97.0940 H         1 FAD501      0.0000 
     56 H4B        57.2740   91.6710   94.7320 H         1 FAD501      0.0000 
     57 H3B        58.7860   93.9950   94.3960 H         1 FAD501      0.0000 
     58 HO3A       59.0470   92.4860   93.0550 H         1 FAD501      0.0000 
     59 H2B        57.0250   95.3540   94.5370 H         1 FAD501      0.0000 
     60 HO2A       57.5720   96.0260   92.6210 H         1 FAD501      0.0000 
     61 H1B        55.6610   93.5770   93.1060 H         1 FAD501      0.0000 
     62 H8A        55.5430   96.1160   95.7860 H         1 FAD501      0.0000 
     63 H61A       49.7710   96.7850   94.4520 H         1 FAD501      0.0000 
     64 H62A       50.6170   96.9470   95.6670 H         1 FAD501      0.0000 
     65 H2A        51.2710   93.3650   92.1920 H         1 FAD501      0.0000 
     66 HN3        70.9580   87.0920  102.2310 H         1 FAD501      0.0000 
     67 H6         71.9240   93.8700  100.6580 H         1 FAD501      0.0000 
     68 HM71       71.0390   97.0070  101.0670 H         1 FAD501      0.0000 
     69 HM72       70.9520   96.5550   99.5510 H         1 FAD501      0.0000 
     70 HM73       72.1250   96.0190  100.4710 H         1 FAD501      0.0000 
     71 HM81       68.9030   97.1550  101.5000 H         1 FAD501      0.0000 
     72 HM82       68.1540   96.7160  100.1750 H         1 FAD501      0.0000 
     73 HM83       67.4810   96.4620  101.5870 H         1 FAD501      0.0000 
     74 H9         67.4180   93.9770  101.7530 H         1 FAD501      0.0000 
     75 H1'1       66.5910   92.3240  102.5550 H         1 FAD501      0.0000 
     76 H1'2       66.7870   90.8430  103.0800 H         1 FAD501      0.0000 
     77 H2'        66.3630   89.9650  101.0280 H         1 FAD501      0.0000 
     78 HO2'       66.1400   92.3280   99.8900 H         1 FAD501      0.0000 
     79 H3'        64.5460   92.1080  101.3270 H         1 FAD501      0.0000 
     80 HO3'       63.8870   91.1400  102.9680 H         1 FAD501      0.0000 
     81 H4'        64.0420   89.5700  100.1280 H         1 FAD501      0.0000 
     82 HO4'       63.8820   90.9060   98.3580 H         1 FAD501      0.0000 
     83 H5'1       62.0960   91.5670  100.2680 H         1 FAD501      0.0000 
     84 H5'2       62.1200   90.3170  101.2410 H         1 FAD501      0.0000 
@<TRIPOS>BOND
     1    1    2 ar   
     2    1    3 ar   
     3    1    4 1    
     4    1   53 1    
     5    4    5 1    
     6    5    6 1    
     7    5   54 1    
     8    5   55 1    
     9    6    7 1    
    10    6    8 1    
    11    6   56 1    
    12    7   12 1    
    13    8    9 1    
    14    8   10 1    
    15    8   57 1    
    16    9   58 1    
    17   10   11 1    
    18   10   12 1    
    19   10   59 1    
    20   12   61 1    
    21   12   13 1    
    22   11   60 1    
    23   13   14 1    
    24   13   22 1    
    25   14   15 2    
    26   15   16 1    
    27   14   62 1    
    28   16   17 ar   
    29   16   22 ar   
    30   17   18 1    
    31   17   19 ar   
    32   19   20 ar   
    33   18   63 1    
    34   18   64 1    
    35   20   21 ar   
    36   21   22 ar   
    37   20   65 1    
    38   23   24 1    
    39   23   40 2    
    40   24   25 2    
    41   24   26 am   
    42   26   27 am   
    43   27   28 2    
    44   26   66 1    
    45   27   29 1    
    46   29   30 2    
    47   29   40 1    
    48   30   31 1    
    49   31   32 ar   
    50   31   38 ar   
    51   32   33 ar   
    52   33   34 1    
    53   32   67 1    
    54   33   35 ar   
    55   34   68 1    
    56   34   69 1    
    57   34   70 1    
    58   35   36 1    
    59   35   37 ar   
    60   36   71 1    
    61   36   72 1    
    62   36   73 1    
    63   37   38 ar   
    64   38   39 1    
    65   37   74 1    
    66   39   40 1    
    67   39   41 1    
    68   41   42 1    
    69   41   75 1    
    70   41   76 1    
    71   42   43 1    
    72   42   44 1    
    73   42   77 1    
    74   43   78 1    
    75   44   45 1    
    76   44   46 1    
    77   44   79 1    
    78   45   80 1    
    79   46   47 1    
    80   46   48 1    
    81   46   81 1    
    82   47   82 1    
    83   48   49 1    
    84   48   83 1    
    85   48   84 1    
    86   49   50 1    
    87   50   51 ar   
    88   50   52 ar   
    89   50   53 1    
@<TRIPOS>SUBSTRUCTURE
     1 FAD501      1 GROUP   
@<TRIPOS>SET
ATOM$ORANGE STATIC     ATOMS   COLORGROUP SYSTEM 
54 5 5 6 6 8 8 10 10 12 12 14 14 16 16 17 17 20 \
20 22 22 24 24 27 27 29 29 31 31 32 32 33 33 34 34 35 \
35 36 36 37 37 38 38 40 40 41 41 42 42 44 44 46 46 48 \
48 

