#    Name: 6neu_1_FAD
#    Modification time : Fri May 22 19:25:22 2020

@<TRIPOS>MOLECULE
6neu_1_FAD
   84    89     1     0     1
SMALL
NO_CHARGES


@<TRIPOS>ATOM
      1 PA         60.7090   46.2170   92.3660 P.3       1 FAD501      0.0000 
      2 O1A        60.8870   44.7300   92.3210 O.co2     1 FAD501      0.0000 
      3 O2A        59.2790   46.6140   92.6230 O.co2     1 FAD501      0.0000 
      4 O5B        61.2010   46.9170   90.9530 O.3       1 FAD501      0.0000 
      5 C5B        62.3070   46.3640   90.3290 C.3       1 FAD501      0.0000 
      6 C4B        62.3340   46.8870   88.8690 C.3       1 FAD501      0.0000 
      7 O4B        63.4540   46.5450   88.2740 O.3       1 FAD501      0.0000 
      8 C3B        61.1810   46.2290   88.0860 C.3       1 FAD501      0.0000 
      9 O3B        60.5740   47.2060   87.3460 O.3       1 FAD501      0.0000 
     10 C2B        61.9080   45.1700   87.2100 C.3       1 FAD501      0.0000 
     11 O2B        60.9900   44.9760   86.0450 O.3       1 FAD501      0.0000 
     12 C1B        63.0400   45.7330   86.9230 C.3       1 FAD501      0.0000 
     13 N9A        64.1530   44.8430   86.6510 N.pl3     1 FAD501      0.0000 
     14 C8A        64.4730   43.6820   87.2400 C.2       1 FAD501      0.0000 
     15 N7A        65.5830   43.2040   86.6600 N.2       1 FAD501      0.0000 
     16 C5A        65.9460   44.0740   85.7030 C.ar      1 FAD501      0.0000 
     17 C6A        66.9810   44.0500   84.8180 C.ar      1 FAD501      0.0000 
     18 N6A        68.0270   43.0870   84.6340 N.pl3     1 FAD501      0.0000 
     19 N1A        67.1550   45.0440   83.9600 N.ar      1 FAD501      0.0000 
     20 C2A        66.2820   46.0880   83.9420 C.ar      1 FAD501      0.0000 
     21 N3A        65.2470   46.1180   84.8020 N.ar      1 FAD501      0.0000 
     22 C4A        65.0820   45.1000   85.6980 C.ar      1 FAD501      0.0000 
     23 N1         56.3180   48.0410  101.2140 N.2       1 FAD501      0.0000 
     24 C2         55.8010   49.2530  101.8010 C.2       1 FAD501      0.0000 
     25 O2         56.5150   50.1680  101.9870 O.2       1 FAD501      0.0000 
     26 N3         54.3980   49.3120  102.1780 N.am      1 FAD501      0.0000 
     27 C4         53.5420   48.1970  101.9610 C.2       1 FAD501      0.0000 
     28 O4         52.3970   48.3230  102.2580 O.2       1 FAD501      0.0000 
     29 C4X        54.0910   46.9790  101.3180 C.2       1 FAD501      0.0000 
     30 N5         53.2510   45.8190  101.0670 N.2       1 FAD501      0.0000 
     31 C5X        53.8720   44.6090  100.5010 C.ar      1 FAD501      0.0000 
     32 C6         53.1020   43.4440  100.2960 C.ar      1 FAD501      0.0000 
     33 C7         53.6840   42.2990   99.7320 C.ar      1 FAD501      0.0000 
     34 C7M        52.7300   41.0930   99.5310 C.3       1 FAD501      0.0000 
     35 C8         55.0330   42.3170   99.4150 C.ar      1 FAD501      0.0000 
     36 C8M        55.6730   41.1070   98.7790 C.3       1 FAD501      0.0000 
     37 C9         55.8010   43.4630   99.6260 C.ar      1 FAD501      0.0000 
     38 C9A        55.2350   44.6070  100.1680 C.ar      1 FAD501      0.0000 
     39 N10        56.0800   45.7820  100.4000 N.pl3     1 FAD501      0.0000 
     40 C10        55.4680   46.9360  100.9750 C.2       1 FAD501      0.0000 
     41 C1'        57.5160   45.8130  100.0180 C.3       1 FAD501      0.0000 
     42 C2'        57.5810   46.5980   98.6640 C.3       1 FAD501      0.0000 
     43 O2'        56.6470   46.1780   97.6800 O.3       1 FAD501      0.0000 
     44 C3'        58.9300   46.4650   97.9630 C.3       1 FAD501      0.0000 
     45 O3'        59.9380   46.7770   98.8910 O.3       1 FAD501      0.0000 
     46 C4'        59.1080   47.3800   96.7530 C.3       1 FAD501      0.0000 
     47 O4'        58.3530   46.9700   95.6390 O.3       1 FAD501      0.0000 
     48 C5'        60.5790   47.4070   96.2680 C.3       1 FAD501      0.0000 
     49 O5'        60.7530   48.3900   95.2710 O.3       1 FAD501      0.0000 
     50 P          61.9340   48.2050   94.1500 P.3       1 FAD501      0.0000 
     51 O1P        61.8000   49.3220   93.1470 O.co2     1 FAD501      0.0000 
     52 O2P        63.3070   48.0630   94.7870 O.co2     1 FAD501      0.0000 
     53 O3P        61.7170   46.7050   93.5220 O.3       1 FAD501      0.0000 
     54 H51A       63.1170   46.6330   90.7920 H         1 FAD501      0.0000 
     55 H52A       62.2400   45.3960   90.3330 H         1 FAD501      0.0000 
     56 H4B        62.2550   47.8530   88.8320 H         1 FAD501      0.0000 
     57 H3B        60.5230   45.7840   88.6420 H         1 FAD501      0.0000 
     58 HO3A       59.7330   47.0820   87.3480 H         1 FAD501      0.0000 
     59 H2B        62.1220   44.3220   87.6310 H         1 FAD501      0.0000 
     60 HO2A       60.2520   44.6530   86.3170 H         1 FAD501      0.0000 
     61 H1B        62.8610   46.2740   86.1370 H         1 FAD501      0.0000 
     62 H8A        64.0050   43.2760   87.9340 H         1 FAD501      0.0000 
     63 H61A       68.6210   43.2080   84.0250 H         1 FAD501      0.0000 
     64 H62A       68.0590   42.3870   85.1330 H         1 FAD501      0.0000 
     65 H2A        66.4010   46.7820   83.3340 H         1 FAD501      0.0000 
     66 HN3        54.0830   50.0270  102.5360 H         1 FAD501      0.0000 
     67 H6         52.2040   43.4360  100.5370 H         1 FAD501      0.0000 
     68 HM71       51.9400   41.2100  100.0820 H         1 FAD501      0.0000 
     69 HM72       53.1840   40.2750   99.7870 H         1 FAD501      0.0000 
     70 HM73       52.4680   41.0390   98.5990 H         1 FAD501      0.0000 
     71 HM81       55.1400   40.3200   98.9730 H         1 FAD501      0.0000 
     72 HM82       56.5670   40.9890   99.1370 H         1 FAD501      0.0000 
     73 HM83       55.7240   41.2360   97.8190 H         1 FAD501      0.0000 
     74 H9         56.7030   43.4590   99.4010 H         1 FAD501      0.0000 
     75 H1'1       57.8550   44.9120   99.9030 H         1 FAD501      0.0000 
     76 H1'2       58.0370   46.2700  100.6980 H         1 FAD501      0.0000 
     77 H2'        57.3920   47.5020   98.9580 H         1 FAD501      0.0000 
     78 HO2'       56.4580   46.8320   97.1710 H         1 FAD501      0.0000 
     79 H3'        58.9810   45.5540   97.6350 H         1 FAD501      0.0000 
     80 HO3'       60.1760   46.0710   99.2990 H         1 FAD501      0.0000 
     81 H4'        58.8110   48.2490   97.0640 H         1 FAD501      0.0000 
     82 HO4'       58.3600   47.5830   95.0510 H         1 FAD501      0.0000 
     83 H5'1       60.8120   46.5380   95.9040 H         1 FAD501      0.0000 
     84 H5'2       61.1590   47.6080   97.0190 H         1 FAD501      0.0000 
@<TRIPOS>BOND
     1    1    2 ar   
     2    1    3 ar   
     3    1    4 1    
     4    1   53 1    
     5    4    5 1    
     6    5    6 1    
     7    5   54 1    
     8    5   55 1    
     9    6    7 1    
    10    6    8 1    
    11    6   56 1    
    12    7   12 1    
    13    8    9 1    
    14    8   10 1    
    15    8   57 1    
    16    9   58 1    
    17   10   11 1    
    18   10   12 1    
    19   10   59 1    
    20   12   61 1    
    21   12   13 1    
    22   11   60 1    
    23   13   14 1    
    24   13   22 1    
    25   14   15 2    
    26   15   16 1    
    27   14   62 1    
    28   16   17 ar   
    29   16   22 ar   
    30   17   18 1    
    31   17   19 ar   
    32   19   20 ar   
    33   18   63 1    
    34   18   64 1    
    35   20   21 ar   
    36   21   22 ar   
    37   20   65 1    
    38   23   24 1    
    39   23   40 2    
    40   24   25 2    
    41   24   26 am   
    42   26   27 am   
    43   27   28 2    
    44   26   66 1    
    45   27   29 1    
    46   29   30 2    
    47   29   40 1    
    48   30   31 1    
    49   31   32 ar   
    50   31   38 ar   
    51   32   33 ar   
    52   33   34 1    
    53   32   67 1    
    54   33   35 ar   
    55   34   68 1    
    56   34   69 1    
    57   34   70 1    
    58   35   36 1    
    59   35   37 ar   
    60   36   71 1    
    61   36   72 1    
    62   36   73 1    
    63   37   38 ar   
    64   38   39 1    
    65   37   74 1    
    66   39   40 1    
    67   39   41 1    
    68   41   42 1    
    69   41   75 1    
    70   41   76 1    
    71   42   43 1    
    72   42   44 1    
    73   42   77 1    
    74   43   78 1    
    75   44   45 1    
    76   44   46 1    
    77   44   79 1    
    78   45   80 1    
    79   46   47 1    
    80   46   48 1    
    81   46   81 1    
    82   47   82 1    
    83   48   49 1    
    84   48   83 1    
    85   48   84 1    
    86   49   50 1    
    87   50   51 ar   
    88   50   52 ar   
    89   50   53 1    
@<TRIPOS>SUBSTRUCTURE
     1 FAD501      1 GROUP   
@<TRIPOS>SET
ATOM$ORANGE STATIC     ATOMS   COLORGROUP SYSTEM 
54 5 5 6 6 8 8 10 10 12 12 14 14 16 16 17 17 20 \
20 22 22 24 24 27 27 29 29 31 31 32 32 33 33 34 34 35 \
35 36 36 37 37 38 38 40 40 41 41 42 42 44 44 46 46 48 \
48 

