#    Name: 5o4v_3_NHW
#    Modification time : Fri May 22 19:15:53 2020

@<TRIPOS>MOLECULE
5o4v_3_NHW
   64    66     1     0     0
SMALL
NO_CHARGES


@<TRIPOS>ATOM
      1 S1         11.5890  -11.3840   86.3450 S.3       1 NHW501      0.0000 
      2 C2         11.7240  -12.9500   87.3390 C.3       1 NHW501      0.0000 
      3 C3         13.1910  -13.4830   87.6990 C.3       1 NHW501      0.0000 
      4 N4         13.0410  -14.6000   88.6480 N.am      1 NHW501      0.0000 
      5 C5         12.8170  -14.5390   89.9430 C.2       1 NHW501      0.0000 
      6 O5         12.6680  -13.5050   90.6110 O.2       1 NHW501      0.0000 
      7 C6         12.7710  -15.8870   90.6190 C.3       1 NHW501      0.0000 
      8 C7         13.2610  -15.7560   92.0370 C.3       1 NHW501      0.0000 
      9 N8         14.6880  -15.3320   92.0470 N.am      1 NHW501      0.0000 
     10 C9         15.6950  -16.0380   91.4900 C.2       1 NHW501      0.0000 
     11 O9         15.6050  -17.1270   90.8750 O.2       1 NHW501      0.0000 
     12 CP         11.0730  -12.2500   84.8070 C.3       1 NHW501      0.0000 
     13 C10        17.0550  -15.3470   91.6170 C.3       1 NHW501      0.0000 
     14 O10        17.0390  -14.3440   92.6650 O.3       1 NHW501      0.0000 
     15 C11        17.5320  -14.7030   90.2810 C.3       1 NHW501      0.0000 
     16 C12        18.8190  -13.8920   90.5030 C.3       1 NHW501      0.0000 
     17 C13        16.4640  -13.7640   89.7510 C.3       1 NHW501      0.0000 
     18 C14        17.8510  -15.7660   89.2100 C.3       1 NHW501      0.0000 
     19 N1A        16.5790   -9.7610   85.9500 N.ar      1 NHW501      0.0000 
     20 O1A        24.1310  -13.5490   92.3030 O.co2     1 NHW501      0.0000 
     21 P1A        23.0510  -13.7360   91.3510 P.3       1 NHW501      0.0000 
     22 C1M        12.3180  -12.6570   83.9890 C.2       1 NHW501      0.0000 
     23 O1M        12.6450  -13.8360   84.0150 O.2       1 NHW501      0.0000 
     24 C1X        20.9430   -9.4570   88.7200 C.3       1 NHW501      0.0000 
     25 C2A        17.7860   -9.4230   85.5360 C.ar      1 NHW501      0.0000 
     26 O2A        23.0610  -14.9550   90.5180 O.co2     1 NHW501      0.0000 
     27 P2A        20.5490  -14.5080   92.4020 P.3       1 NHW501      0.0000 
     28 C2M        13.1920  -11.6180   83.2800 C.3       1 NHW501      0.0000 
     29 C2X        21.4190   -8.5480   89.8660 C.3       1 NHW501      0.0000 
     30 O2X        21.1750   -7.2230   89.4110 O.3       1 NHW501      0.0000 
     31 N3A        18.7880   -9.3540   86.3900 N.ar      1 NHW501      0.0000 
     32 O3A        21.5910  -13.4340   92.0410 O.3       1 NHW501      0.0000 
     33 C3M        14.7330  -11.9170   83.3810 C.3       1 NHW501      0.0000 
     34 C3X        22.9120   -8.8280   89.8410 C.3       1 NHW501      0.0000 
     35 O3X        23.5220   -8.0510   88.7680 O.3       1 NHW501      0.0000 
     36 P3X        24.3370   -6.7570   89.3300 P.3       1 NHW501      0.0000 
     37 C4A        18.6440   -9.6960   87.7000 C.ar      1 NHW501      0.0000 
     38 O4A        19.5440  -13.7790   93.2420 O.co2     1 NHW501      0.0000 
     39 C4M        15.5540  -10.9860   82.4940 C.3       1 NHW501      0.0000 
     40 C4X        22.9610  -10.3100   89.4900 C.3       1 NHW501      0.0000 
     41 O4X        21.6460  -10.6550   88.8500 O.3       1 NHW501      0.0000 
     42 C5A        17.4060  -10.0810   88.1540 C.ar      1 NHW501      0.0000 
     43 O5A        21.0860  -15.7020   92.9780 O.co2     1 NHW501      0.0000 
     44 C5M        17.0750  -11.4140   82.5640 C.3       1 NHW501      0.0000 
     45 C5X        23.2040  -11.1130   90.7430 C.3       1 NHW501      0.0000 
     46 O5X        23.1230  -12.4960   90.3600 O.3       1 NHW501      0.0000 
     47 C6A        16.3630  -10.0680   87.2330 C.ar      1 NHW501      0.0000 
     48 N6A        15.1770  -10.4340   87.6100 N.pl3     1 NHW501      0.0000 
     49 O6A        19.8490  -14.7900   90.9810 O.3       1 NHW501      0.0000 
     50 C6M        17.8640  -10.3720   81.7300 C.3       1 NHW501      0.0000 
     51 N7A        17.4830  -10.3560   89.4720 N.2       1 NHW501      0.0000 
     52 O7A        23.2790   -5.8080   89.9400 O.co2     1 NHW501      0.0000 
     53 C7M        17.8320  -10.6610   80.2460 C.3       1 NHW501      0.0000 
     54 C8A        18.7630  -10.1650   89.8390 C.2       1 NHW501      0.0000 
     55 O8A        24.9170   -6.0280   88.0920 O.co2     1 NHW501      0.0000 
     56 C8M        18.5520   -9.5430   79.4440 C.3       1 NHW501      0.0000 
     57 N9A        19.4750   -9.7620   88.7610 N.pl3     1 NHW501      0.0000 
     58 O9A        25.3270   -7.1830   90.3550 O.co2     1 NHW501      0.0000 
     59 C9M        18.5180   -9.7690   77.8760 C.3       1 NHW501      0.0000 
     60 CAM        19.2940  -11.0310   77.4690 C.3       1 NHW501      0.0000 
     61 CBM        19.1630  -11.4490   76.0010 C.3       1 NHW501      0.0000 
     62 CCM        19.8540  -10.4280   75.0750 C.3       1 NHW501      0.0000 
     63 CDM        19.6840  -10.8270   73.5810 C.3       1 NHW501      0.0000 
     64 CEM        20.1050   -9.6510   72.6950 C.3       1 NHW501      0.0000 
@<TRIPOS>BOND
     1    1    2 1    
     2    1   12 1    
     3    2    3 1    
     4    3    4 1    
     5    4    5 am   
     6    5    6 2    
     7    5    7 1    
     8    7    8 1    
     9    8    9 1    
    10    9   10 am   
    11   10   11 2    
    12   10   13 1    
    13   12   22 1    
    14   13   14 1    
    15   13   15 1    
    16   15   16 1    
    17   15   17 1    
    18   15   18 1    
    19   16   49 1    
    20   19   25 ar   
    21   19   47 ar   
    22   20   21 ar   
    23   21   26 ar   
    24   21   32 1    
    25   21   46 1    
    26   22   23 2    
    27   22   28 1    
    28   24   29 1    
    29   24   41 1    
    30   24   57 1    
    31   25   31 ar   
    32   27   32 1    
    33   27   38 ar   
    34   27   43 ar   
    35   27   49 1    
    36   28   33 1    
    37   29   30 1    
    38   29   34 1    
    39   31   37 ar   
    40   33   39 1    
    41   34   35 1    
    42   34   40 1    
    43   35   36 1    
    44   36   52 ar   
    45   36   55 ar   
    46   36   58 ar   
    47   37   42 ar   
    48   37   57 1    
    49   39   44 1    
    50   40   41 1    
    51   40   45 1    
    52   42   47 ar   
    53   42   51 1    
    54   44   50 1    
    55   45   46 1    
    56   47   48 1    
    57   50   53 1    
    58   51   54 2    
    59   53   56 1    
    60   54   57 1    
    61   56   59 1    
    62   59   60 1    
    63   60   61 1    
    64   61   62 1    
    65   62   63 1    
    66   63   64 1    
@<TRIPOS>SUBSTRUCTURE
     1 NHW501      1 GROUP   
@<TRIPOS>SET

