#    Name: 5o4v_1_NHW
#    Modification time : Fri May 22 19:15:36 2020

@<TRIPOS>MOLECULE
5o4v_1_NHW
   64    66     1     0     0
SMALL
NO_CHARGES


@<TRIPOS>ATOM
      1 S1         33.2670   42.3170   67.0290 S.3       1 NHW501      0.0000 
      2 C2         33.3150   44.0330   67.6810 C.3       1 NHW501      0.0000 
      3 C3         34.7500   44.5590   67.7760 C.3       1 NHW501      0.0000 
      4 N4         34.7180   45.9360   68.3550 N.am      1 NHW501      0.0000 
      5 C5         34.5230   47.0170   67.5860 C.2       1 NHW501      0.0000 
      6 O5         34.3690   46.9000   66.3810 O.2       1 NHW501      0.0000 
      7 C6         34.4540   48.3990   68.2920 C.3       1 NHW501      0.0000 
      8 C7         34.9780   49.6050   67.4100 C.3       1 NHW501      0.0000 
      9 N8         36.3720   49.3180   67.0450 N.am      1 NHW501      0.0000 
     10 C9         37.3800   49.2720   67.9160 C.2       1 NHW501      0.0000 
     11 O9         37.2860   49.4960   69.1130 O.2       1 NHW501      0.0000 
     12 CP         32.7740   41.4700   68.5920 C.3       1 NHW501      0.0000 
     13 C10        38.6970   48.9540   67.2960 C.3       1 NHW501      0.0000 
     14 O10        38.5790   49.2380   65.8710 O.3       1 NHW501      0.0000 
     15 C11        39.2060   47.5020   67.5610 C.3       1 NHW501      0.0000 
     16 C12        40.4870   47.2110   66.7720 C.3       1 NHW501      0.0000 
     17 C13        38.1470   46.4990   67.0790 C.3       1 NHW501      0.0000 
     18 C14        39.5870   47.2420   69.0800 C.3       1 NHW501      0.0000 
     19 N1A        38.2410   41.1790   66.0070 N.ar      1 NHW501      0.0000 
     20 O1A        45.7520   48.5800   65.3800 O.co2     1 NHW501      0.0000 
     21 P1A        44.7050   47.8180   66.2130 P.3       1 NHW501      0.0000 
     22 C1M        34.0380   41.2360   69.4060 C.2       1 NHW501      0.0000 
     23 O1M        34.3630   42.0160   70.3060 O.2       1 NHW501      0.0000 
     24 C1X        42.5810   43.1760   64.0820 C.3       1 NHW501      0.0000 
     25 C2A        39.4680   40.6080   65.9640 C.ar      1 NHW501      0.0000 
     26 O2A        44.7550   47.8370   67.7280 O.co2     1 NHW501      0.0000 
     27 P2A        42.2270   49.0760   66.1170 P.3       1 NHW501      0.0000 
     28 C2M        34.9210   40.0750   69.0360 C.3       1 NHW501      0.0000 
     29 C2X        43.0270   43.6680   62.7060 C.3       1 NHW501      0.0000 
     30 O2X        42.7580   42.6140   61.7650 O.3       1 NHW501      0.0000 
     31 N3A        40.5110   41.2670   65.4190 N.ar      1 NHW501      0.0000 
     32 O3A        43.3240   48.1860   65.4970 O.3       1 NHW501      0.0000 
     33 C3M        36.4830   40.3140   69.2770 C.3       1 NHW501      0.0000 
     34 C3X        44.5000   43.8150   62.9680 C.3       1 NHW501      0.0000 
     35 O3X        45.2240   42.6200   62.8860 O.3       1 NHW501      0.0000 
     36 P3X        45.9260   42.2340   61.4920 P.3       1 NHW501      0.0000 
     37 C4A        40.3180   42.5610   64.8950 C.ar      1 NHW501      0.0000 
     38 O4A        41.2450   49.3360   64.9760 O.co2     1 NHW501      0.0000 
     39 C4M        37.1900   39.0420   69.0180 C.3       1 NHW501      0.0000 
     40 C4X        44.5920   44.2840   64.4530 C.3       1 NHW501      0.0000 
     41 O4X        43.3170   44.0120   64.9950 O.3       1 NHW501      0.0000 
     42 C5A        39.0400   43.1600   64.9080 C.ar      1 NHW501      0.0000 
     43 O5A        42.8230   50.2430   66.8720 O.co2     1 NHW501      0.0000 
     44 C5M        38.6870   39.1790   69.2750 C.3       1 NHW501      0.0000 
     45 C5X        44.7630   45.8420   64.4090 C.3       1 NHW501      0.0000 
     46 O5X        44.8850   46.3660   65.7610 O.3       1 NHW501      0.0000 
     47 C6A        37.9790   42.4170   65.4900 C.ar      1 NHW501      0.0000 
     48 N6A        36.6730   42.8650   65.5340 N.pl3     1 NHW501      0.0000 
     49 O6A        41.5670   48.1150   67.1210 O.3       1 NHW501      0.0000 
     50 C6M        39.4750   37.9760   68.7940 C.3       1 NHW501      0.0000 
     51 N7A        39.1690   44.4060   64.3280 N.2       1 NHW501      0.0000 
     52 O7A        44.8210   42.3410   60.3430 O.co2     1 NHW501      0.0000 
     53 C7M        39.3200   36.8380   69.8780 C.3       1 NHW501      0.0000 
     54 C8A        40.4760   44.5810   63.9510 C.2       1 NHW501      0.0000 
     55 O8A        46.2380   40.7350   61.6570 O.co2     1 NHW501      0.0000 
     56 C8M        40.2710   35.6680   69.5800 C.3       1 NHW501      0.0000 
     57 N9A        41.1650   43.4600   64.2970 N.pl3     1 NHW501      0.0000 
     58 O9A        47.0990   43.1480   61.3420 O.co2     1 NHW501      0.0000 
     59 C9M        40.0120   34.5870   70.6630 C.3       1 NHW501      0.0000 
     60 CAM        40.9470   34.8780   71.8760 C.3       1 NHW501      0.0000 
     61 CBM        40.8490   33.8640   73.0300 C.3       1 NHW501      0.0000 
     62 CCM        41.4860   32.5110   72.6470 C.3       1 NHW501      0.0000 
     63 CDM        41.2360   31.4580   73.7890 C.3       1 NHW501      0.0000 
     64 CEM        41.8600   30.0830   73.4140 C.3       1 NHW501      0.0000 
@<TRIPOS>BOND
     1    1    2 1    
     2    1   12 1    
     3    2    3 1    
     4    3    4 1    
     5    4    5 am   
     6    5    6 2    
     7    5    7 1    
     8    7    8 1    
     9    8    9 1    
    10    9   10 am   
    11   10   11 2    
    12   10   13 1    
    13   12   22 1    
    14   13   14 1    
    15   13   15 1    
    16   15   16 1    
    17   15   17 1    
    18   15   18 1    
    19   16   49 1    
    20   19   25 ar   
    21   19   47 ar   
    22   20   21 ar   
    23   21   26 ar   
    24   21   32 1    
    25   21   46 1    
    26   22   23 2    
    27   22   28 1    
    28   24   29 1    
    29   24   41 1    
    30   24   57 1    
    31   25   31 ar   
    32   27   32 1    
    33   27   38 ar   
    34   27   43 ar   
    35   27   49 1    
    36   28   33 1    
    37   29   30 1    
    38   29   34 1    
    39   31   37 ar   
    40   33   39 1    
    41   34   35 1    
    42   34   40 1    
    43   35   36 1    
    44   36   52 ar   
    45   36   55 ar   
    46   36   58 ar   
    47   37   42 ar   
    48   37   57 1    
    49   39   44 1    
    50   40   41 1    
    51   40   45 1    
    52   42   47 ar   
    53   42   51 1    
    54   44   50 1    
    55   45   46 1    
    56   47   48 1    
    57   50   53 1    
    58   51   54 2    
    59   53   56 1    
    60   54   57 1    
    61   56   59 1    
    62   59   60 1    
    63   60   61 1    
    64   61   62 1    
    65   62   63 1    
    66   63   64 1    
@<TRIPOS>SUBSTRUCTURE
     1 NHW501      1 GROUP   
@<TRIPOS>SET

