#    Name: 5o4v_2_NHW
#    Modification time : Fri May 22 19:15:45 2020

@<TRIPOS>MOLECULE
5o4v_2_NHW
   64    66     1     0     0
SMALL
NO_CHARGES


@<TRIPOS>ATOM
      1 S1          6.6130   21.1610   33.5140 S.3       1 NHW501      0.0000 
      2 C2          6.6550   21.4920   31.7510 C.3       1 NHW501      0.0000 
      3 C3          5.2280   21.3550   31.1880 C.3       1 NHW501      0.0000 
      4 N4          5.2990   21.4980   29.7040 N.am      1 NHW501      0.0000 
      5 C5          5.4010   22.6880   29.0880 C.2       1 NHW501      0.0000 
      6 O5          5.5290   23.8020   29.6560 O.2       1 NHW501      0.0000 
      7 C6          5.5500   22.6020   27.5940 C.3       1 NHW501      0.0000 
      8 C7          5.0400   23.8810   26.9090 C.3       1 NHW501      0.0000 
      9 N8          3.6310   24.1790   27.3080 N.am      1 NHW501      0.0000 
     10 C9          2.6080   23.3770   26.9420 C.2       1 NHW501      0.0000 
     11 O9          2.7270   22.3450   26.2430 O.2       1 NHW501      0.0000 
     12 CP          7.0620   19.3650   33.6450 C.3       1 NHW501      0.0000 
     13 C10         1.2260   23.8280   27.4490 C.3       1 NHW501      0.0000 
     14 O10         1.2670   25.1840   27.8650 O.3       1 NHW501      0.0000 
     15 C11         0.7960   22.9480   28.6360 C.3       1 NHW501      0.0000 
     16 C12        -0.4890   23.4890   29.2810 C.3       1 NHW501      0.0000 
     17 C13         1.8760   22.8990   29.7670 C.3       1 NHW501      0.0000 
     18 C14         0.5970   21.5250   28.1070 C.3       1 NHW501      0.0000 
     19 N1A         1.5870   21.4970   35.1860 N.ar      1 NHW501      0.0000 
     20 O1A        -5.8790   25.3770   28.6710 O.co2     1 NHW501      0.0000 
     21 P1A        -4.8340   24.3260   28.9990 P.3       1 NHW501      0.0000 
     22 C1M         5.8520   18.4880   33.4870 C.2       1 NHW501      0.0000 
     23 O1M         5.5940   17.9440   32.4370 O.2       1 NHW501      0.0000 
     24 C1X        -2.6620   24.0910   34.0850 C.3       1 NHW501      0.0000 
     25 C2A         0.3650   21.2990   35.6600 C.ar      1 NHW501      0.0000 
     26 O2A        -4.8480   23.0740   28.1740 O.co2     1 NHW501      0.0000 
     27 P2A        -2.2870   24.9200   27.8730 P.3       1 NHW501      0.0000 
     28 C2M         4.9690   18.3020   34.6940 C.3       1 NHW501      0.0000 
     29 C2X        -3.1190   25.5320   34.2490 C.3       1 NHW501      0.0000 
     30 O2X        -2.8390   26.0790   35.5640 O.3       1 NHW501      0.0000 
     31 N3A        -0.6150   22.0850   35.2710 N.ar      1 NHW501      0.0000 
     32 O3A        -3.4480   25.1670   28.9850 O.3       1 NHW501      0.0000 
     33 C3M         3.4690   18.3070   34.3290 C.3       1 NHW501      0.0000 
     34 C3X        -4.6400   25.4590   33.9910 C.3       1 NHW501      0.0000 
     35 O3X        -5.2910   24.9150   35.1500 O.3       1 NHW501      0.0000 
     36 P3X        -6.0480   26.0210   36.0740 P.3       1 NHW501      0.0000 
     37 C4A        -0.3950   23.0720   34.3590 C.ar      1 NHW501      0.0000 
     38 O4A        -1.3150   26.0050   28.1680 O.co2     1 NHW501      0.0000 
     39 C4M         2.7180   17.9360   35.6210 C.3       1 NHW501      0.0000 
     40 C4X        -4.7140   24.3720   32.9440 C.3       1 NHW501      0.0000 
     41 O4X        -3.4360   23.6150   32.9410 O.3       1 NHW501      0.0000 
     42 C5A         0.8680   23.2870   33.8170 C.ar      1 NHW501      0.0000 
     43 O5A        -2.8320   24.7360   26.5030 O.co2     1 NHW501      0.0000 
     44 C5M         1.2010   17.9050   35.3670 C.3       1 NHW501      0.0000 
     45 C5X        -4.8110   25.0240   31.5420 C.3       1 NHW501      0.0000 
     46 O5X        -4.9010   23.9620   30.5470 O.3       1 NHW501      0.0000 
     47 C6A         1.8560   22.4750   34.2680 C.ar      1 NHW501      0.0000 
     48 N6A         3.0800   22.6320   33.7710 N.pl3     1 NHW501      0.0000 
     49 O6A        -1.5710   23.5990   28.3030 O.3       1 NHW501      0.0000 
     50 C6M         0.3330   17.4570   36.5500 C.3       1 NHW501      0.0000 
     51 N7A         0.8070   24.2910   32.9010 N.2       1 NHW501      0.0000 
     52 O7A        -4.9680   27.0340   36.5150 O.co2     1 NHW501      0.0000 
     53 C7M         0.6430   16.1310   37.2270 C.3       1 NHW501      0.0000 
     54 C8A        -0.4600   24.7340   32.9270 C.2       1 NHW501      0.0000 
     55 O8A        -6.6720   25.2190   37.3100 O.co2     1 NHW501      0.0000 
     56 C8M        -0.3570   15.9290   38.4070 C.3       1 NHW501      0.0000 
     57 N9A        -1.1920   23.9450   33.7700 N.pl3     1 NHW501      0.0000 
     58 O9A        -7.1790   26.6220   35.3040 O.co2     1 NHW501      0.0000 
     59 C9M        -0.3370   14.4940   38.9970 C.3       1 NHW501      0.0000 
     60 CAM        -1.0190   13.4650   38.0860 C.3       1 NHW501      0.0000 
     61 CBM        -0.9350   12.0550   38.5230 C.3       1 NHW501      0.0000 
     62 CCM        -1.6060   11.7770   39.9200 C.3       1 NHW501      0.0000 
     63 CDM        -1.5030   10.3300   40.3300 C.3       1 NHW501      0.0000 
     64 CEM        -2.1330   10.0450   41.7570 C.3       1 NHW501      0.0000 
@<TRIPOS>BOND
     1    1    2 1    
     2    1   12 1    
     3    2    3 1    
     4    3    4 1    
     5    4    5 am   
     6    5    6 2    
     7    5    7 1    
     8    7    8 1    
     9    8    9 1    
    10    9   10 am   
    11   10   11 2    
    12   10   13 1    
    13   12   22 1    
    14   13   14 1    
    15   13   15 1    
    16   15   16 1    
    17   15   17 1    
    18   15   18 1    
    19   16   49 1    
    20   19   25 ar   
    21   19   47 ar   
    22   20   21 ar   
    23   21   26 ar   
    24   21   32 1    
    25   21   46 1    
    26   22   23 2    
    27   22   28 1    
    28   24   29 1    
    29   24   41 1    
    30   24   57 1    
    31   25   31 ar   
    32   27   32 1    
    33   27   38 ar   
    34   27   43 ar   
    35   27   49 1    
    36   28   33 1    
    37   29   30 1    
    38   29   34 1    
    39   31   37 ar   
    40   33   39 1    
    41   34   35 1    
    42   34   40 1    
    43   35   36 1    
    44   36   52 ar   
    45   36   55 ar   
    46   36   58 ar   
    47   37   42 ar   
    48   37   57 1    
    49   39   44 1    
    50   40   41 1    
    51   40   45 1    
    52   42   47 ar   
    53   42   51 1    
    54   44   50 1    
    55   45   46 1    
    56   47   48 1    
    57   50   53 1    
    58   51   54 2    
    59   53   56 1    
    60   54   57 1    
    61   56   59 1    
    62   59   60 1    
    63   60   61 1    
    64   61   62 1    
    65   62   63 1    
    66   63   64 1    
@<TRIPOS>SUBSTRUCTURE
     1 NHW501      1 GROUP   
@<TRIPOS>SET

