#    Name: 6eop_3_SER_LEU_ARG_PHE_LEU_TYR_GLU_GLY_CAVITY_N1_6
#    Modification time : Fri May 22 19:27:26 2020

@<TRIPOS>MOLECULE
6eop_3_SER_LEU_ARG_PHE_LEU_TYR_GLU_GLY_CAVITY_N1_6
  108     0     6     0     0
SMALL
NO_CHARGES


@<TRIPOS>ATOM
      1 OG         35.2700   40.4700  212.0300 O.3       1 SER1        0.0000 
      2 OG         35.7400   39.0600  212.2300 O.3       1 SER1        0.0000 
      3 OG         42.6400   33.0000  209.4400 O.3       1 SER1        0.0000 
      4 OG         34.9900   40.6800  214.1200 O.3       1 SER1        0.0000 
      5 OG         36.5900   39.5100  213.3800 O.3       1 SER1        0.0000 
      6 N          32.4100   35.0600  214.3300 N.am      2 ALA2        0.0000 
      7 N          33.2700   39.7800  211.8300 N.am      2 ALA2        0.0000 
      8 N          33.7400   38.3700  212.0300 N.am      2 ALA2        0.0000 
      9 N          34.2100   36.9600  212.2300 N.am      2 ALA2        0.0000 
     10 N          32.8000   36.9200  215.2700 N.am      2 ALA2        0.0000 
     11 N          33.9400   37.1600  214.3300 N.am      2 ALA2        0.0000 
     12 N          34.6000   38.8200  213.1800 N.am      2 ALA2        0.0000 
     13 N          40.3700   32.5100  211.3400 N.am      2 ALA2        0.0000 
     14 N          41.5100   32.7500  210.3900 N.am      2 ALA2        0.0000 
     15 N          37.3500   33.6300  215.1200 N.am      2 ALA2        0.0000 
     16 N          37.8200   32.2200  215.3200 N.am      2 ALA2        0.0000 
     17 O          38.4800   33.8700  214.1800 O.2       2 ALA2        0.0000 
     18 O          38.9500   32.4600  214.3800 O.2       2 ALA2        0.0000 
     19 O          38.6800   36.9400  212.8300 O.2       2 ALA2        0.0000 
     20 O          39.1500   35.5300  213.0300 O.2       2 ALA2        0.0000 
     21 O          39.6200   34.1200  213.2300 O.2       2 ALA2        0.0000 
     22 N          42.3600   33.2000  211.5300 N.am      2 ALA2        0.0000 
     23 O          39.5300   37.3900  213.9700 O.2       2 ALA2        0.0000 
     24 O          43.2200   33.6500  212.6800 O.2       2 ALA2        0.0000 
     25 NZ         33.1900   38.7800  216.2200 N.4       3 LYS4        0.0000 
     26 NZ         33.6600   37.3700  216.4200 N.4       3 LYS4        0.0000 
     27 NZ         34.3200   39.0200  215.2700 N.4       3 LYS4        0.0000 
     28 NZ         34.7900   37.6100  215.4700 N.4       3 LYS4        0.0000 
     29 NZ         34.9900   36.4100  217.7600 N.4       3 LYS4        0.0000 
     30 NZ         34.7100   40.8800  216.2200 N.4       3 LYS4        0.0000 
     31 NZ         35.6500   38.0600  216.6200 N.4       3 LYS4        0.0000 
     32 NZ         36.1200   36.6500  216.8200 N.4       3 LYS4        0.0000 
     33 CZ         32.8900   37.9200  210.8900 C.ar      4 PHE5        0.0000 
     34 CZ         34.0200   38.1600  209.9400 C.ar      4 PHE5        0.0000 
     35 CZ         34.4900   36.7500  210.1400 C.ar      4 PHE5        0.0000 
     36 CZ         34.8800   38.6100  211.0800 C.ar      4 PHE5        0.0000 
     37 CZ         36.4900   37.4500  210.3400 C.ar      4 PHE5        0.0000 
     38 CZ         36.8700   39.3100  211.2800 C.ar      4 PHE5        0.0000 
     39 CZ         37.3500   37.9000  211.4800 C.ar      4 PHE5        0.0000 
     40 CZ         37.8200   36.4900  211.6800 C.ar      4 PHE5        0.0000 
     41 CZ         39.4300   35.3300  210.9400 C.ar      4 PHE5        0.0000 
     42 CZ         35.4600   39.2700  214.3200 C.ar      4 PHE5        0.0000 
     43 CZ         35.9300   37.8600  214.5200 C.ar      4 PHE5        0.0000 
     44 CZ         37.0700   38.1000  213.5800 C.ar      4 PHE5        0.0000 
     45 CZ         40.2800   35.7800  212.0800 C.ar      4 PHE5        0.0000 
     46 CZ         40.7600   34.3700  212.2800 C.ar      4 PHE5        0.0000 
     47 CZ         41.8900   34.6100  211.3300 C.ar      4 PHE5        0.0000 
     48 CZ         43.0300   34.8600  210.3900 C.ar      4 PHE5        0.0000 
     49 CZ         43.5000   33.4500  210.5900 C.ar      4 PHE5        0.0000 
     50 CZ         35.8400   41.1300  215.2700 C.ar      4 PHE5        0.0000 
     51 CZ         36.7900   38.3100  215.6700 C.ar      4 PHE5        0.0000 
     52 CZ         37.2600   36.9000  215.8700 C.ar      4 PHE5        0.0000 
     53 CZ         38.4000   37.1400  214.9200 C.ar      4 PHE5        0.0000 
     54 CZ         41.1400   36.2300  213.2300 C.ar      4 PHE5        0.0000 
     55 CZ         41.6100   34.8200  213.4300 C.ar      4 PHE5        0.0000 
     56 CZ         38.1200   37.3500  217.0100 C.ar      4 PHE5        0.0000 
     57 CA         33.3600   36.5100  211.0900 C.3       5 GLY6        0.0000 
     58 CA         34.9700   35.3500  210.3400 C.3       5 GLY6        0.0000 
     59 CA         33.5500   35.3000  213.3800 C.3       5 GLY6        0.0000 
     60 CA         34.6900   35.5500  212.4300 C.3       5 GLY6        0.0000 
     61 CA         38.5700   34.8800  209.7900 C.3       5 GLY6        0.0000 
     62 CA         40.1800   33.7100  209.0400 C.3       5 GLY6        0.0000 
     63 CA         39.2300   32.2600  212.2800 C.3       5 GLY6        0.0000 
     64 CA         39.9000   33.9200  211.1400 C.3       5 GLY6        0.0000 
     65 CA         41.0300   34.1600  210.1900 C.3       5 GLY6        0.0000 
     66 CA         42.1700   34.4100  209.2400 C.3       5 GLY6        0.0000 
     67 CA         33.8500   40.4300  215.0700 C.3       5 GLY6        0.0000 
     68 CA         34.5100   42.0900  213.9200 C.3       5 GLY6        0.0000 
     69 CA         40.0900   32.7100  213.4300 C.3       5 GLY6        0.0000 
     70 CA         41.2300   32.9600  212.4800 C.3       5 GLY6        0.0000 
     71 CA         35.3700   42.5400  215.0700 C.3       5 GLY6        0.0000 
     72 CA         37.7300   35.4900  216.0700 C.3       5 GLY6        0.0000 
     73 CA         38.2000   34.0800  216.2700 C.3       5 GLY6        0.0000 
     74 CA         38.8700   35.7300  215.1200 C.3       5 GLY6        0.0000 
     75 CA         39.3400   34.3200  215.3200 C.3       5 GLY6        0.0000 
     76 CA         40.0000   35.9800  214.1700 C.3       5 GLY6        0.0000 
     77 CA         40.4800   34.5700  214.3700 C.3       5 GLY6        0.0000 
     78 CA         42.0800   33.4100  213.6300 C.3       5 GLY6        0.0000 
     79 CA         36.9800   37.1000  217.9600 C.3       5 GLY6        0.0000 
     80 CA         37.4500   35.6900  218.1600 C.3       5 GLY6        0.0000 
     81 CA         38.5900   35.9400  217.2100 C.3       5 GLY6        0.0000 
     82 CA         39.2500   37.5900  216.0700 C.3       5 GLY6        0.0000 
     83 CA         42.4700   35.2700  214.5700 C.3       5 GLY6        0.0000 
     84 DU         35.3500   37.2000  211.2800 H         6 CUB7        0.0000 
     85 DU         35.8200   35.7900  211.4800 H         6 CUB7        0.0000 
     86 DU         36.2900   34.3800  211.6900 H         6 CUB7        0.0000 
     87 DU         36.9600   36.0400  210.5400 H         6 CUB7        0.0000 
     88 DU         37.4300   34.6300  210.7400 H         6 CUB7        0.0000 
     89 DU         38.3700   31.8100  211.1400 H         6 CUB7        0.0000 
     90 DU         39.0400   33.4700  209.9900 H         6 CUB7        0.0000 
     91 DU         34.4100   35.7500  214.5300 H         6 CUB7        0.0000 
     92 DU         34.1300   40.2300  212.9800 H         6 CUB7        0.0000 
     93 DU         35.0700   37.4100  213.3800 H         6 CUB7        0.0000 
     94 DU         35.5400   36.0000  213.5800 H         6 CUB7        0.0000 
     95 DU         36.2100   37.6500  212.4300 H         6 CUB7        0.0000 
     96 DU         36.6800   36.2400  212.6300 H         6 CUB7        0.0000 
     97 DU         37.6200   33.4200  213.0300 H         6 CUB7        0.0000 
     98 DU         38.1000   32.0200  213.2300 H         6 CUB7        0.0000 
     99 DU         38.2900   35.0800  211.8800 H         6 CUB7        0.0000 
    100 DU         38.7600   33.6700  212.0800 H         6 CUB7        0.0000 
    101 DU         34.1300   35.9600  216.6200 H         6 CUB7        0.0000 
    102 DU         35.2700   36.2000  215.6700 H         6 CUB7        0.0000 
    103 DU         35.7400   34.7900  215.8700 H         6 CUB7        0.0000 
    104 DU         36.4000   36.4500  214.7200 H         6 CUB7        0.0000 
    105 DU         36.8700   35.0400  214.9200 H         6 CUB7        0.0000 
    106 DU         37.5400   36.6900  213.7800 H         6 CUB7        0.0000 
    107 DU         38.0100   35.2800  213.9800 H         6 CUB7        0.0000 
    108 DU         36.6000   35.2400  217.0200 H         6 CUB7        0.0000 
@<TRIPOS>BOND
@<TRIPOS>SUBSTRUCTURE
     1 SER1        1 GROUP   
     2 ALA2        6 GROUP   
     3 LYS4       25 GROUP   
     4 PHE5       33 GROUP   
     5 GLY6       57 GROUP   
     6 CUB7       84 GROUP   
@<TRIPOS>SET

