#    Name: 6eop_3_SER_LEU_ARG_PHE_LEU_TYR_GLU_GLY
#    Modification time : Fri May 22 19:27:23 2020

@<TRIPOS>MOLECULE
6eop_3_SER_LEU_ARG_PHE_LEU_TYR_GLU_GLY
   69    70     8     0     0
SMALL
NO_CHARGES


@<TRIPOS>ATOM
      1 N          43.8310   26.0870  203.3890 N.4       1 SER10       0.0000 
      2 CA         43.5080   27.3300  202.6310 C.3       1 SER10       0.0000 
      3 C          43.6620   28.5580  203.5150 C.2       1 SER10       0.0000 
      4 O          43.7370   28.4470  204.7400 O.2       1 SER10       0.0000 
      5 CB         42.0880   27.2550  202.0640 C.3       1 SER10       0.0000 
      6 OG         41.1640   26.8150  203.0440 O.3       1 SER10       0.0000 
      7 N          43.7080   29.7250  202.8820 N.am      2 LEU11       0.0000 
      8 CA         43.8960   30.9870  203.5920 C.3       2 LEU11       0.0000 
      9 C          42.5730   31.4910  204.1330 C.2       2 LEU11       0.0000 
     10 O          42.0660   32.5160  203.6940 O.2       2 LEU11       0.0000 
     11 CB         44.5370   32.0320  202.6780 C.3       2 LEU11       0.0000 
     12 CG         45.9550   31.6950  202.2340 C.3       2 LEU11       0.0000 
     13 CD1        46.4030   32.6400  201.1350 C.3       2 LEU11       0.0000 
     14 CD2        46.9120   31.7530  203.4130 C.3       2 LEU11       0.0000 
     15 N          42.0580   30.7780  205.1310 N.am      3 ARG12       0.0000 
     16 CA         40.7450   31.0350  205.7060 C.3       3 ARG12       0.0000 
     17 C          40.8320   30.9240  207.2300 C.2       3 ARG12       0.0000 
     18 O          41.1370   29.8570  207.7690 O.2       3 ARG12       0.0000 
     19 CB         39.7240   30.0440  205.1430 C.3       3 ARG12       0.0000 
     20 CG         38.2800   30.5000  205.2740 C.3       3 ARG12       0.0000 
     21 CD         37.3310   29.3140  205.3140 C.3       3 ARG12       0.0000 
     22 NE         35.9260   29.7400  205.3000 N.pl3     3 ARG12       0.0000 
     23 CZ         35.0090   29.4060  204.3860 C.cat     3 ARG12       0.0000 
     24 NH1        35.2940   28.6010  203.3590 N.pl3     3 ARG12       0.0000 
     25 NH2        33.7700   29.8790  204.5070 N.pl3     3 ARG12       0.0000 
     26 N          40.5630   32.0360  207.9070 N.am      4 PHE13       0.0000 
     27 CA         40.6230   32.1300  209.3700 C.3       4 PHE13       0.0000 
     28 C          39.3390   31.5760  210.0050 C.2       4 PHE13       0.0000 
     29 O          38.2830   31.5580  209.3630 O.2       4 PHE13       0.0000 
     30 CB         40.8230   33.5960  209.7640 C.3       4 PHE13       0.0000 
     31 CG         41.5050   33.7970  211.0900 C.ar      4 PHE13       0.0000 
     32 CD1        42.8760   33.5830  211.2220 C.ar      4 PHE13       0.0000 
     33 CD2        40.7890   34.2400  212.1990 C.ar      4 PHE13       0.0000 
     34 CE1        43.5140   33.7840  212.4380 C.ar      4 PHE13       0.0000 
     35 CE2        41.4240   34.4430  213.4170 C.ar      4 PHE13       0.0000 
     36 CZ         42.7880   34.2140  213.5370 C.ar      4 PHE13       0.0000 
     37 N          39.4430   31.1270  211.2570 N.am      5 LEU14       0.0000 
     38 CA         38.2860   30.6470  212.0350 C.3       5 LEU14       0.0000 
     39 C          38.0860   31.5030  213.2890 C.2       5 LEU14       0.0000 
     40 O          38.9650   31.5700  214.1490 O.2       5 LEU14       0.0000 
     41 CB         38.4610   29.1730  212.4260 C.3       5 LEU14       0.0000 
     42 CG         37.3220   28.4950  213.2090 C.3       5 LEU14       0.0000 
     43 CD1        36.0790   28.3160  212.3480 C.3       5 LEU14       0.0000 
     44 CD2        37.7740   27.1520  213.7570 C.3       5 LEU14       0.0000 
     45 N          36.9270   32.1530  213.3840 N.am      6 TYR15       0.0000 
     46 CA         36.5550   32.9250  214.5720 C.3       6 TYR15       0.0000 
     47 C          35.0310   33.0500  214.6600 C.2       6 TYR15       0.0000 
     48 O          34.3970   33.5980  213.7550 O.2       6 TYR15       0.0000 
     49 CB         37.2220   34.3050  214.5390 C.3       6 TYR15       0.0000 
     50 CG         36.8890   35.2020  215.7180 C.ar      6 TYR15       0.0000 
     51 CD1        37.0190   34.7470  217.0330 C.ar      6 TYR15       0.0000 
     52 CD2        36.4530   36.5130  215.5200 C.ar      6 TYR15       0.0000 
     53 CE1        36.7170   35.5690  218.1120 C.ar      6 TYR15       0.0000 
     54 CE2        36.1480   37.3420  216.5920 C.ar      6 TYR15       0.0000 
     55 CZ         36.2800   36.8680  217.8840 C.ar      6 TYR15       0.0000 
     56 OH         35.9790   37.6900  218.9430 O.3       6 TYR15       0.0000 
     57 N          34.4630   32.5320  215.7500 N.am      7 GLU16       0.0000 
     58 CA         33.0090   32.5120  215.9640 C.3       7 GLU16       0.0000 
     59 C          32.5580   33.6950  216.8260 C.2       7 GLU16       0.0000 
     60 O          31.6420   34.4320  216.4470 O.2       7 GLU16       0.0000 
     61 CB         32.5640   31.1840  216.6030 C.3       7 GLU16       0.0000 
     62 CG         33.1840   29.9080  216.0200 C.3       7 GLU16       0.0000 
     63 CD         32.7290   29.5670  214.6010 C.2       7 GLU16       0.0000 
     64 OE1        32.9280   28.4020  214.1900 O.co2     7 GLU16       0.0000 
     65 OE2        32.1800   30.4340  213.8860 O.co2     7 GLU16       0.0000 
     66 N          33.2000   33.8570  217.9830 N.am      8 GLY17       0.0000 
     67 CA         32.9600   34.9940  218.8820 C.3       8 GLY17       0.0000 
     68 C          32.5920   34.5510  220.2850 C.2       8 GLY17       0.0000 
     69 O          32.1270   35.3540  221.0950 O.2       8 GLY17       0.0000 
@<TRIPOS>BOND
     1    1    2 1    
     2    2    3 1    
     3    2    5 1    
     4    3    4 2    
     5    3    7 am   
     6    5    6 1    
     7    7    8 1    
     8    8    9 1    
     9    8   11 1    
    10    9   10 2    
    11    9   15 am   
    12   11   12 1    
    13   12   13 1    
    14   12   14 1    
    15   15   16 1    
    16   16   17 1    
    17   16   19 1    
    18   17   18 2    
    19   17   26 am   
    20   19   20 1    
    21   20   21 1    
    22   21   22 1    
    23   22   23 ar   
    24   23   24 ar   
    25   23   25 ar   
    26   26   27 1    
    27   27   28 1    
    28   27   30 1    
    29   28   29 2    
    30   28   37 am   
    31   30   31 1    
    32   31   32 ar   
    33   31   33 ar   
    34   32   34 ar   
    35   33   35 ar   
    36   34   36 ar   
    37   35   36 ar   
    38   37   38 1    
    39   38   39 1    
    40   38   41 1    
    41   39   40 2    
    42   39   45 am   
    43   41   42 1    
    44   42   43 1    
    45   42   44 1    
    46   45   46 1    
    47   46   47 1    
    48   46   49 1    
    49   47   48 2    
    50   47   57 am   
    51   49   50 1    
    52   50   51 ar   
    53   50   52 ar   
    54   51   53 ar   
    55   52   54 ar   
    56   53   55 ar   
    57   54   55 ar   
    58   55   56 1    
    59   57   58 1    
    60   58   59 1    
    61   58   61 1    
    62   59   60 2    
    63   59   66 am   
    64   61   62 1    
    65   62   63 1    
    66   63   64 ar   
    67   63   65 ar   
    68   66   67 1    
    69   67   68 1    
    70   68   69 2    
@<TRIPOS>SUBSTRUCTURE
     1 SER10       1 RESIDUE 
     2 LEU11       7 RESIDUE 
     3 ARG12      15 RESIDUE 
     4 PHE13      26 RESIDUE 
     5 LEU14      37 RESIDUE 
     6 TYR15      45 RESIDUE 
     7 GLU16      57 RESIDUE 
     8 GLY17      66 RESIDUE 
@<TRIPOS>SET

