#    Name: 6eop_1_SER_LEU_ARG_PHE_LEU_TYR_GLU_GLY
#    Modification time : Fri May 22 19:26:44 2020

@<TRIPOS>MOLECULE
6eop_1_SER_LEU_ARG_PHE_LEU_TYR_GLU_GLY
   69    70     8     0     0
SMALL
NO_CHARGES


@<TRIPOS>ATOM
      1 N          39.3770   15.7960  275.9820 N.4       1 SER10       0.0000 
      2 CA         38.0160   16.1850  276.4330 C.3       1 SER10       0.0000 
      3 C          36.9910   15.3850  275.6540 C.2       1 SER10       0.0000 
      4 O          37.1150   15.2290  274.4340 O.2       1 SER10       0.0000 
      5 CB         37.7770   17.6830  276.2250 C.3       1 SER10       0.0000 
      6 OG         38.7520   18.4490  276.9130 O.3       1 SER10       0.0000 
      7 N          35.9800   14.8810  276.3570 N.am      2 LEU11       0.0000 
      8 CA         34.8760   14.1780  275.7240 C.3       2 LEU11       0.0000 
      9 C          33.8760   15.1970  275.2110 C.2       2 LEU11       0.0000 
     10 O          32.7270   15.2360  275.6430 O.2       2 LEU11       0.0000 
     11 CB         34.2380   13.1860  276.6950 C.3       2 LEU11       0.0000 
     12 CG         35.1790   12.0520  277.1080 C.3       2 LEU11       0.0000 
     13 CD1        34.5740   11.1980  278.2080 C.3       2 LEU11       0.0000 
     14 CD2        35.5360   11.1830  275.9120 C.3       2 LEU11       0.0000 
     15 N          34.3350   15.9850  274.2420 N.am      3 ARG12       0.0000 
     16 CA         33.5990   17.1150  273.7030 C.3       3 ARG12       0.0000 
     17 C          33.7040   17.0770  272.1780 C.2       3 ARG12       0.0000 
     18 O          34.7810   17.2640  271.6060 O.2       3 ARG12       0.0000 
     19 CB         34.1420   18.4320  274.2630 C.3       3 ARG12       0.0000 
     20 CG         33.1660   19.5930  274.1460 C.3       3 ARG12       0.0000 
     21 CD         33.6570   20.8170  274.9070 C.3       3 ARG12       0.0000 
     22 NE         32.8570   22.0150  274.6300 N.pl3     3 ARG12       0.0000 
     23 CZ         33.0660   23.2190  275.1730 C.cat     3 ARG12       0.0000 
     24 NH1        34.0580   23.4180  276.0460 N.pl3     3 ARG12       0.0000 
     25 NH2        32.2730   24.2390  274.8440 N.pl3     3 ARG12       0.0000 
     26 N          32.5720   16.8030  271.5410 N.am      4 PHE13       0.0000 
     27 CA         32.4610   16.7130  270.0910 C.3       4 PHE13       0.0000 
     28 C          32.3610   18.1190  269.4970 C.2       4 PHE13       0.0000 
     29 O          32.0440   19.0760  270.2060 O.2       4 PHE13       0.0000 
     30 CB         31.2150   15.8900  269.7510 C.3       4 PHE13       0.0000 
     31 CG         31.2400   15.2560  268.3880 C.ar      4 PHE13       0.0000 
     32 CD1        31.9730   14.0940  268.1600 C.ar      4 PHE13       0.0000 
     33 CD2        30.5000   15.7970  267.3380 C.ar      4 PHE13       0.0000 
     34 CE1        31.9830   13.4950  266.9060 C.ar      4 PHE13       0.0000 
     35 CE2        30.5070   15.2030  266.0840 C.ar      4 PHE13       0.0000 
     36 CZ         31.2490   14.0500  265.8660 C.ar      4 PHE13       0.0000 
     37 N          32.6460   18.2340  268.2030 N.am      5 LEU14       0.0000 
     38 CA         32.5260   19.5030  267.4710 C.3       5 LEU14       0.0000 
     39 C          31.6460   19.3450  266.2330 C.2       5 LEU14       0.0000 
     40 O          31.9910   18.6120  265.3130 O.2       5 LEU14       0.0000 
     41 CB         33.9080   20.0190  267.0560 C.3       5 LEU14       0.0000 
     42 CG         33.9520   21.3840  266.3520 C.3       5 LEU14       0.0000 
     43 CD1        33.5400   22.5030  267.3000 C.3       5 LEU14       0.0000 
     44 CD2        35.3360   21.6580  265.7890 C.3       5 LEU14       0.0000 
     45 N          30.5110   20.0350  266.2190 N.am      6 TYR15       0.0000 
     46 CA         29.6540   20.1060  265.0340 C.3       6 TYR15       0.0000 
     47 C          28.8750   21.4110  265.0570 C.2       6 TYR15       0.0000 
     48 O          28.0940   21.6570  265.9790 O.2       6 TYR15       0.0000 
     49 CB         28.6930   18.9120  264.9680 C.3       6 TYR15       0.0000 
     50 CG         27.6880   18.9890  263.8280 C.ar      6 TYR15       0.0000 
     51 CD1        28.1080   19.2200  262.5160 C.ar      6 TYR15       0.0000 
     52 CD2        26.3170   18.8290  264.0600 C.ar      6 TYR15       0.0000 
     53 CE1        27.2000   19.2900  261.4700 C.ar      6 TYR15       0.0000 
     54 CE2        25.3990   18.9000  263.0190 C.ar      6 TYR15       0.0000 
     55 CZ         25.8460   19.1310  261.7240 C.ar      6 TYR15       0.0000 
     56 OH         24.9570   19.2050  260.6750 O.3       6 TYR15       0.0000 
     57 N          29.0930   22.2360  264.0370 N.am      7 GLU16       0.0000 
     58 CA         28.4850   23.5710  263.9440 C.3       7 GLU16       0.0000 
     59 C          27.3770   23.7180  262.8800 C.2       7 GLU16       0.0000 
     60 O          26.6000   24.6740  262.9330 O.2       7 GLU16       0.0000 
     61 CB         29.5940   24.6040  263.7300 C.3       7 GLU16       0.0000 
     62 CG         30.5460   24.6920  264.9230 C.3       7 GLU16       0.0000 
     63 CD         31.7980   25.5110  264.6640 C.2       7 GLU16       0.0000 
     64 OE1        32.1760   25.7020  263.4870 O.co2     7 GLU16       0.0000 
     65 OE2        32.4170   25.9560  265.6560 O.co2     7 GLU16       0.0000 
     66 N          27.3030   22.7820  261.9320 N.am      8 GLY17       0.0000 
     67 CA         26.2360   22.7550  260.9240 C.3       8 GLY17       0.0000 
     68 C          26.5910   23.5400  259.6750 C.2       8 GLY17       0.0000 
     69 O          27.6950   23.4140  259.1420 O.2       8 GLY17       0.0000 
@<TRIPOS>BOND
     1    1    2 1    
     2    2    3 1    
     3    2    5 1    
     4    3    4 2    
     5    3    7 am   
     6    5    6 1    
     7    7    8 1    
     8    8    9 1    
     9    8   11 1    
    10    9   10 2    
    11    9   15 am   
    12   11   12 1    
    13   12   13 1    
    14   12   14 1    
    15   15   16 1    
    16   16   17 1    
    17   16   19 1    
    18   17   18 2    
    19   17   26 am   
    20   19   20 1    
    21   20   21 1    
    22   21   22 1    
    23   22   23 ar   
    24   23   24 ar   
    25   23   25 ar   
    26   26   27 1    
    27   27   28 1    
    28   27   30 1    
    29   28   29 2    
    30   28   37 am   
    31   30   31 1    
    32   31   32 ar   
    33   31   33 ar   
    34   32   34 ar   
    35   33   35 ar   
    36   34   36 ar   
    37   35   36 ar   
    38   37   38 1    
    39   38   39 1    
    40   38   41 1    
    41   39   40 2    
    42   39   45 am   
    43   41   42 1    
    44   42   43 1    
    45   42   44 1    
    46   45   46 1    
    47   46   47 1    
    48   46   49 1    
    49   47   48 2    
    50   47   57 am   
    51   49   50 1    
    52   50   51 ar   
    53   50   52 ar   
    54   51   53 ar   
    55   52   54 ar   
    56   53   55 ar   
    57   54   55 ar   
    58   55   56 1    
    59   57   58 1    
    60   58   59 1    
    61   58   61 1    
    62   59   60 2    
    63   59   66 am   
    64   61   62 1    
    65   62   63 1    
    66   63   64 ar   
    67   63   65 ar   
    68   66   67 1    
    69   67   68 1    
    70   68   69 2    
@<TRIPOS>SUBSTRUCTURE
     1 SER10       1 RESIDUE 
     2 LEU11       7 RESIDUE 
     3 ARG12      15 RESIDUE 
     4 PHE13      26 RESIDUE 
     5 LEU14      37 RESIDUE 
     6 TYR15      45 RESIDUE 
     7 GLU16      57 RESIDUE 
     8 GLY17      66 RESIDUE 
@<TRIPOS>SET

