#    Name: 6eop_2_SER_LEU_ARG_PHE_LEU_TYR_GLU_GLY
#    Modification time : Fri May 22 19:27:04 2020

@<TRIPOS>MOLECULE
6eop_2_SER_LEU_ARG_PHE_LEU_TYR_GLU_GLY
   69    70     8     0     0
SMALL
NO_CHARGES


@<TRIPOS>ATOM
      1 N          74.4440   38.6070  231.6160 N.4       1 SER10       0.0000 
      2 CA         73.9790   39.8140  232.3570 C.3       1 SER10       0.0000 
      3 C          72.7630   40.4070  231.6690 C.2       1 SER10       0.0000 
      4 O          72.5570   40.1980  230.4700 O.2       1 SER10       0.0000 
      5 CB         75.0890   40.8660  232.4210 C.3       1 SER10       0.0000 
      6 OG         76.3120   40.2890  232.8390 O.3       1 SER10       0.0000 
      7 N          71.9660   41.1570  232.4220 N.am      2 LEU11       0.0000 
      8 CA         70.8520   41.9020  231.8480 C.3       2 LEU11       0.0000 
      9 C          71.3660   43.2360  231.3350 C.2       2 LEU11       0.0000 
     10 O          70.9650   44.2950  231.8050 O.2       2 LEU11       0.0000 
     11 CB         69.7250   42.0740  232.8650 C.3       2 LEU11       0.0000 
     12 CG         69.0730   40.7570  233.2950 C.3       2 LEU11       0.0000 
     13 CD1        68.0670   40.9830  234.4110 C.3       2 LEU11       0.0000 
     14 CD2        68.4030   40.0670  232.1140 C.3       2 LEU11       0.0000 
     15 N          72.2310   43.1510  230.3280 N.am      3 ARG12       0.0000 
     16 CA         72.9340   44.2990  229.7730 C.3       3 ARG12       0.0000 
     17 C          72.8870   44.2290  228.2480 C.2       3 ARG12       0.0000 
     18 O          73.5260   43.3760  227.6300 O.2       3 ARG12       0.0000 
     19 CB         74.3800   44.3440  230.2750 C.3       3 ARG12       0.0000 
     20 CG         74.9980   45.7230  230.1390 C.3       3 ARG12       0.0000 
     21 CD         76.4270   45.7900  230.6490 C.3       3 ARG12       0.0000 
     22 NE         76.9380   47.1650  230.5990 N.pl3     3 ARG12       0.0000 
     23 CZ         78.1670   47.5460  230.9500 C.cat     3 ARG12       0.0000 
     24 NH1        79.0630   46.6600  231.3900 N.pl3     3 ARG12       0.0000 
     25 NH2        78.5050   48.8320  230.8630 N.pl3     3 ARG12       0.0000 
     26 N          72.1110   45.1340  227.6590 N.am      4 PHE13       0.0000 
     27 CA         71.9380   45.2260  226.2070 C.3       4 PHE13       0.0000 
     28 C          73.1950   45.8320  225.5770 C.2       4 PHE13       0.0000 
     29 O          74.0400   46.3980  226.2750 O.2       4 PHE13       0.0000 
     30 CB         70.7130   46.1010  225.9000 C.3       4 PHE13       0.0000 
     31 CG         70.0660   45.8280  224.5660 C.ar      4 PHE13       0.0000 
     32 CD1        69.2820   44.6940  224.3750 C.ar      4 PHE13       0.0000 
     33 CD2        70.1940   46.7300  223.5150 C.ar      4 PHE13       0.0000 
     34 CE1        68.6650   44.4490  223.1520 C.ar      4 PHE13       0.0000 
     35 CE2        69.5780   46.4920  222.2910 C.ar      4 PHE13       0.0000 
     36 CZ         68.8130   45.3480  222.1080 C.ar      4 PHE13       0.0000 
     37 N          73.3200   45.6890  224.2610 N.am      5 LEU14       0.0000 
     38 CA         74.4330   46.2780  223.5120 C.3       5 LEU14       0.0000 
     39 C          73.9260   47.0820  222.3130 C.2       5 LEU14       0.0000 
     40 O          73.3830   46.5220  221.3640 O.2       5 LEU14       0.0000 
     41 CB         75.4120   45.1890  223.0540 C.3       5 LEU14       0.0000 
     42 CG         76.6160   45.6220  222.2010 C.3       5 LEU14       0.0000 
     43 CD1        77.5110   46.5990  222.9530 C.3       5 LEU14       0.0000 
     44 CD2        77.4140   44.4070  221.7540 C.3       5 LEU14       0.0000 
     45 N          74.1060   48.3980  222.3710 N.am      6 TYR15       0.0000 
     46 CA         73.8130   49.2790  221.2400 C.3       6 TYR15       0.0000 
     47 C          74.7610   50.4710  221.2900 C.2       6 TYR15       0.0000 
     48 O          74.6350   51.3400  222.1580 O.2       6 TYR15       0.0000 
     49 CB         72.3500   49.7360  221.2650 C.3       6 TYR15       0.0000 
     50 CG         71.9550   50.6800  220.1400 C.ar      6 TYR15       0.0000 
     51 CD1        72.2830   50.3960  218.8090 C.ar      6 TYR15       0.0000 
     52 CD2        71.2380   51.8510  220.4020 C.ar      6 TYR15       0.0000 
     53 CE1        71.9170   51.2530  217.7770 C.ar      6 TYR15       0.0000 
     54 CE2        70.8680   52.7130  219.3750 C.ar      6 TYR15       0.0000 
     55 CZ         71.2070   52.4100  218.0650 C.ar      6 TYR15       0.0000 
     56 OH         70.8460   53.2590  217.0430 O.3       6 TYR15       0.0000 
     57 N          75.7180   50.4860  220.3670 N.am      7 GLU16       0.0000 
     58 CA         76.7450   51.5270  220.3140 C.3       7 GLU16       0.0000 
     59 C          76.3220   52.7590  219.5000 C.2       7 GLU16       0.0000 
     60 O          76.9570   53.8120  219.6080 O.2       7 GLU16       0.0000 
     61 CB         78.0500   50.9330  219.7810 C.3       7 GLU16       0.0000 
     62 CG         78.6410   49.8870  220.7230 C.3       7 GLU16       0.0000 
     63 CD         79.9610   49.3010  220.2470 C.2       7 GLU16       0.0000 
     64 OE1        80.2080   49.2630  219.0220 O.co2     7 GLU16       0.0000 
     65 OE2        80.7530   48.8600  221.1110 O.co2     7 GLU16       0.0000 
     66 N          75.2580   52.6200  218.7040 N.am      8 GLY17       0.0000 
     67 CA         74.6750   53.7250  217.9300 C.3       8 GLY17       0.0000 
     68 C          74.7600   53.4640  216.4370 C.2       8 GLY17       0.0000 
     69 O          74.3050   54.2710  215.6250 O.2       8 GLY17       0.0000 
@<TRIPOS>BOND
     1    1    2 1    
     2    2    3 1    
     3    2    5 1    
     4    3    4 2    
     5    3    7 am   
     6    5    6 1    
     7    7    8 1    
     8    8    9 1    
     9    8   11 1    
    10    9   10 2    
    11    9   15 am   
    12   11   12 1    
    13   12   13 1    
    14   12   14 1    
    15   15   16 1    
    16   16   17 1    
    17   16   19 1    
    18   17   18 2    
    19   17   26 am   
    20   19   20 1    
    21   20   21 1    
    22   21   22 1    
    23   22   23 ar   
    24   23   24 ar   
    25   23   25 ar   
    26   26   27 1    
    27   27   28 1    
    28   27   30 1    
    29   28   29 2    
    30   28   37 am   
    31   30   31 1    
    32   31   32 ar   
    33   31   33 ar   
    34   32   34 ar   
    35   33   35 ar   
    36   34   36 ar   
    37   35   36 ar   
    38   37   38 1    
    39   38   39 1    
    40   38   41 1    
    41   39   40 2    
    42   39   45 am   
    43   41   42 1    
    44   42   43 1    
    45   42   44 1    
    46   45   46 1    
    47   46   47 1    
    48   46   49 1    
    49   47   48 2    
    50   47   57 am   
    51   49   50 1    
    52   50   51 ar   
    53   50   52 ar   
    54   51   53 ar   
    55   52   54 ar   
    56   53   55 ar   
    57   54   55 ar   
    58   55   56 1    
    59   57   58 1    
    60   58   59 1    
    61   58   61 1    
    62   59   60 2    
    63   59   66 am   
    64   61   62 1    
    65   62   63 1    
    66   63   64 ar   
    67   63   65 ar   
    68   66   67 1    
    69   67   68 1    
    70   68   69 2    
@<TRIPOS>SUBSTRUCTURE
     1 SER10       1 RESIDUE 
     2 LEU11       7 RESIDUE 
     3 ARG12      15 RESIDUE 
     4 PHE13      26 RESIDUE 
     5 LEU14      37 RESIDUE 
     6 TYR15      45 RESIDUE 
     7 GLU16      57 RESIDUE 
     8 GLY17      66 RESIDUE 
@<TRIPOS>SET

