#    Name: 6qzr_1_ARG_SER_CYS_TRP_PRO_LEU_PRO_TPO_CAVITY_N1_4
#    Modification time : Fri May 22 19:24:02 2020

@<TRIPOS>MOLECULE
6qzr_1_ARG_SER_CYS_TRP_PRO_LEU_PRO_TPO_CAVITY_N1_4
   75     0     7     0     0
SMALL
NO_CHARGES


@<TRIPOS>ATOM
      1 OG         20.9400  -24.2700  132.1900 O.3       1 SER1        0.0000 
      2 OG         19.6600  -23.4900  132.2300 O.3       1 SER1        0.0000 
      3 OG         18.3900  -22.7000  132.2700 O.3       1 SER1        0.0000 
      4 OG         18.8900  -24.7500  132.4400 O.3       1 SER1        0.0000 
      5 OG         17.6100  -23.9600  132.4800 O.3       1 SER1        0.0000 
      6 OG         20.3100  -25.3800  133.8900 O.3       1 SER1        0.0000 
      7 OG         19.0300  -24.5900  133.9300 O.3       1 SER1        0.0000 
      8 OG         17.7600  -23.8000  133.9700 O.3       1 SER1        0.0000 
      9 N          15.1200  -24.9300  128.2800 N.am      2 ALA2        0.0000 
     10 N          13.8500  -24.1400  128.3200 N.am      2 ALA2        0.0000 
     11 N          19.4500  -29.3500  128.3400 N.am      2 ALA2        0.0000 
     12 N          18.1700  -28.5600  128.3800 N.am      2 ALA2        0.0000 
     13 N          15.5400  -21.4500  129.3800 N.am      2 ALA2        0.0000 
     14 N          14.2700  -20.6600  129.4200 N.am      2 ALA2        0.0000 
     15 O          20.3700  -27.9200  129.6100 O.2       2 ALA2        0.0000 
     16 O          19.5900  -29.1800  129.8300 O.2       2 ALA2        0.0000 
     17 O          18.3200  -28.4000  129.8600 O.2       2 ALA2        0.0000 
     18 N          16.9600  -22.0700  130.8200 N.am      2 ALA2        0.0000 
     19 N          15.6900  -21.2800  130.8600 N.am      2 ALA2        0.0000 
     20 O          20.5200  -27.7600  131.0900 O.2       2 ALA2        0.0000 
     21 OD1        19.0900  -27.1300  129.6500 O.co2     3 ASP3        0.0000 
     22 OD1        17.8200  -26.3400  129.6900 O.co2     3 ASP3        0.0000 
     23 OD1        18.7400  -24.9100  130.9600 O.co2     3 ASP3        0.0000 
     24 OD1        19.2400  -26.9700  131.1300 O.co2     3 ASP3        0.0000 
     25 OD1        17.9600  -26.1800  131.1700 O.co2     3 ASP3        0.0000 
     26 OD1        16.6900  -25.3900  131.2100 O.co2     3 ASP3        0.0000 
     27 OD1        19.3900  -26.8100  132.6200 O.co2     3 ASP3        0.0000 
     28 OD1        16.8400  -25.2300  132.7000 O.co2     3 ASP3        0.0000 
     29 OD1        18.2600  -25.8600  134.1400 O.co2     3 ASP3        0.0000 
     30 NZ         16.5300  -22.5600  126.3700 N.4       4 LYS4        0.0000 
     31 NZ         14.4700  -23.0400  126.6200 N.4       4 LYS4        0.0000 
     32 NZ         16.6700  -22.4000  127.8500 N.4       4 LYS4        0.0000 
     33 NZ         15.4000  -21.6100  127.8900 N.4       4 LYS4        0.0000 
     34 NZ         14.1200  -20.8200  127.9300 N.4       4 LYS4        0.0000 
     35 NZ         14.6200  -22.8800  128.1100 N.4       4 LYS4        0.0000 
     36 NZ         20.6600  -27.5900  132.5800 N.4       4 LYS4        0.0000 
     37 NZ         19.5300  -26.6400  134.1000 N.4       4 LYS4        0.0000 
     38 CZ         14.9100  -22.5500  131.0800 C.ar      5 PHE5        0.0000 
     39 CA         17.3800  -26.8300  125.2400 C.3       6 GLY6        0.0000 
     40 CA         17.0300  -24.6100  126.5500 C.3       6 GLY6        0.0000 
     41 CA         15.7500  -23.8300  126.5800 C.3       6 GLY6        0.0000 
     42 CA         17.5300  -26.6700  126.7200 C.3       6 GLY6        0.0000 
     43 CA         16.2500  -25.8800  126.7600 C.3       6 GLY6        0.0000 
     44 CA         19.3000  -29.5100  126.8600 C.3       6 GLY6        0.0000 
     45 CA         18.0300  -28.7200  126.9000 C.3       6 GLY6        0.0000 
     46 CA         16.7500  -27.9300  126.9400 C.3       6 GLY6        0.0000 
     47 CA         13.3500  -22.0900  128.1500 C.3       6 GLY6        0.0000 
     48 CA         16.4000  -25.7200  128.2400 C.3       6 GLY6        0.0000 
     49 CA         16.9000  -27.7700  128.4200 C.3       6 GLY6        0.0000 
     50 CA         15.6200  -26.9800  128.4600 C.3       6 GLY6        0.0000 
     51 CA         14.7700  -22.7100  129.5900 C.3       6 GLY6        0.0000 
     52 CA         13.4900  -21.9200  129.6300 C.3       6 GLY6        0.0000 
     53 CA         16.5400  -25.5500  129.7300 C.3       6 GLY6        0.0000 
     54 CA         13.9900  -23.9800  129.8100 C.3       6 GLY6        0.0000 
     55 CA         17.0400  -27.6100  129.9000 C.3       6 GLY6        0.0000 
     56 CA         15.7700  -26.8200  129.9400 C.3       6 GLY6        0.0000 
     57 CA         14.4900  -26.0300  129.9800 C.3       6 GLY6        0.0000 
     58 CA         13.6400  -21.7600  131.1200 C.3       6 GLY6        0.0000 
     59 CA         15.4100  -24.6000  131.2500 C.3       6 GLY6        0.0000 
     60 CA         14.1400  -23.8200  131.2900 C.3       6 GLY6        0.0000 
     61 CA         14.6400  -25.8700  131.4700 C.3       6 GLY6        0.0000 
     62 CA         20.1600  -25.5400  132.4000 C.3       6 GLY6        0.0000 
     63 DU         17.1700  -24.4500  128.0300 H         7 CUB7        0.0000 
     64 DU         15.9000  -23.6600  128.0700 H         7 CUB7        0.0000 
     65 DU         18.9500  -27.2900  128.1700 H         7 CUB7        0.0000 
     66 DU         17.6700  -26.5100  128.2000 H         7 CUB7        0.0000 
     67 DU         16.8200  -22.2300  129.3400 H         7 CUB7        0.0000 
     68 DU         18.5900  -25.0800  129.4700 H         7 CUB7        0.0000 
     69 DU         17.3200  -24.2900  129.5100 H         7 CUB7        0.0000 
     70 DU         15.2700  -24.7700  129.7700 H         7 CUB7        0.0000 
     71 DU         19.5200  -23.6500  130.7400 H         7 CUB7        0.0000 
     72 DU         18.2400  -22.8600  130.7800 H         7 CUB7        0.0000 
     73 DU         20.0200  -25.7000  130.9200 H         7 CUB7        0.0000 
     74 DU         17.4600  -24.1300  131.0000 H         7 CUB7        0.0000 
     75 DU         16.1900  -23.3400  131.0400 H         7 CUB7        0.0000 
@<TRIPOS>BOND
@<TRIPOS>SUBSTRUCTURE
     1 SER1        1 GROUP   
     2 ALA2        9 GROUP   
     3 ASP3       21 GROUP   
     4 LYS4       30 GROUP   
     5 PHE5       38 GROUP   
     6 GLY6       39 GROUP   
     7 CUB7       63 GROUP   
@<TRIPOS>SET

