#    Name: 6qzr_1_ARG_SER_CYS_TRP_PRO_LEU_PRO_TPO
#    Modification time : Fri May 22 19:24:00 2020

@<TRIPOS>MOLECULE
6qzr_1_ARG_SER_CYS_TRP_PRO_LEU_PRO_TPO
   64    67     8     0     0
SMALL
NO_CHARGES


@<TRIPOS>ATOM
      1 N          28.3020  -37.4190  125.0880 N.4       1 ARG21       0.0000 
      2 CA         27.3270  -37.8220  124.0420 C.3       1 ARG21       0.0000 
      3 C          26.0970  -36.9040  124.0950 C.2       1 ARG21       0.0000 
      4 O          26.1990  -35.7760  123.6350 O.2       1 ARG21       0.0000 
      5 CB         26.9550  -39.3050  124.1630 C.3       1 ARG21       0.0000 
      6 N          25.0200  -37.3720  124.7190 N.am      2 SER22       0.0000 
      7 CA         23.6900  -36.7060  124.7620 C.3       2 SER22       0.0000 
      8 C          23.7300  -35.2300  125.1680 C.2       2 SER22       0.0000 
      9 O          24.4710  -34.8820  126.0480 O.2       2 SER22       0.0000 
     10 CB         22.7070  -37.4780  125.5960 C.3       2 SER22       0.0000 
     11 OG         23.0700  -38.8340  125.7180 O.3       2 SER22       0.0000 
     12 N          22.9220  -34.4120  124.5090 N.am      3 CYS23       0.0000 
     13 CA         22.7280  -33.0000  124.8290 C.3       3 CYS23       0.0000 
     14 C          21.6100  -32.7900  125.8580 C.2       3 CYS23       0.0000 
     15 O          20.6360  -33.5530  125.9100 O.2       3 CYS23       0.0000 
     16 CB         22.3750  -32.2290  123.5680 C.3       3 CYS23       0.0000 
     17 SG         23.5390  -32.5510  122.2240 S.3       3 CYS23       0.0000 
     18 N          19.4940  -29.3090  128.1640 N.am      4 TRP25       0.0000 
     19 CA         19.1240  -27.9110  128.0720 C.3       4 TRP25       0.0000 
     20 C          19.0020  -27.3610  129.4780 C.2       4 TRP25       0.0000 
     21 O          18.4170  -28.0080  130.3340 O.2       4 TRP25       0.0000 
     22 CB         17.8090  -27.7310  127.2980 C.3       4 TRP25       0.0000 
     23 CG         17.6200  -26.3770  126.6660 C.2       4 TRP25       0.0000 
     24 CD1        18.1610  -25.8980  125.4980 C.2       4 TRP25       0.0000 
     25 CD2        16.8160  -25.3200  127.1970 C.ar      4 TRP25       0.0000 
     26 NE1        17.7400  -24.6130  125.2660 N.pl3     4 TRP25       0.0000 
     27 CE2        16.9180  -24.2350  126.3010 C.ar      4 TRP25       0.0000 
     28 CE3        16.0340  -25.1910  128.3510 C.ar      4 TRP25       0.0000 
     29 CZ2        16.2590  -23.0310  126.5430 C.ar      4 TRP25       0.0000 
     30 CZ3        15.3720  -24.0010  128.5830 C.ar      4 TRP25       0.0000 
     31 CH2        15.4900  -22.9370  127.6890 C.ar      4 TRP25       0.0000 
     32 N          19.5160  -26.1550  129.7040 N.am      5 PRO26       0.0000 
     33 CA         20.1550  -25.2970  128.7110 C.3       5 PRO26       0.0000 
     34 C          21.5700  -25.7720  128.3560 C.2       5 PRO26       0.0000 
     35 O          22.2450  -26.3550  129.2240 O.2       5 PRO26       0.0000 
     36 CB         20.2570  -23.9120  129.3820 C.3       5 PRO26       0.0000 
     37 CG         20.2040  -24.2240  130.8700 C.3       5 PRO26       0.0000 
     38 CD         19.4090  -25.5150  131.0000 C.3       5 PRO26       0.0000 
     39 N          21.9610  -25.5210  127.0900 N.am      6 LEU27       0.0000 
     40 CA         23.2750  -25.8290  126.4890 C.3       6 LEU27       0.0000 
     41 C          24.3800  -25.0610  127.1960 C.2       6 LEU27       0.0000 
     42 O          24.1100  -24.0480  127.8350 O.2       6 LEU27       0.0000 
     43 CB         23.3020  -25.3910  125.0190 C.3       6 LEU27       0.0000 
     44 CG         22.7780  -26.3630  123.9620 C.3       6 LEU27       0.0000 
     45 CD1        22.7950  -27.8150  124.4440 C.3       6 LEU27       0.0000 
     46 CD2        21.3930  -25.9400  123.4780 C.3       6 LEU27       0.0000 
     47 N          25.6560  -25.4790  127.0000 N.am      7 PRO28       0.0000 
     48 CA         26.8190  -24.6200  127.2620 C.3       7 PRO28       0.0000 
     49 C          26.8600  -23.3990  126.3250 C.2       7 PRO28       0.0000 
     50 O          27.5020  -22.3980  126.6590 O.2       7 PRO28       0.0000 
     51 CB         28.0420  -25.5280  127.0100 C.3       7 PRO28       0.0000 
     52 CG         27.4930  -26.9540  126.9900 C.3       7 PRO28       0.0000 
     53 CD         26.0520  -26.8230  126.5370 C.3       7 PRO28       0.0000 
     54 N          21.7980  -31.7450  126.6830 N.am      8 TPO24       0.0000 
     55 CA         20.8340  -31.2900  127.6720 C.3       8 TPO24       0.0000 
     56 CB         21.3770  -31.6820  129.0520 C.3       8 TPO24       0.0000 
     57 CG2        21.1710  -33.1750  129.2080 C.3       8 TPO24       0.0000 
     58 OG1        22.7420  -31.2920  129.1330 O.3       8 TPO24       0.0000 
     59 P          23.4510  -31.4150  130.5980 P.3       8 TPO24       0.0000 
     60 O1P        24.5640  -30.4250  130.4340 O.co2     8 TPO24       0.0000 
     61 O2P        23.9780  -32.8480  130.9180 O.co2     8 TPO24       0.0000 
     62 O3P        22.4830  -30.9950  131.7080 O.co2     8 TPO24       0.0000 
     63 C          20.6140  -29.7790  127.6130 C.2       8 TPO24       0.0000 
     64 O          21.4470  -29.0520  127.1060 O.2       8 TPO24       0.0000 
@<TRIPOS>BOND
     1    1    2 1    
     2    2    3 1    
     3    2    5 1    
     4    3    4 2    
     5    3    6 am   
     6    6    7 1    
     7    7    8 1    
     8    7   10 1    
     9    8    9 2    
    10    8   12 am   
    11   10   11 1    
    12   12   13 1    
    13   13   14 1    
    14   13   16 1    
    15   14   15 2    
    16   14   54 du   
    17   16   17 1    
    18   18   19 1    
    19   18   63 am   
    20   19   20 1    
    21   19   22 1    
    22   20   21 2    
    23   20   32 am   
    24   22   23 1    
    25   23   24 2    
    26   23   25 1    
    27   24   26 1    
    28   25   27 ar   
    29   25   28 ar   
    30   26   27 1    
    31   27   29 ar   
    32   28   30 ar   
    33   29   31 ar   
    34   30   31 ar   
    35   32   33 1    
    36   32   38 1    
    37   33   34 1    
    38   33   36 1    
    39   34   35 2    
    40   34   39 am   
    41   36   37 1    
    42   37   38 1    
    43   39   40 1    
    44   40   41 1    
    45   40   43 1    
    46   41   42 2    
    47   41   47 am   
    48   43   44 1    
    49   44   45 1    
    50   44   46 1    
    51   47   48 1    
    52   47   53 1    
    53   48   49 1    
    54   48   51 1    
    55   49   50 2    
    56   51   52 1    
    57   52   53 1    
    58   54   55 1    
    59   55   56 1    
    60   55   63 1    
    61   56   57 1    
    62   56   58 1    
    63   58   59 1    
    64   59   60 ar   
    65   59   61 ar   
    66   59   62 ar   
    67   63   64 2    
@<TRIPOS>SUBSTRUCTURE
     1 ARG21       1 RESIDUE 
     2 SER22       6 RESIDUE 
     3 CYS23      12 RESIDUE 
     4 TRP25      18 RESIDUE 
     5 PRO26      32 RESIDUE 
     6 LEU27      39 RESIDUE 
     7 PRO28      47 RESIDUE 
     8 TPO24      54 RESIDUE 
@<TRIPOS>SET

