#    Name: 6i4p_1_FAD
#    Modification time : Fri May 22 19:26:31 2020

@<TRIPOS>MOLECULE
6i4p_1_FAD
   84    89     1     0     1
SMALL
NO_CHARGES


@<TRIPOS>ATOM
      1 PA         38.3340   13.0650   18.5580 P.3       1 FAD501      0.0000 
      2 O1A        37.5550   11.7750   18.9410 O.co2     1 FAD501      0.0000 
      3 O2A        37.8650   13.6710   17.2630 O.co2     1 FAD501      0.0000 
      4 O5B        38.2270   14.0200   19.8430 O.3       1 FAD501      0.0000 
      5 C5B        38.6930   15.4050   19.7790 C.3       1 FAD501      0.0000 
      6 C4B        37.9580   16.1620   20.8440 C.3       1 FAD501      0.0000 
      7 O4B        38.6070   17.4510   21.0140 O.3       1 FAD501      0.0000 
      8 C3B        36.5050   16.4540   20.4860 C.3       1 FAD501      0.0000 
      9 O3B        35.7460   16.1200   21.6380 O.3       1 FAD501      0.0000 
     10 C2B        36.5170   17.9650   20.1910 C.3       1 FAD501      0.0000 
     11 O2B        35.2790   18.5800   20.5130 O.3       1 FAD501      0.0000 
     12 C1B        37.6020   18.4350   21.1280 C.3       1 FAD501      0.0000 
     13 N9A        38.2540   19.6980   20.7530 N.pl3     1 FAD501      0.0000 
     14 C8A        38.8340   20.0220   19.5590 C.2       1 FAD501      0.0000 
     15 N7A        39.3790   21.2280   19.5470 N.2       1 FAD501      0.0000 
     16 C5A        39.2250   21.6730   20.8500 C.ar      1 FAD501      0.0000 
     17 C6A        39.5430   22.8890   21.4810 C.ar      1 FAD501      0.0000 
     18 N6A        40.2940   23.8350   20.9170 N.pl3     1 FAD501      0.0000 
     19 N1A        39.2450   23.0050   22.7740 N.ar      1 FAD501      0.0000 
     20 C2A        38.5420   22.0410   23.3750 C.ar      1 FAD501      0.0000 
     21 N3A        38.1540   20.8700   22.8750 N.ar      1 FAD501      0.0000 
     22 C4A        38.5000   20.7610   21.5890 C.ar      1 FAD501      0.0000 
     23 N1         37.4750    4.5050   14.8260 N.2       1 FAD501      0.0000 
     24 C2         37.6710    3.1950   15.1910 C.2       1 FAD501      0.0000 
     25 O2         38.7200    2.8340   15.7040 O.2       1 FAD501      0.0000 
     26 N3         36.6350    2.3120   15.1140 N.am      1 FAD501      0.0000 
     27 C4         35.3910    2.5500   14.6030 C.2       1 FAD501      0.0000 
     28 O4         34.5390    1.6550   14.5350 O.2       1 FAD501      0.0000 
     29 C4X        35.1840    3.9140   14.1670 C.2       1 FAD501      0.0000 
     30 N5         34.0100    4.2170   13.6540 N.2       1 FAD501      0.0000 
     31 C5X        33.7940    5.5600   13.2930 C.ar      1 FAD501      0.0000 
     32 C6         32.5530    5.9180   12.7670 C.ar      1 FAD501      0.0000 
     33 C7         32.2930    7.2390   12.4130 C.ar      1 FAD501      0.0000 
     34 C7M        30.9550    7.6050   11.8350 C.3       1 FAD501      0.0000 
     35 C8         33.3050    8.1950   12.5180 C.ar      1 FAD501      0.0000 
     36 C8M        33.0560    9.6560   12.1450 C.3       1 FAD501      0.0000 
     37 C9         34.5340    7.8470   13.0520 C.ar      1 FAD501      0.0000 
     38 C9A        34.8040    6.5230   13.3910 C.ar      1 FAD501      0.0000 
     39 N10        36.0510    6.1280   13.9400 N.pl3     1 FAD501      0.0000 
     40 C10        36.2810    4.8130   14.3140 C.2       1 FAD501      0.0000 
     41 C1'        37.1860    7.1100   14.0800 C.3       1 FAD501      0.0000 
     42 C2'        37.3580    7.6150   15.5090 C.3       1 FAD501      0.0000 
     43 O2'        36.1370    8.2650   15.8760 O.3       1 FAD501      0.0000 
     44 C3'        38.5490    8.5830   15.5860 C.3       1 FAD501      0.0000 
     45 O3'        39.7400    7.9660   15.0790 O.3       1 FAD501      0.0000 
     46 C4'        38.8180    8.9960   17.0300 C.3       1 FAD501      0.0000 
     47 O4'        37.5950    9.4800   17.5840 O.3       1 FAD501      0.0000 
     48 C5'        39.9120   10.0230   17.1210 C.3       1 FAD501      0.0000 
     49 O5'        40.2670   10.2220   18.5050 O.3       1 FAD501      0.0000 
     50 P          40.8990   11.6260   18.9770 P.3       1 FAD501      0.0000 
     51 O1P        40.8860   11.5730   20.4890 O.co2     1 FAD501      0.0000 
     52 O2P        42.1970   11.8050   18.3140 O.co2     1 FAD501      0.0000 
     53 O3P        39.8750   12.7590   18.4300 O.3       1 FAD501      0.0000 
     54 H51A       39.6180   15.4420   19.9360 H         1 FAD501      0.0000 
     55 H52A       38.5040   15.7700   18.9340 H         1 FAD501      0.0000 
     56 H4B        37.9820   15.7090   21.6660 H         1 FAD501      0.0000 
     57 H3B        36.2100   16.0150   19.7100 H         1 FAD501      0.0000 
     58 HO3A       34.9360   16.1980   21.4680 H         1 FAD501      0.0000 
     59 H2B        36.7510   18.1300   19.2970 H         1 FAD501      0.0000 
     60 HO2A       34.7950   18.5980   19.8370 H         1 FAD501      0.0000 
     61 H1B        37.2450   18.5040   21.9940 H         1 FAD501      0.0000 
     62 H8A        38.8060   19.4660   18.8140 H         1 FAD501      0.0000 
     63 H61A       40.6470   24.4590   21.4060 H         1 FAD501      0.0000 
     64 H62A       40.4300   23.8270   20.0590 H         1 FAD501      0.0000 
     65 H2A        38.3400   22.1800   24.2740 H         1 FAD501      0.0000 
     66 HN3        36.8080    1.4890   15.3260 H         1 FAD501      0.0000 
     67 H6         32.0000    5.1740   12.7090 H         1 FAD501      0.0000 
     68 HM71       30.5180    8.2040   12.4110 H         1 FAD501      0.0000 
     69 HM72       31.0770    8.0100   10.9960 H         1 FAD501      0.0000 
     70 HM73       30.4340    6.8300   11.7350 H         1 FAD501      0.0000 
     71 HM81       32.7800    9.7070   11.2480 H         1 FAD501      0.0000 
     72 HM82       32.3860   10.0110   12.6990 H         1 FAD501      0.0000 
     73 HM83       33.8480   10.1470   12.2570 H         1 FAD501      0.0000 
     74 H9         35.0910    8.5460   12.7970 H         1 FAD501      0.0000 
     75 H1'1       37.9820    6.6890   13.8130 H         1 FAD501      0.0000 
     76 H1'2       37.0180    7.8450   13.5200 H         1 FAD501      0.0000 
     77 H2'        37.5480    6.9140   16.1030 H         1 FAD501      0.0000 
     78 HO2'       35.5200    7.7060   15.8940 H         1 FAD501      0.0000 
     79 H3'        38.3750    9.3250   15.0360 H         1 FAD501      0.0000 
     80 HO3'       39.7420    8.0080   14.2480 H         1 FAD501      0.0000 
     81 H4'        39.0880    8.2510   17.5330 H         1 FAD501      0.0000 
     82 HO4'       37.6350    9.4500   18.4140 H         1 FAD501      0.0000 
     83 H5'1       40.6640    9.7230   16.6450 H         1 FAD501      0.0000 
     84 H5'2       39.6130   10.8340   16.7550 H         1 FAD501      0.0000 
@<TRIPOS>BOND
     1    1    2 ar   
     2    1    3 ar   
     3    1    4 1    
     4    1   53 1    
     5    4    5 1    
     6    5    6 1    
     7    5   54 1    
     8    5   55 1    
     9    6    7 1    
    10    6    8 1    
    11    6   56 1    
    12    7   12 1    
    13    8    9 1    
    14    8   10 1    
    15    8   57 1    
    16    9   58 1    
    17   10   11 1    
    18   10   12 1    
    19   10   59 1    
    20   11   60 1    
    21   12   13 1    
    22   12   61 1    
    23   13   14 1    
    24   13   22 1    
    25   14   15 2    
    26   14   62 1    
    27   15   16 1    
    28   16   17 ar   
    29   16   22 ar   
    30   17   18 1    
    31   17   19 ar   
    32   18   63 1    
    33   18   64 1    
    34   19   20 ar   
    35   20   21 ar   
    36   20   65 1    
    37   21   22 ar   
    38   23   24 1    
    39   23   40 2    
    40   24   25 2    
    41   24   26 am   
    42   26   27 am   
    43   26   66 1    
    44   27   28 2    
    45   27   29 1    
    46   29   30 2    
    47   29   40 1    
    48   30   31 1    
    49   31   32 ar   
    50   31   38 ar   
    51   32   33 ar   
    52   32   67 1    
    53   33   34 1    
    54   33   35 ar   
    55   34   68 1    
    56   34   69 1    
    57   34   70 1    
    58   35   36 1    
    59   35   37 ar   
    60   37   74 1    
    61   36   71 1    
    62   36   72 1    
    63   36   73 1    
    64   37   38 ar   
    65   38   39 1    
    66   39   40 1    
    67   39   41 1    
    68   41   42 1    
    69   41   75 1    
    70   41   76 1    
    71   42   43 1    
    72   42   44 1    
    73   42   77 1    
    74   43   78 1    
    75   44   45 1    
    76   44   46 1    
    77   44   79 1    
    78   45   80 1    
    79   46   47 1    
    80   46   48 1    
    81   46   81 1    
    82   47   82 1    
    83   48   49 1    
    84   48   83 1    
    85   48   84 1    
    86   49   50 1    
    87   50   51 ar   
    88   50   52 ar   
    89   50   53 1    
@<TRIPOS>SUBSTRUCTURE
     1 FAD501      1 GROUP   
@<TRIPOS>SET
ATOM$ORANGE STATIC     ATOMS   COLORGROUP SYSTEM 
54 5 5 6 6 8 8 10 10 12 12 14 14 16 16 17 17 20 \
20 22 22 24 24 27 27 29 29 31 31 32 32 33 33 34 34 35 \
35 36 36 37 37 38 38 40 40 41 41 42 42 44 44 46 46 48 \
48 

