#    Name: 6i4p_2_FAD
#    Modification time : Fri May 22 19:26:45 2020

@<TRIPOS>MOLECULE
6i4p_2_FAD
   84    89     1     0     1
SMALL
NO_CHARGES


@<TRIPOS>ATOM
      1 PA         35.2460  -39.8920   19.6660 P.3       1 FAD501      0.0000 
      2 O1A        34.7590  -38.5360   19.1060 O.co2     1 FAD501      0.0000 
      3 O2A        34.3590  -40.3970   20.7440 O.co2     1 FAD501      0.0000 
      4 O5B        35.4370  -40.8230   18.3960 O.3       1 FAD501      0.0000 
      5 C5B        35.6790  -42.2420   18.5840 C.3       1 FAD501      0.0000 
      6 C4B        35.1600  -42.9370   17.3520 C.3       1 FAD501      0.0000 
      7 O4B        35.6960  -44.3100   17.3440 O.3       1 FAD501      0.0000 
      8 C3B        33.6330  -43.0780   17.2840 C.3       1 FAD501      0.0000 
      9 O3B        33.2050  -42.6360   15.9950 O.3       1 FAD501      0.0000 
     10 C2B        33.4260  -44.5830   17.5320 C.3       1 FAD501      0.0000 
     11 O2B        32.3230  -45.0850   16.8030 O.3       1 FAD501      0.0000 
     12 C1B        34.6770  -45.1710   16.9320 C.3       1 FAD501      0.0000 
     13 N9A        35.0660  -46.5030   17.4350 N.pl3     1 FAD501      0.0000 
     14 C8A        35.3100  -46.8470   18.7380 C.2       1 FAD501      0.0000 
     15 N7A        35.7020  -48.1050   18.8880 N.2       1 FAD501      0.0000 
     16 C5A        35.8360  -48.5570   17.5840 C.ar      1 FAD501      0.0000 
     17 C6A        36.2100  -49.8040   17.0600 C.ar      1 FAD501      0.0000 
     18 N6A        36.6820  -50.7690   17.8230 N.pl3     1 FAD501      0.0000 
     19 N1A        36.2320  -49.9460   15.7170 N.ar      1 FAD501      0.0000 
     20 C2A        35.8130  -48.9260   14.9570 C.ar      1 FAD501      0.0000 
     21 N3A        35.4150  -47.7100   15.3520 N.ar      1 FAD501      0.0000 
     22 C4A        35.4170  -47.6010   16.6840 C.ar      1 FAD501      0.0000 
     23 N1         34.3770  -31.1760   23.1610 N.2       1 FAD501      0.0000 
     24 C2         34.8460  -29.9200   22.8520 C.2       1 FAD501      0.0000 
     25 O2         36.0590  -29.7110   22.7000 O.2       1 FAD501      0.0000 
     26 N3         33.9520  -28.9110   22.6610 N.am      1 FAD501      0.0000 
     27 C4         32.5730  -28.9740   22.7960 C.2       1 FAD501      0.0000 
     28 O4         31.8550  -27.9790   22.5920 O.2       1 FAD501      0.0000 
     29 C4X        32.0840  -30.2730   23.1430 C.2       1 FAD501      0.0000 
     30 N5         30.7830  -30.4230   23.2870 N.2       1 FAD501      0.0000 
     31 C5X        30.3140  -31.7340   23.5710 C.ar      1 FAD501      0.0000 
     32 C6         28.9350  -31.9270   23.7080 C.ar      1 FAD501      0.0000 
     33 C7         28.4250  -33.1780   24.0170 C.ar      1 FAD501      0.0000 
     34 C7M        26.9330  -33.3700   24.1540 C.3       1 FAD501      0.0000 
     35 C8         29.3010  -34.2620   24.1550 C.ar      1 FAD501      0.0000 
     36 C8M        28.7710  -35.6600   24.4670 C.3       1 FAD501      0.0000 
     37 C9         30.6740  -34.0910   24.0090 C.ar      1 FAD501      0.0000 
     38 C9A        31.1880  -32.8260   23.7310 C.ar      1 FAD501      0.0000 
     39 N10        32.5730  -32.5980   23.5700 N.pl3     1 FAD501      0.0000 
     40 C10        33.0640  -31.3130   23.3180 C.2       1 FAD501      0.0000 
     41 C1'        33.5600  -33.6780   23.7630 C.3       1 FAD501      0.0000 
     42 C2'        34.1220  -34.2200   22.4370 C.3       1 FAD501      0.0000 
     43 O2'        33.0540  -34.7700   21.6650 O.3       1 FAD501      0.0000 
     44 C3'        35.1300  -35.3450   22.7120 C.3       1 FAD501      0.0000 
     45 O3'        36.2300  -34.8850   23.4880 O.3       1 FAD501      0.0000 
     46 C4'        35.7150  -35.8890   21.4090 C.3       1 FAD501      0.0000 
     47 O4'        34.6430  -36.2350   20.5250 O.3       1 FAD501      0.0000 
     48 C5'        36.6810  -37.0310   21.6010 C.3       1 FAD501      0.0000 
     49 O5'        37.3450  -37.2940   20.3480 O.3       1 FAD501      0.0000 
     50 P          37.9390  -38.7650   20.0400 P.3       1 FAD501      0.0000 
     51 O1P        38.9460  -39.0600   21.1380 O.co2     1 FAD501      0.0000 
     52 O2P        38.3820  -38.7060   18.6770 O.co2     1 FAD501      0.0000 
     53 O3P        36.7020  -39.7930   20.2550 O.3       1 FAD501      0.0000 
     54 H51A       36.5990  -42.4040   18.6830 H         1 FAD501      0.0000 
     55 H52A       35.2230  -42.5500   19.3450 H         1 FAD501      0.0000 
     56 H4B        35.4440  -42.4890   16.5770 H         1 FAD501      0.0000 
     57 H3B        33.1900  -42.6100   17.9670 H         1 FAD501      0.0000 
     58 HO3A       32.3730  -42.6120   15.9720 H         1 FAD501      0.0000 
     59 H2B        33.3610  -44.7470   18.4550 H         1 FAD501      0.0000 
     60 HO2A       31.6170  -44.7890   17.1280 H         1 FAD501      0.0000 
     61 H1B        34.5730  -45.2040   15.9990 H         1 FAD501      0.0000 
     62 H8A        35.1390  -46.2750   19.4540 H         1 FAD501      0.0000 
     63 H61A       36.7910  -50.6360   18.6740 H         1 FAD501      0.0000 
     64 H62A       36.8840  -51.5390   17.4750 H         1 FAD501      0.0000 
     65 H2A        35.8290  -49.0670   14.0400 H         1 FAD501      0.0000 
     66 HN3        34.2820  -28.1240   22.4990 H         1 FAD501      0.0000 
     67 H6         28.4830  -31.1280   23.5640 H         1 FAD501      0.0000 
     68 HM71       26.6470  -34.0370   23.5590 H         1 FAD501      0.0000 
     69 HM72       26.7310  -33.6280   25.0340 H         1 FAD501      0.0000 
     70 HM73       26.4940  -32.5640   23.9560 H         1 FAD501      0.0000 
     71 HM81       28.2800  -35.9790   23.7330 H         1 FAD501      0.0000 
     72 HM82       29.4910  -36.2370   24.6370 H         1 FAD501      0.0000 
     73 HM83       28.2140  -35.6220   25.2220 H         1 FAD501      0.0000 
     74 H9         31.0410  -34.8290   24.4370 H         1 FAD501      0.0000 
     75 H1'1       33.1470  -34.3830   24.2240 H         1 FAD501      0.0000 
     76 H1'2       34.2730  -33.3440   24.2750 H         1 FAD501      0.0000 
     77 H2'        34.5510  -33.5230   21.9780 H         1 FAD501      0.0000 
     78 HO2'       32.5000  -35.1270   22.1730 H         1 FAD501      0.0000 
     79 H3'        34.6930  -36.0050   23.2170 H         1 FAD501      0.0000 
     80 HO3'       36.1450  -35.1480   24.2730 H         1 FAD501      0.0000 
     81 H4'        36.2080  -35.2010   21.0030 H         1 FAD501      0.0000 
     82 HO4'       34.9130  -36.2070   19.7380 H         1 FAD501      0.0000 
     83 H5'1       36.2130  -37.7970   21.8770 H         1 FAD501      0.0000 
     84 H5'2       37.3160  -36.8000   22.2530 H         1 FAD501      0.0000 
@<TRIPOS>BOND
     1    1    2 ar   
     2    1    3 ar   
     3    1    4 1    
     4    1   53 1    
     5    4    5 1    
     6    5    6 1    
     7    5   54 1    
     8    5   55 1    
     9    6    7 1    
    10    6    8 1    
    11    6   56 1    
    12    7   12 1    
    13    8    9 1    
    14    8   10 1    
    15    8   57 1    
    16    9   58 1    
    17   10   11 1    
    18   10   12 1    
    19   10   59 1    
    20   11   60 1    
    21   12   13 1    
    22   12   61 1    
    23   13   14 1    
    24   13   22 1    
    25   14   15 2    
    26   14   62 1    
    27   15   16 1    
    28   16   17 ar   
    29   16   22 ar   
    30   17   18 1    
    31   17   19 ar   
    32   18   63 1    
    33   18   64 1    
    34   19   20 ar   
    35   20   21 ar   
    36   20   65 1    
    37   21   22 ar   
    38   23   24 1    
    39   23   40 2    
    40   24   25 2    
    41   24   26 am   
    42   26   27 am   
    43   26   66 1    
    44   27   28 2    
    45   27   29 1    
    46   29   30 2    
    47   29   40 1    
    48   30   31 1    
    49   31   32 ar   
    50   31   38 ar   
    51   32   33 ar   
    52   32   67 1    
    53   33   34 1    
    54   33   35 ar   
    55   34   68 1    
    56   34   69 1    
    57   34   70 1    
    58   35   36 1    
    59   35   37 ar   
    60   37   74 1    
    61   36   71 1    
    62   36   72 1    
    63   36   73 1    
    64   37   38 ar   
    65   38   39 1    
    66   39   40 1    
    67   39   41 1    
    68   41   42 1    
    69   41   75 1    
    70   41   76 1    
    71   42   43 1    
    72   42   44 1    
    73   42   77 1    
    74   43   78 1    
    75   44   45 1    
    76   44   46 1    
    77   44   79 1    
    78   45   80 1    
    79   46   47 1    
    80   46   48 1    
    81   46   81 1    
    82   47   82 1    
    83   48   49 1    
    84   48   83 1    
    85   48   84 1    
    86   49   50 1    
    87   50   51 ar   
    88   50   52 ar   
    89   50   53 1    
@<TRIPOS>SUBSTRUCTURE
     1 FAD501      1 GROUP   
@<TRIPOS>SET
ATOM$ORANGE STATIC     ATOMS   COLORGROUP SYSTEM 
54 5 5 6 6 8 8 10 10 12 12 14 14 16 16 17 17 20 \
20 22 22 24 24 27 27 29 29 31 31 32 32 33 33 34 34 35 \
35 36 36 37 37 38 38 40 40 41 41 42 42 44 44 46 46 48 \
48 

