#    Name: 6gfh_2_ATP
#    Modification time : Fri May 22 19:26:43 2020

@<TRIPOS>MOLECULE
6gfh_2_ATP
   43    45     1     0     1
SMALL
NO_CHARGES


@<TRIPOS>ATOM
      1 PG         -3.1740   -3.6970   -1.0030 P.3       1 ATP502      0.0000 
      2 O1G        -1.8430   -3.6360   -1.7300 O.co2     1 ATP502      0.0000 
      3 O2G        -3.6970   -2.3560   -0.5550 O.co2     1 ATP502      0.0000 
      4 O3G        -3.2320   -4.7570    0.0940 O.co2     1 ATP502      0.0000 
      5 PB         -5.8010   -3.7930   -2.2560 P.3       1 ATP502      0.0000 
      6 O1B        -6.6270   -5.0460   -2.2470 O.co2     1 ATP502      0.0000 
      7 O2B        -6.1500   -2.6970   -1.2810 O.co2     1 ATP502      0.0000 
      8 O3B        -4.2240   -4.1770   -2.1560 O.3       1 ATP502      0.0000 
      9 PA         -4.5540   -2.5530   -4.3810 P.3       1 ATP502      0.0000 
     10 O1A        -5.0800   -1.6900   -5.4940 O.co2     1 ATP502      0.0000 
     11 O2A        -3.7110   -1.9410   -3.2880 O.co2     1 ATP502      0.0000 
     12 O3A        -5.8350   -3.2930   -3.7630 O.3       1 ATP502      0.0000 
     13 O5'        -3.7310   -3.7960   -4.9700 O.3       1 ATP502      0.0000 
     14 C5'        -3.9780   -4.3020   -6.2650 C.3       1 ATP502      0.0000 
     15 C4'        -2.6680   -4.7030   -6.9350 C.3       1 ATP502      0.0000 
     16 O4'        -2.8030   -4.5880   -8.3530 O.3       1 ATP502      0.0000 
     17 C3'        -1.4640   -3.8620   -6.5370 C.3       1 ATP502      0.0000 
     18 O3'        -0.7410   -4.4270   -5.4390 O.3       1 ATP502      0.0000 
     19 C2'        -0.6530   -3.7550   -7.8360 C.3       1 ATP502      0.0000 
     20 O2'         0.2650   -4.8230   -8.1350 O.3       1 ATP502      0.0000 
     21 C1'        -1.7140   -3.8380   -8.9030 C.3       1 ATP502      0.0000 
     22 N9         -2.1670   -2.4680   -9.2070 N.pl3     1 ATP502      0.0000 
     23 C8         -3.0400   -1.7460   -8.4730 C.2       1 ATP502      0.0000 
     24 N7         -3.2470   -0.5200   -9.0100 N.2       1 ATP502      0.0000 
     25 C5         -2.4910   -0.4410  -10.1120 C.ar      1 ATP502      0.0000 
     26 C6         -2.2600    0.5910  -11.1360 C.ar      1 ATP502      0.0000 
     27 N6         -2.8920    1.7810  -11.0640 N.pl3     1 ATP502      0.0000 
     28 N1         -1.3950    0.2890  -12.1230 N.ar      1 ATP502      0.0000 
     29 C2         -0.7740   -0.9130  -12.1770 C.ar      1 ATP502      0.0000 
     30 N3         -0.9400   -1.9050  -11.2740 N.ar      1 ATP502      0.0000 
     31 C4         -1.7750   -1.7230  -10.2350 C.ar      1 ATP502      0.0000 
     32 H5'1       -4.4790   -3.5410   -6.8660 H         1 ATP502      0.0000 
     33 H5'2       -4.6380   -5.1700   -6.1990 H         1 ATP502      0.0000 
     34 H4'        -2.4560   -5.7490   -6.6740 H         1 ATP502      0.0000 
     35 H3'        -1.8180   -2.8580   -6.2660 H         1 ATP502      0.0000 
     36 HO3'        0.0120   -3.8600   -5.2230 H         1 ATP502      0.0000 
     37 H2'        -0.1540   -2.7770   -7.8860 H         1 ATP502      0.0000 
     38 HO2'        0.9350   -4.8760   -7.4400 H         1 ATP502      0.0000 
     39 H1'        -1.3080   -4.3290   -9.7990 H         1 ATP502      0.0000 
     40 H8         -3.5190   -2.1040   -7.5700 H         1 ATP502      0.0000 
     41 HN61       -2.7240    2.4850  -11.7670 H         1 ATP502      0.0000 
     42 HN62       -3.5300    1.9680  -10.3030 H         1 ATP502      0.0000 
     43 H2         -0.0920   -1.0910  -13.0000 H         1 ATP502      0.0000 
@<TRIPOS>BOND
     1    1    2 ar   
     2    1    3 ar   
     3    1    4 ar   
     4    1    8 1    
     5    5    6 ar   
     6    5    7 ar   
     7    5    8 1    
     8    5   12 1    
     9    9   10 ar   
    10    9   11 ar   
    11    9   12 1    
    12    9   13 1    
    13   13   14 1    
    14   14   15 1    
    15   14   32 1    
    16   14   33 1    
    17   15   16 1    
    18   15   17 1    
    19   15   34 1    
    20   16   21 1    
    21   17   18 1    
    22   17   19 1    
    23   17   35 1    
    24   18   36 1    
    25   19   20 1    
    26   19   21 1    
    27   19   37 1    
    28   20   38 1    
    29   21   22 1    
    30   21   39 1    
    31   22   23 1    
    32   22   31 1    
    33   23   24 2    
    34   23   40 1    
    35   24   25 1    
    36   25   26 ar   
    37   25   31 ar   
    38   26   27 1    
    39   26   28 ar   
    40   27   41 1    
    41   27   42 1    
    42   28   29 ar   
    43   29   30 ar   
    44   29   43 1    
    45   30   31 ar   
@<TRIPOS>SUBSTRUCTURE
     1 ATP502      1 GROUP   
@<TRIPOS>SET
ATOM$ORANGE STATIC     ATOMS   COLORGROUP SYSTEM 
20 14 14 15 15 17 17 19 19 21 21 23 23 25 25 26 26 29 \
29 31 31 

