#    Name: 6gfh_1_ATP
#    Modification time : Fri May 22 19:26:33 2020

@<TRIPOS>MOLECULE
6gfh_1_ATP
   43    45     1     0     1
SMALL
NO_CHARGES


@<TRIPOS>ATOM
      1 PG        -11.1290  -33.7570   33.5790 P.3       1 ATP502      0.0000 
      2 O1G       -11.1920  -34.1470   32.0960 O.co2     1 ATP502      0.0000 
      3 O2G       -12.4700  -33.3770   34.1800 O.co2     1 ATP502      0.0000 
      4 O3G       -10.1020  -32.7060   33.9680 O.co2     1 ATP502      0.0000 
      5 PB         -9.6980  -36.2990   34.3410 P.3       1 ATP502      0.0000 
      6 O1B        -8.5240  -35.9320   33.4580 O.co2     1 ATP502      0.0000 
      7 O2B       -10.2900  -37.6670   34.1380 O.co2     1 ATP502      0.0000 
      8 O3B       -10.8590  -35.1510   34.3960 O.3       1 ATP502      0.0000 
      9 PA         -9.2930  -34.9990   36.8580 P.3       1 ATP502      0.0000 
     10 O1A        -9.9190  -33.8300   36.1420 O.co2     1 ATP502      0.0000 
     11 O2A        -7.8790  -34.8280   37.3430 O.co2     1 ATP502      0.0000 
     12 O3A        -9.3340  -36.3270   35.9170 O.3       1 ATP502      0.0000 
     13 O5'       -10.1270  -35.4080   38.1770 O.3       1 ATP502      0.0000 
     14 C5'       -11.5310  -35.6940   38.1150 C.3       1 ATP502      0.0000 
     15 C4'       -12.2820  -34.9230   39.1860 C.3       1 ATP502      0.0000 
     16 O4'       -11.6690  -35.0600   40.4700 O.3       1 ATP502      0.0000 
     17 C3'       -12.2870  -33.4350   38.8620 C.3       1 ATP502      0.0000 
     18 O3'       -13.4560  -33.0690   38.1250 O.3       1 ATP502      0.0000 
     19 C2'       -12.1870  -32.7290   40.2060 C.3       1 ATP502      0.0000 
     20 O2'       -13.4540  -32.2620   40.7180 O.3       1 ATP502      0.0000 
     21 C1'       -11.6010  -33.7810   41.1370 C.3       1 ATP502      0.0000 
     22 N9        -10.2070  -33.3600   41.4480 N.pl3     1 ATP502      0.0000 
     23 C8         -9.1060  -33.5770   40.6830 C.2       1 ATP502      0.0000 
     24 N7         -7.9980  -33.0540   41.2730 N.2       1 ATP502      0.0000 
     25 C5         -8.3860  -32.4840   42.4270 C.ar      1 ATP502      0.0000 
     26 C6         -7.7280  -31.7550   43.5310 C.ar      1 ATP502      0.0000 
     27 N6         -6.4030  -31.5360   43.4820 N.pl3     1 ATP502      0.0000 
     28 N1         -8.4840  -31.3260   44.5680 N.ar      1 ATP502      0.0000 
     29 C2         -9.8110  -31.5360   44.6250 C.ar      1 ATP502      0.0000 
     30 N3        -10.4750  -32.1910   43.6530 N.ar      1 ATP502      0.0000 
     31 C4         -9.8360  -32.6790   42.5450 C.ar      1 ATP502      0.0000 
     32 H5'1      -11.6920  -36.7640   38.2550 H         1 ATP502      0.0000 
     33 H5'2      -11.9160  -35.4200   37.1310 H         1 ATP502      0.0000 
     34 H4'       -13.3200  -35.2830   39.2230 H         1 ATP502      0.0000 
     35 H3'       -11.3880  -33.2010   38.2740 H         1 ATP502      0.0000 
     36 HO3'      -13.4320  -32.1220   37.9330 H         1 ATP502      0.0000 
     37 H2'       -11.4790  -31.8930   40.1210 H         1 ATP502      0.0000 
     38 HO2'      -13.8310  -31.6160   40.1050 H         1 ATP502      0.0000 
     39 H1'       -12.1980  -33.8080   42.0600 H         1 ATP502      0.0000 
     40 H8         -9.1100  -34.1000   39.7350 H         1 ATP502      0.0000 
     41 HN61       -5.9440  -31.0410   44.2330 H         1 ATP502      0.0000 
     42 HN62       -5.8640  -31.8730   42.6960 H         1 ATP502      0.0000 
     43 H2        -10.3640  -31.1650   45.4790 H         1 ATP502      0.0000 
@<TRIPOS>BOND
     1    1    2 ar   
     2    1    3 ar   
     3    1    4 ar   
     4    1    8 1    
     5    5    6 ar   
     6    5    7 ar   
     7    5    8 1    
     8    5   12 1    
     9    9   10 ar   
    10    9   11 ar   
    11    9   12 1    
    12    9   13 1    
    13   13   14 1    
    14   14   15 1    
    15   14   32 1    
    16   14   33 1    
    17   15   16 1    
    18   15   17 1    
    19   15   34 1    
    20   16   21 1    
    21   17   18 1    
    22   17   19 1    
    23   17   35 1    
    24   18   36 1    
    25   19   20 1    
    26   19   21 1    
    27   19   37 1    
    28   20   38 1    
    29   21   22 1    
    30   21   39 1    
    31   22   23 1    
    32   22   31 1    
    33   23   24 2    
    34   23   40 1    
    35   24   25 1    
    36   25   26 ar   
    37   25   31 ar   
    38   26   27 1    
    39   26   28 ar   
    40   27   41 1    
    41   27   42 1    
    42   28   29 ar   
    43   29   30 ar   
    44   29   43 1    
    45   30   31 ar   
@<TRIPOS>SUBSTRUCTURE
     1 ATP502      1 GROUP   
@<TRIPOS>SET
ATOM$ORANGE STATIC     ATOMS   COLORGROUP SYSTEM 
20 14 14 15 15 17 17 19 19 21 21 23 23 25 25 26 26 29 \
29 31 31 

