#    Name: 6s8f_1_ANP
#    Modification time : Fri May 22 19:24:36 2020

@<TRIPOS>MOLECULE
6s8f_1_ANP
   31    33     1     0     1
SMALL
NO_CHARGES


@<TRIPOS>ATOM
      1 PG        223.8390  173.8670  272.7960 P.3       1 ANP2801     0.0000 
      2 O1G       224.1350  174.5070  271.4820 O.co2     1 ANP2801     0.0000 
      3 O2G       222.4610  174.4040  273.3380 O.co2     1 ANP2801     0.0000 
      4 O3G       224.9840  174.2010  273.8320 O.co2     1 ANP2801     0.0000 
      5 PB        223.1850  171.5710  274.0550 P.3       1 ANP2801     0.0000 
      6 O1B       223.0540  172.6910  275.0320 O.co2     1 ANP2801     0.0000 
      7 O2B       224.1750  170.4870  274.5740 O.co2     1 ANP2801     0.0000 
      8 N3B       223.7240  172.1960  272.6000 N.3       1 ANP2801     0.0000 
      9 PA        221.0540  171.2410  272.4750 P.3       1 ANP2801     0.0000 
     10 O1A       220.8490  172.6950  272.2860 O.co2     1 ANP2801     0.0000 
     11 O2A       219.7740  170.4050  272.4790 O.co2     1 ANP2801     0.0000 
     12 O3A       221.7840  170.9380  273.8370 O.3       1 ANP2801     0.0000 
     13 O5'       222.0590  170.7290  271.3770 O.3       1 ANP2801     0.0000 
     14 C5'       222.3760  169.3290  271.2790 C.3       1 ANP2801     0.0000 
     15 C4'       222.6670  168.9900  269.8410 C.3       1 ANP2801     0.0000 
     16 O4'       221.6760  168.0620  269.3610 O.3       1 ANP2801     0.0000 
     17 C3'       222.6130  170.1610  268.8690 C.3       1 ANP2801     0.0000 
     18 O3'       223.8740  170.8130  268.8010 O.3       1 ANP2801     0.0000 
     19 C2'       222.2780  169.4730  267.5490 C.3       1 ANP2801     0.0000 
     20 O2'       223.4550  168.9300  266.9720 O.3       1 ANP2801     0.0000 
     21 C1'       221.3750  168.3260  268.0040 C.3       1 ANP2801     0.0000 
     22 N9        219.9500  168.6030  267.9020 N.pl3     1 ANP2801     0.0000 
     23 C8        219.1200  169.0720  268.8850 C.2       1 ANP2801     0.0000 
     24 N7        217.8710  169.2130  268.5100 N.2       1 ANP2801     0.0000 
     25 C5        217.8820  168.8010  267.1870 C.ar      1 ANP2801     0.0000 
     26 C6        216.8660  168.7110  266.2170 C.ar      1 ANP2801     0.0000 
     27 N6        215.5930  169.0430  266.4400 N.pl3     1 ANP2801     0.0000 
     28 N1        217.2100  168.2620  264.9900 N.ar      1 ANP2801     0.0000 
     29 C2        218.4830  167.9350  264.7570 C.ar      1 ANP2801     0.0000 
     30 N3        219.5230  167.9730  265.5940 N.ar      1 ANP2801     0.0000 
     31 C4        219.1520  168.4220  266.7990 C.ar      1 ANP2801     0.0000 
@<TRIPOS>BOND
     1    1    2 ar   
     2    1    3 ar   
     3    1    4 ar   
     4    1    8 1    
     5    5    6 ar   
     6    5    7 ar   
     7    5    8 1    
     8    5   12 1    
     9    9   10 ar   
    10    9   11 ar   
    11    9   12 1    
    12    9   13 1    
    13   13   14 1    
    14   14   15 1    
    15   15   16 1    
    16   15   17 1    
    17   16   21 1    
    18   17   18 1    
    19   17   19 1    
    20   19   20 1    
    21   19   21 1    
    22   21   22 1    
    23   22   23 1    
    24   22   31 1    
    25   23   24 2    
    26   24   25 1    
    27   25   26 ar   
    28   25   31 ar   
    29   26   27 1    
    30   26   28 ar   
    31   28   29 ar   
    32   29   30 ar   
    33   30   31 ar   
@<TRIPOS>SUBSTRUCTURE
     1 ANP2801     1 GROUP   
@<TRIPOS>SET
ATOM$ORANGE STATIC     ATOMS   COLORGROUP SYSTEM 
20 14 14 15 15 17 17 19 19 21 21 23 23 25 25 26 26 29 \
29 31 31 

