#    Name: 6s8f_2_ANP
#    Modification time : Fri May 22 19:24:49 2020

@<TRIPOS>MOLECULE
6s8f_2_ANP
   31    33     1     0     1
SMALL
NO_CHARGES


@<TRIPOS>ATOM
      1 PG        188.4680  238.4400  272.7540 P.3       1 ANP2801     0.0000 
      2 O1G       188.1710  237.8010  271.4400 O.co2     1 ANP2801     0.0000 
      3 O2G       189.8450  237.9020  273.2960 O.co2     1 ANP2801     0.0000 
      4 O3G       187.3220  238.1080  273.7900 O.co2     1 ANP2801     0.0000 
      5 PB        189.1250  240.7350  274.0130 P.3       1 ANP2801     0.0000 
      6 O1B       189.2540  239.6150  274.9900 O.co2     1 ANP2801     0.0000 
      7 O2B       188.1360  241.8200  274.5310 O.co2     1 ANP2801     0.0000 
      8 N3B       188.5840  240.1110  272.5580 N.3       1 ANP2801     0.0000 
      9 PA        191.2550  241.0630  272.4320 P.3       1 ANP2801     0.0000 
     10 O1A       191.4590  239.6080  272.2440 O.co2     1 ANP2801     0.0000 
     11 O2A       192.5370  241.8960  272.4360 O.co2     1 ANP2801     0.0000 
     12 O3A       190.5260  241.3660  273.7950 O.3       1 ANP2801     0.0000 
     13 O5'       190.2510  241.5760  271.3350 O.3       1 ANP2801     0.0000 
     14 C5'       189.9350  242.9760  271.2370 C.3       1 ANP2801     0.0000 
     15 C4'       189.6450  243.3150  269.7990 C.3       1 ANP2801     0.0000 
     16 O4'       190.6370  244.2420  269.3190 O.3       1 ANP2801     0.0000 
     17 C3'       189.6980  242.1440  268.8270 C.3       1 ANP2801     0.0000 
     18 O3'       188.4360  241.4930  268.7590 O.3       1 ANP2801     0.0000 
     19 C2'       190.0330  242.8310  267.5070 C.3       1 ANP2801     0.0000 
     20 O2'       188.8570  243.3760  266.9290 O.3       1 ANP2801     0.0000 
     21 C1'       190.9380  243.9770  267.9620 C.3       1 ANP2801     0.0000 
     22 N9        192.3630  243.6990  267.8600 N.pl3     1 ANP2801     0.0000 
     23 C8        193.1920  243.2290  268.8420 C.2       1 ANP2801     0.0000 
     24 N7        194.4410  243.0860  268.4670 N.2       1 ANP2801     0.0000 
     25 C5        194.4300  243.4980  267.1440 C.ar      1 ANP2801     0.0000 
     26 C6        195.4460  243.5870  266.1740 C.ar      1 ANP2801     0.0000 
     27 N6        196.7190  243.2530  266.3970 N.pl3     1 ANP2801     0.0000 
     28 N1        195.1020  244.0360  264.9470 N.ar      1 ANP2801     0.0000 
     29 C2        193.8300  244.3640  264.7140 C.ar      1 ANP2801     0.0000 
     30 N3        192.7900  244.3280  265.5510 N.ar      1 ANP2801     0.0000 
     31 C4        193.1600  243.8780  266.7560 C.ar      1 ANP2801     0.0000 
@<TRIPOS>BOND
     1    1    2 ar   
     2    1    3 ar   
     3    1    4 ar   
     4    1    8 1    
     5    5    6 ar   
     6    5    7 ar   
     7    5    8 1    
     8    5   12 1    
     9    9   10 ar   
    10    9   11 ar   
    11    9   12 1    
    12    9   13 1    
    13   13   14 1    
    14   14   15 1    
    15   15   16 1    
    16   15   17 1    
    17   16   21 1    
    18   17   18 1    
    19   17   19 1    
    20   19   20 1    
    21   19   21 1    
    22   21   22 1    
    23   22   23 1    
    24   22   31 1    
    25   23   24 2    
    26   24   25 1    
    27   25   26 ar   
    28   25   31 ar   
    29   26   27 1    
    30   26   28 ar   
    31   28   29 ar   
    32   29   30 ar   
    33   30   31 ar   
@<TRIPOS>SUBSTRUCTURE
     1 ANP2801     1 GROUP   
@<TRIPOS>SET
ATOM$ORANGE STATIC     ATOMS   COLORGROUP SYSTEM 
20 14 14 15 15 17 17 19 19 21 21 23 23 25 25 26 26 29 \
29 31 31 

