#    Name: 6av2_2_H4B
#    Modification time : Fri May 22 19:36:14 2020

@<TRIPOS>MOLECULE
6av2_2_H4B
   17    18     1     0     1
SMALL
NO_CHARGES


@<TRIPOS>ATOM
      1 N1        114.5970  244.7790  335.4820 N.2       1 H4B802      0.0000 
      2 C2        114.7120  244.3580  334.1950 C.2       1 H4B802      0.0000 
      3 N2        115.9460  244.1670  333.6540 N.pl3     1 H4B802      0.0000 
      4 N3        113.5980  244.1230  333.4540 N.am      1 H4B802      0.0000 
      5 C4        112.3590  244.2970  333.9630 C.2       1 H4B802      0.0000 
      6 O4        111.3480  244.0780  333.2470 O.2       1 H4B802      0.0000 
      7 C4A       112.2320  244.7330  335.2740 C.2       1 H4B802      0.0000 
      8 C8A       113.3740  244.9710  336.0330 C.2       1 H4B802      0.0000 
      9 N5        111.0190  244.9420  335.8240 N.3       1 H4B802      0.0000 
     10 N8        113.2790  245.4000  337.3200 N.pl3     1 H4B802      0.0000 
     11 C6        110.9610  245.9170  336.9040 C.3       1 H4B802      0.0000 
     12 C7        111.9860  245.5590  337.9820 C.3       1 H4B802      0.0000 
     13 C9        109.5760  245.9940  337.5320 C.3       1 H4B802      0.0000 
     14 O9        109.2660  244.6670  337.9600 O.3       1 H4B802      0.0000 
     15 C10       109.6190  246.9460  338.7250 C.3       1 H4B802      0.0000 
     16 C11       108.2700  247.0810  339.4260 C.3       1 H4B802      0.0000 
     17 O10       110.0630  248.2320  338.2710 O.3       1 H4B802      0.0000 
@<TRIPOS>BOND
     1    1    2 2    
     2    1    8 1    
     3    2    3 1    
     4    2    4 1    
     5    4    5 am   
     6    5    6 2    
     7    5    7 1    
     8    7    8 2    
     9    7    9 1    
    10    8   10 1    
    11    9   11 1    
    12   10   12 1    
    13   11   12 1    
    14   11   13 1    
    15   13   14 1    
    16   13   15 1    
    17   15   16 1    
    18   15   17 1    
@<TRIPOS>SUBSTRUCTURE
     1 H4B802      1 GROUP   
@<TRIPOS>SET
ATOM$ORANGE STATIC     ATOMS   COLORGROUP SYSTEM 
18 2 2 5 5 7 7 8 8 11 11 12 12 13 13 15 15 16 \
16 

