#    Name: 6av2_2_H4B_CAVITY_N1_4
#    Modification time : Fri May 22 19:36:15 2020

@<TRIPOS>MOLECULE
6av2_2_H4B_CAVITY_N1_4
   43     0     5     0     0
SMALL
NO_CHARGES


@<TRIPOS>ATOM
      1 N         117.3200  245.0300  331.6600 N.am      1 ALA2        0.0000 
      2 N         118.2600  243.8800  331.9000 N.am      1 ALA2        0.0000 
      3 N         115.4800  244.0700  334.2900 N.am      1 ALA2        0.0000 
      4 O         112.8700  246.1800  335.8000 O.2       1 ALA2        0.0000 
      5 N         113.8000  245.0300  336.0400 N.am      1 ALA2        0.0000 
      6 N         110.0900  246.3700  338.1900 N.am      1 ALA2        0.0000 
      7 N         111.0200  245.2200  338.4300 N.am      1 ALA2        0.0000 
      8 OD1       112.3000  242.7100  330.7100 O.co2     2 ASP3        0.0000 
      9 OD1       112.6800  243.2900  332.0400 O.co2     2 ASP3        0.0000 
     10 OD1       113.6100  242.1400  332.2800 O.co2     2 ASP3        0.0000 
     11 OD1       113.0500  243.8700  333.3700 O.co2     2 ASP3        0.0000 
     12 OD1       113.4300  244.4500  334.7000 O.co2     2 ASP3        0.0000 
     13 OD1       112.3200  243.6800  335.3500 O.co2     2 ASP3        0.0000 
     14 CZ        110.4400  245.0100  330.2300 C.ar      3 PHE5        0.0000 
     15 CZ        112.4800  244.6300  329.8200 C.ar      3 PHE5        0.0000 
     16 CZ        111.3700  243.8600  330.4700 C.ar      3 PHE5        0.0000 
     17 CZ        113.4200  243.4800  330.0600 C.ar      3 PHE5        0.0000 
     18 CZ        111.7400  244.4400  331.8000 C.ar      3 PHE5        0.0000 
     19 CZ        116.0100  245.6000  330.0900 C.ar      3 PHE5        0.0000 
     20 CZ        113.7900  244.0600  331.3900 C.ar      3 PHE5        0.0000 
     21 CZ        116.9500  244.4500  330.3300 C.ar      3 PHE5        0.0000 
     22 CZ        115.8400  243.6800  330.9800 C.ar      3 PHE5        0.0000 
     23 CZ        112.1200  245.0200  333.1400 C.ar      3 PHE5        0.0000 
     24 CZ        114.1700  244.6400  332.7200 C.ar      3 PHE5        0.0000 
     25 CZ        116.2100  244.2600  332.3100 C.ar      3 PHE5        0.0000 
     26 CZ        115.1000  243.4900  332.9600 C.ar      3 PHE5        0.0000 
     27 CZ        112.5000  245.6000  334.4700 C.ar      3 PHE5        0.0000 
     28 CZ        114.5400  245.2200  334.0500 C.ar      3 PHE5        0.0000 
     29 CZ        110.6500  244.6400  337.1000 C.ar      3 PHE5        0.0000 
     30 CZ        112.6900  244.2600  336.6800 C.ar      3 PHE5        0.0000 
     31 CA        109.7000  244.8200  332.2200 C.3       4 GLY6        0.0000 
     32 CA        116.7700  242.5300  331.2200 C.3       4 GLY6        0.0000 
     33 CA        111.3800  244.8300  335.1200 C.3       4 GLY6        0.0000 
     34 CA        110.8200  246.5600  336.2100 C.3       4 GLY6        0.0000 
     35 CA        109.7100  245.7900  336.8600 C.3       4 GLY6        0.0000 
     36 CA        111.2000  247.1400  337.5400 C.3       4 GLY6        0.0000 
     37 CA        112.1300  245.9900  337.7800 C.3       4 GLY6        0.0000 
     38 DU        109.3200  244.2400  330.8800 H         5 CUB7        0.0000 
     39 DU        110.2600  243.0900  331.1200 H         5 CUB7        0.0000 
     40 DU        114.7200  242.9100  331.6300 H         5 CUB7        0.0000 
     41 DU        117.8800  243.3000  330.5700 H         5 CUB7        0.0000 
     42 DU        115.6600  241.7600  331.8700 H         5 CUB7        0.0000 
     43 DU        111.7600  245.4100  336.4500 H         5 CUB7        0.0000 
@<TRIPOS>BOND
@<TRIPOS>SUBSTRUCTURE
     1 ALA2        1 GROUP   
     2 ASP3        8 GROUP   
     3 PHE5       14 GROUP   
     4 GLY6       31 GROUP   
     5 CUB7       38 GROUP   
@<TRIPOS>SET

