#    Name: 6av2_1_H4B_CAVITY_N1_4
#    Modification time : Fri May 22 19:36:06 2020

@<TRIPOS>MOLECULE
6av2_1_H4B_CAVITY_N1_4
    3     0     3     0     0
SMALL
NO_CHARGES


@<TRIPOS>ATOM
      1 NZ        117.6000  244.3200  355.5600 N.4       1 LYS4        0.0000 
      2 CZ        118.7100  245.0900  354.9100 C.ar      2 PHE5        0.0000 
      3 DU        117.2200  243.7400  354.2300 H         3 CUB7        0.0000 
@<TRIPOS>BOND
@<TRIPOS>SUBSTRUCTURE
     1 LYS4        1 GROUP   
     2 PHE5        2 GROUP   
     3 CUB7        3 GROUP   
@<TRIPOS>SET

