#    Name: 6av2_2_H4B_CAVITY_N1_6
#    Modification time : Fri May 22 19:36:15 2020

@<TRIPOS>MOLECULE
6av2_2_H4B_CAVITY_N1_6
   76     0     7     0     0
SMALL
NO_CHARGES


@<TRIPOS>ATOM
      1 OG        109.6800  248.0800  329.1100 O.3       1 SER1        0.0000 
      2 OG        111.7300  247.7000  328.7000 O.3       1 SER1        0.0000 
      3 N         116.1900  247.5200  329.2100 N.am      2 ALA2        0.0000 
      4 N         117.1300  246.3700  329.4500 N.am      2 ALA2        0.0000 
      5 N         118.0600  245.2200  329.6800 N.am      2 ALA2        0.0000 
      6 N         117.3200  245.0300  331.6600 N.am      2 ALA2        0.0000 
      7 N         118.2600  243.8800  331.9000 N.am      2 ALA2        0.0000 
      8 N         115.4800  244.0700  334.2900 N.am      2 ALA2        0.0000 
      9 O         112.8700  246.1800  335.8000 O.2       2 ALA2        0.0000 
     10 N         113.8000  245.0300  336.0400 N.am      2 ALA2        0.0000 
     11 N         110.0900  246.3700  338.1900 N.am      2 ALA2        0.0000 
     12 N         111.0200  245.2200  338.4300 N.am      2 ALA2        0.0000 
     13 OD1       112.3000  242.7100  330.7100 O.co2     3 ASP3        0.0000 
     14 OD1       112.6800  243.2900  332.0400 O.co2     3 ASP3        0.0000 
     15 OD1       113.6100  242.1400  332.2800 O.co2     3 ASP3        0.0000 
     16 OD1       113.0500  243.8700  333.3700 O.co2     3 ASP3        0.0000 
     17 OD1       113.4300  244.4500  334.7000 O.co2     3 ASP3        0.0000 
     18 OD1       112.3200  243.6800  335.3500 O.co2     3 ASP3        0.0000 
     19 NZ        116.5700  243.8700  329.0000 N.4       4 LYS4        0.0000 
     20 NZ        115.4600  243.1000  329.6500 N.4       4 LYS4        0.0000 
     21 NZ        118.6200  243.4900  328.5900 N.4       4 LYS4        0.0000 
     22 NZ        117.5100  242.7200  329.2400 N.4       4 LYS4        0.0000 
     23 NZ        116.4000  241.9500  329.8900 N.4       4 LYS4        0.0000 
     24 CZ        113.2200  244.8200  327.8400 C.ar      5 PHE5        0.0000 
     25 CZ        110.6100  246.9300  329.3500 C.ar      5 PHE5        0.0000 
     26 CZ        109.5000  246.1600  330.0000 C.ar      5 PHE5        0.0000 
     27 CZ        110.4400  245.0100  330.2300 C.ar      5 PHE5        0.0000 
     28 CZ        114.7100  246.1700  328.5300 C.ar      5 PHE5        0.0000 
     29 CZ        112.4800  244.6300  329.8200 C.ar      5 PHE5        0.0000 
     30 CZ        111.3700  243.8600  330.4700 C.ar      5 PHE5        0.0000 
     31 CZ        115.6400  245.0200  328.7600 C.ar      5 PHE5        0.0000 
     32 CZ        114.5300  244.2500  329.4100 C.ar      5 PHE5        0.0000 
     33 CZ        113.4200  243.4800  330.0600 C.ar      5 PHE5        0.0000 
     34 CZ        111.7400  244.4400  331.8000 C.ar      5 PHE5        0.0000 
     35 CZ        116.0100  245.6000  330.0900 C.ar      5 PHE5        0.0000 
     36 CZ        113.7900  244.0600  331.3900 C.ar      5 PHE5        0.0000 
     37 CZ        116.9500  244.4500  330.3300 C.ar      5 PHE5        0.0000 
     38 CZ        115.8400  243.6800  330.9800 C.ar      5 PHE5        0.0000 
     39 CZ        112.1200  245.0200  333.1400 C.ar      5 PHE5        0.0000 
     40 CZ        114.1700  244.6400  332.7200 C.ar      5 PHE5        0.0000 
     41 CZ        116.2100  244.2600  332.3100 C.ar      5 PHE5        0.0000 
     42 CZ        115.1000  243.4900  332.9600 C.ar      5 PHE5        0.0000 
     43 CZ        112.5000  245.6000  334.4700 C.ar      5 PHE5        0.0000 
     44 CZ        114.5400  245.2200  334.0500 C.ar      5 PHE5        0.0000 
     45 CZ        110.6500  244.6400  337.1000 C.ar      5 PHE5        0.0000 
     46 CZ        112.6900  244.2600  336.6800 C.ar      5 PHE5        0.0000 
     47 CA        108.5700  247.3100  329.7600 C.3       6 GLY6        0.0000 
     48 CA        107.4600  246.5400  330.4100 C.3       6 GLY6        0.0000 
     49 CA        106.3400  245.7700  331.0600 C.3       6 GLY6        0.0000 
     50 CA        108.3900  245.3900  330.6500 C.3       6 GLY6        0.0000 
     51 CA        107.2800  244.6200  331.3000 C.3       6 GLY6        0.0000 
     52 CA        109.7000  244.8200  332.2200 C.3       6 GLY6        0.0000 
     53 CA        119.1700  245.9900  329.0300 C.3       6 GLY6        0.0000 
     54 CA        116.7700  242.5300  331.2200 C.3       6 GLY6        0.0000 
     55 CA        119.9300  242.9200  330.1600 C.3       6 GLY6        0.0000 
     56 CA        118.8200  242.1500  330.8100 C.3       6 GLY6        0.0000 
     57 CA        111.3800  244.8300  335.1200 C.3       6 GLY6        0.0000 
     58 CA        110.8200  246.5600  336.2100 C.3       6 GLY6        0.0000 
     59 CA        109.7100  245.7900  336.8600 C.3       6 GLY6        0.0000 
     60 CA        111.2000  247.1400  337.5400 C.3       6 GLY6        0.0000 
     61 CA        112.1300  245.9900  337.7800 C.3       6 GLY6        0.0000 
     62 DU        110.2400  246.3500  328.0200 H         7 CUB7        0.0000 
     63 DU        109.1300  245.5800  328.6700 H         7 CUB7        0.0000 
     64 DU        108.0100  244.8100  329.3100 H         7 CUB7        0.0000 
     65 DU        110.0600  244.4300  328.9000 H         7 CUB7        0.0000 
     66 DU        112.1100  244.0500  328.4900 H         7 CUB7        0.0000 
     67 DU        114.1500  243.6700  328.0800 H         7 CUB7        0.0000 
     68 DU        109.3200  244.2400  330.8800 H         7 CUB7        0.0000 
     69 DU        110.2600  243.0900  331.1200 H         7 CUB7        0.0000 
     70 DU        116.7500  245.7900  328.1100 H         7 CUB7        0.0000 
     71 DU        117.6900  244.6400  328.3500 H         7 CUB7        0.0000 
     72 DU        114.7200  242.9100  331.6300 H         7 CUB7        0.0000 
     73 DU        119.0000  244.0700  329.9200 H         7 CUB7        0.0000 
     74 DU        117.8800  243.3000  330.5700 H         7 CUB7        0.0000 
     75 DU        115.6600  241.7600  331.8700 H         7 CUB7        0.0000 
     76 DU        111.7600  245.4100  336.4500 H         7 CUB7        0.0000 
@<TRIPOS>BOND
@<TRIPOS>SUBSTRUCTURE
     1 SER1        1 GROUP   
     2 ALA2        3 GROUP   
     3 ASP3       13 GROUP   
     4 LYS4       19 GROUP   
     5 PHE5       24 GROUP   
     6 GLY6       47 GROUP   
     7 CUB7       62 GROUP   
@<TRIPOS>SET

