#    Name: 6av2_1_H4B_CAVITY_N1_6
#    Modification time : Fri May 22 19:36:06 2020

@<TRIPOS>MOLECULE
6av2_1_H4B_CAVITY_N1_6
   15     0     5     0     0
SMALL
NO_CHARGES


@<TRIPOS>ATOM
      1 OG        122.2400  250.2900  356.7200 O.3       1 SER1        0.0000 
      2 N         116.6600  245.4700  355.3200 N.am      2 ALA2        0.0000 
      3 N         115.5500  244.7000  355.9700 N.am      2 ALA2        0.0000 
      4 NZ        117.6000  244.3200  355.5600 N.4       3 LYS4        0.0000 
      5 NZ        116.4900  243.5500  356.2100 N.4       3 LYS4        0.0000 
      6 NZ        118.5300  243.1700  355.7900 N.4       3 LYS4        0.0000 
      7 NZ        117.9700  244.9000  356.8900 N.4       3 LYS4        0.0000 
      8 CZ        118.7100  245.0900  354.9100 C.ar      4 PHE5        0.0000 
      9 CZ        118.1500  246.8200  356.0000 C.ar      4 PHE5        0.0000 
     10 CZ        117.0400  246.0500  356.6500 C.ar      4 PHE5        0.0000 
     11 CZ        119.0800  245.6700  356.2400 C.ar      4 PHE5        0.0000 
     12 CZ        119.6400  248.1700  356.6800 C.ar      4 PHE5        0.0000 
     13 CZ        119.4600  246.2500  357.5700 C.ar      4 PHE5        0.0000 
     14 DU        117.2200  243.7400  354.2300 H         5 CUB7        0.0000 
     15 DU        116.1100  242.9700  354.8700 H         5 CUB7        0.0000 
@<TRIPOS>BOND
@<TRIPOS>SUBSTRUCTURE
     1 SER1        1 GROUP   
     2 ALA2        2 GROUP   
     3 LYS4        4 GROUP   
     4 PHE5        8 GROUP   
     5 CUB7       14 GROUP   
@<TRIPOS>SET

