#    Name: 6av2_2_H4B_CAVITY_N1_8
#    Modification time : Fri May 22 19:36:15 2020

@<TRIPOS>MOLECULE
6av2_2_H4B_CAVITY_N1_8
  116     0     7     0     0
SMALL
NO_CHARGES


@<TRIPOS>ATOM
      1 OG        106.1500  247.1100  328.8400 O.3       1 SER1        0.0000 
      2 OG        109.6800  248.0800  329.1100 O.3       1 SER1        0.0000 
      3 OG        112.8400  248.4700  328.0500 O.3       1 SER1        0.0000 
      4 OG        111.7300  247.7000  328.7000 O.3       1 SER1        0.0000 
      5 N         119.9100  246.1800  327.0500 N.am      2 ALA2        0.0000 
      6 N         118.8000  245.4100  327.7000 N.am      2 ALA2        0.0000 
      7 N         117.3100  248.2900  328.5600 N.am      2 ALA2        0.0000 
      8 N         116.1900  247.5200  329.2100 N.am      2 ALA2        0.0000 
      9 N         118.2400  247.1400  328.8000 N.am      2 ALA2        0.0000 
     10 N         117.1300  246.3700  329.4500 N.am      2 ALA2        0.0000 
     11 N         118.0600  245.2200  329.6800 N.am      2 ALA2        0.0000 
     12 N         117.3200  245.0300  331.6600 N.am      2 ALA2        0.0000 
     13 N         118.2600  243.8800  331.9000 N.am      2 ALA2        0.0000 
     14 N         115.4800  244.0700  334.2900 N.am      2 ALA2        0.0000 
     15 O         112.8700  246.1800  335.8000 O.2       2 ALA2        0.0000 
     16 N         113.8000  245.0300  336.0400 N.am      2 ALA2        0.0000 
     17 N         110.0900  246.3700  338.1900 N.am      2 ALA2        0.0000 
     18 N         111.0200  245.2200  338.4300 N.am      2 ALA2        0.0000 
     19 OD1       112.3000  242.7100  330.7100 O.co2     3 ASP3        0.0000 
     20 OD1       112.6800  243.2900  332.0400 O.co2     3 ASP3        0.0000 
     21 OD1       113.6100  242.1400  332.2800 O.co2     3 ASP3        0.0000 
     22 OD1       113.0500  243.8700  333.3700 O.co2     3 ASP3        0.0000 
     23 OD1       113.4300  244.4500  334.7000 O.co2     3 ASP3        0.0000 
     24 OD1       112.3200  243.6800  335.3500 O.co2     3 ASP3        0.0000 
     25 NZ        116.5700  243.8700  329.0000 N.4       4 LYS4        0.0000 
     26 NZ        115.4600  243.1000  329.6500 N.4       4 LYS4        0.0000 
     27 NZ        118.6200  243.4900  328.5900 N.4       4 LYS4        0.0000 
     28 NZ        117.5100  242.7200  329.2400 N.4       4 LYS4        0.0000 
     29 NZ        116.4000  241.9500  329.8900 N.4       4 LYS4        0.0000 
     30 NZ        120.6700  243.1100  328.1800 N.4       4 LYS4        0.0000 
     31 NZ        119.5500  242.3400  328.8300 N.4       4 LYS4        0.0000 
     32 CZ        108.9300  246.9200  326.4500 C.ar      5 PHE5        0.0000 
     33 CZ        107.2600  247.8800  328.1900 C.ar      5 PHE5        0.0000 
     34 CZ        109.3000  247.5000  327.7800 C.ar      5 PHE5        0.0000 
     35 CZ        104.8600  244.4200  330.3800 C.ar      5 PHE5        0.0000 
     36 CZ        111.3500  247.1200  327.3700 C.ar      5 PHE5        0.0000 
     37 CZ        112.2800  245.9700  327.6100 C.ar      5 PHE5        0.0000 
     38 CZ        113.2200  244.8200  327.8400 C.ar      5 PHE5        0.0000 
     39 CZ        107.6300  248.4600  329.5200 C.ar      5 PHE5        0.0000 
     40 CZ        105.4100  246.9200  330.8200 C.ar      5 PHE5        0.0000 
     41 CZ        110.6100  246.9300  329.3500 C.ar      5 PHE5        0.0000 
     42 CZ        109.5000  246.1600  330.0000 C.ar      5 PHE5        0.0000 
     43 CZ        113.7700  247.3200  328.2900 C.ar      5 PHE5        0.0000 
     44 CZ        110.4400  245.0100  330.2300 C.ar      5 PHE5        0.0000 
     45 CZ        114.7100  246.1700  328.5300 C.ar      5 PHE5        0.0000 
     46 CZ        112.4800  244.6300  329.8200 C.ar      5 PHE5        0.0000 
     47 CZ        111.3700  243.8600  330.4700 C.ar      5 PHE5        0.0000 
     48 CZ        115.6400  245.0200  328.7600 C.ar      5 PHE5        0.0000 
     49 CZ        114.5300  244.2500  329.4100 C.ar      5 PHE5        0.0000 
     50 CZ        113.4200  243.4800  330.0600 C.ar      5 PHE5        0.0000 
     51 CZ        111.7400  244.4400  331.8000 C.ar      5 PHE5        0.0000 
     52 CZ        116.0100  245.6000  330.0900 C.ar      5 PHE5        0.0000 
     53 CZ        113.7900  244.0600  331.3900 C.ar      5 PHE5        0.0000 
     54 CZ        116.9500  244.4500  330.3300 C.ar      5 PHE5        0.0000 
     55 CZ        115.8400  243.6800  330.9800 C.ar      5 PHE5        0.0000 
     56 CZ        112.1200  245.0200  333.1400 C.ar      5 PHE5        0.0000 
     57 CZ        114.1700  244.6400  332.7200 C.ar      5 PHE5        0.0000 
     58 CZ        116.2100  244.2600  332.3100 C.ar      5 PHE5        0.0000 
     59 CZ        115.1000  243.4900  332.9600 C.ar      5 PHE5        0.0000 
     60 CZ        112.5000  245.6000  334.4700 C.ar      5 PHE5        0.0000 
     61 CZ        114.5400  245.2200  334.0500 C.ar      5 PHE5        0.0000 
     62 CZ        110.6500  244.6400  337.1000 C.ar      5 PHE5        0.0000 
     63 CZ        112.6900  244.2600  336.6800 C.ar      5 PHE5        0.0000 
     64 CA        112.4600  247.8900  326.7200 C.3       6 GLY6        0.0000 
     65 CA        106.5200  247.6900  330.1700 C.3       6 GLY6        0.0000 
     66 CA        108.5700  247.3100  329.7600 C.3       6 GLY6        0.0000 
     67 CA        107.4600  246.5400  330.4100 C.3       6 GLY6        0.0000 
     68 CA        106.3400  245.7700  331.0600 C.3       6 GLY6        0.0000 
     69 CA        113.9500  249.2400  327.4000 C.3       6 GLY6        0.0000 
     70 CA        108.3900  245.3900  330.6500 C.3       6 GLY6        0.0000 
     71 CA        107.2800  244.6200  331.3000 C.3       6 GLY6        0.0000 
     72 CA        117.8600  246.5600  327.4700 C.3       6 GLY6        0.0000 
     73 CA        116.3700  249.4400  328.3200 C.3       6 GLY6        0.0000 
     74 CA        115.2600  248.6700  328.9700 C.3       6 GLY6        0.0000 
     75 CA        109.7000  244.8200  332.2200 C.3       6 GLY6        0.0000 
     76 CA        119.1700  245.9900  329.0300 C.3       6 GLY6        0.0000 
     77 CA        116.7700  242.5300  331.2200 C.3       6 GLY6        0.0000 
     78 CA        119.9300  242.9200  330.1600 C.3       6 GLY6        0.0000 
     79 CA        118.8200  242.1500  330.8100 C.3       6 GLY6        0.0000 
     80 CA        111.3800  244.8300  335.1200 C.3       6 GLY6        0.0000 
     81 CA        110.8200  246.5600  336.2100 C.3       6 GLY6        0.0000 
     82 CA        109.7100  245.7900  336.8600 C.3       6 GLY6        0.0000 
     83 CA        111.2000  247.1400  337.5400 C.3       6 GLY6        0.0000 
     84 CA        112.1300  245.9900  337.7800 C.3       6 GLY6        0.0000 
     85 DU        108.3800  244.4200  326.0000 H         7 CUB7        0.0000 
     86 DU        107.8200  246.1500  327.1000 H         7 CUB7        0.0000 
     87 DU        110.9700  246.5400  326.0400 H         7 CUB7        0.0000 
     88 DU        109.8600  245.7700  326.6900 H         7 CUB7        0.0000 
     89 DU        111.9100  245.3900  326.2700 H         7 CUB7        0.0000 
     90 DU        108.1900  246.7300  328.4300 H         7 CUB7        0.0000 
     91 DU        107.0800  245.9600  329.0800 H         7 CUB7        0.0000 
     92 DU        110.2400  246.3500  328.0200 H         7 CUB7        0.0000 
     93 DU        109.1300  245.5800  328.6700 H         7 CUB7        0.0000 
     94 DU        108.0100  244.8100  329.3100 H         7 CUB7        0.0000 
     95 DU        114.5100  247.5100  326.3100 H         7 CUB7        0.0000 
     96 DU        113.4000  246.7400  326.9600 H         7 CUB7        0.0000 
     97 DU        110.0600  244.4300  328.9000 H         7 CUB7        0.0000 
     98 DU        115.4400  246.3600  326.5500 H         7 CUB7        0.0000 
     99 DU        114.3300  245.5900  327.1900 H         7 CUB7        0.0000 
    100 DU        112.1100  244.0500  328.4900 H         7 CUB7        0.0000 
    101 DU        117.4900  245.9800  326.1300 H         7 CUB7        0.0000 
    102 DU        114.1500  243.6700  328.0800 H         7 CUB7        0.0000 
    103 DU        118.4200  244.8300  326.3700 H         7 CUB7        0.0000 
    104 DU        114.8800  248.0900  327.6400 H         7 CUB7        0.0000 
    105 DU        109.3200  244.2400  330.8800 H         7 CUB7        0.0000 
    106 DU        116.9300  247.7100  327.2300 H         7 CUB7        0.0000 
    107 DU        115.8200  246.9400  327.8800 H         7 CUB7        0.0000 
    108 DU        110.2600  243.0900  331.1200 H         7 CUB7        0.0000 
    109 DU        116.7500  245.7900  328.1100 H         7 CUB7        0.0000 
    110 DU        117.6900  244.6400  328.3500 H         7 CUB7        0.0000 
    111 DU        119.7300  244.2600  327.9400 H         7 CUB7        0.0000 
    112 DU        114.7200  242.9100  331.6300 H         7 CUB7        0.0000 
    113 DU        119.0000  244.0700  329.9200 H         7 CUB7        0.0000 
    114 DU        117.8800  243.3000  330.5700 H         7 CUB7        0.0000 
    115 DU        115.6600  241.7600  331.8700 H         7 CUB7        0.0000 
    116 DU        111.7600  245.4100  336.4500 H         7 CUB7        0.0000 
@<TRIPOS>BOND
@<TRIPOS>SUBSTRUCTURE
     1 SER1        1 GROUP   
     2 ALA2        5 GROUP   
     3 ASP3       19 GROUP   
     4 LYS4       25 GROUP   
     5 PHE5       32 GROUP   
     6 GLY6       64 GROUP   
     7 CUB7       85 GROUP   
@<TRIPOS>SET

