#    Name: 6av2_1_H4B_CAVITY_N1_ALL
#    Modification time : Fri May 22 19:36:06 2020

@<TRIPOS>MOLECULE
6av2_1_H4B_CAVITY_N1_ALL
   79     0     6     0     0
SMALL
NO_CHARGES


@<TRIPOS>ATOM
      1 OG        118.1500  251.0500  357.5400 O.3       1 SER1        0.0000 
      2 OG        119.0800  249.9000  357.7800 O.3       1 SER1        0.0000 
      3 OG        122.2400  250.2900  356.7200 O.3       1 SER1        0.0000 
      4 N         116.6600  245.4700  355.3200 N.am      2 ALA2        0.0000 
      5 N         115.5500  244.7000  355.9700 N.am      2 ALA2        0.0000 
      6 N         114.8100  244.5100  357.9500 N.am      2 ALA2        0.0000 
      7 N         114.2600  246.2400  359.0400 N.am      2 ALA2        0.0000 
      8 N         121.8800  250.6800  360.0300 N.am      2 ALA2        0.0000 
      9 O         123.9200  250.3000  359.6200 O.2       2 ALA2        0.0000 
     10 N         122.8100  249.5300  360.2700 N.am      2 ALA2        0.0000 
     11 NZ        117.6000  244.3200  355.5600 N.4       3 LYS4        0.0000 
     12 NZ        116.4900  243.5500  356.2100 N.4       3 LYS4        0.0000 
     13 NZ        118.5300  243.1700  355.7900 N.4       3 LYS4        0.0000 
     14 NZ        117.9700  244.9000  356.8900 N.4       3 LYS4        0.0000 
     15 NZ        116.8600  244.1300  357.5400 N.4       3 LYS4        0.0000 
     16 CZ        118.7100  245.0900  354.9100 C.ar      4 PHE5        0.0000 
     17 CZ        118.1500  246.8200  356.0000 C.ar      4 PHE5        0.0000 
     18 CZ        117.0400  246.0500  356.6500 C.ar      4 PHE5        0.0000 
     19 CZ        119.0800  245.6700  356.2400 C.ar      4 PHE5        0.0000 
     20 CZ        117.7700  250.4700  356.2100 C.ar      4 PHE5        0.0000 
     21 CZ        118.7000  249.3200  356.4500 C.ar      4 PHE5        0.0000 
     22 CZ        117.5900  248.5500  357.1000 C.ar      4 PHE5        0.0000 
     23 CZ        119.6400  248.1700  356.6800 C.ar      4 PHE5        0.0000 
     24 CZ        118.5300  247.4000  357.3300 C.ar      4 PHE5        0.0000 
     25 CZ        119.4600  246.2500  357.5700 C.ar      4 PHE5        0.0000 
     26 CZ        115.7400  247.5900  359.7300 C.ar      4 PHE5        0.0000 
     27 CZ        114.6300  246.8200  360.3700 C.ar      4 PHE5        0.0000 
     28 CZ        121.1300  249.5200  357.3700 C.ar      4 PHE5        0.0000 
     29 CZ        120.0100  248.7500  358.0200 C.ar      4 PHE5        0.0000 
     30 CZ        114.2500  250.4700  360.5800 C.ar      4 PHE5        0.0000 
     31 CZ        113.1400  249.7000  361.2300 C.ar      4 PHE5        0.0000 
     32 CZ        116.3000  250.0900  360.1700 C.ar      4 PHE5        0.0000 
     33 CZ        115.1800  249.3200  360.8200 C.ar      4 PHE5        0.0000 
     34 CZ        114.0700  248.5500  361.4700 C.ar      4 PHE5        0.0000 
     35 CZ        120.5700  251.2500  358.4600 C.ar      4 PHE5        0.0000 
     36 CZ        117.2300  248.9400  360.4100 C.ar      4 PHE5        0.0000 
     37 CZ        122.6100  250.8700  358.0500 C.ar      4 PHE5        0.0000 
     38 CZ        121.5000  250.1000  358.7000 C.ar      4 PHE5        0.0000 
     39 CZ        122.9900  251.4500  359.3800 C.ar      4 PHE5        0.0000 
     40 CA        115.1700  248.3500  356.1800 C.3       5 GLY6        0.0000 
     41 CA        114.9900  246.4300  357.0600 C.3       5 GLY6        0.0000 
     42 CA        115.7200  250.8500  356.6200 C.3       5 GLY6        0.0000 
     43 CA        114.6100  250.0800  357.2700 C.3       5 GLY6        0.0000 
     44 CA        113.5000  249.3100  357.9200 C.3       5 GLY6        0.0000 
     45 CA        116.6600  249.7000  356.8600 C.3       5 GLY6        0.0000 
     46 CA        115.5500  248.9300  357.5100 C.3       5 GLY6        0.0000 
     47 CA        114.4300  248.1600  358.1600 C.3       5 GLY6        0.0000 
     48 CA        115.3700  247.0100  358.3900 C.3       5 GLY6        0.0000 
     49 CA        114.0500  251.8100  358.3600 C.3       5 GLY6        0.0000 
     50 CA        114.9900  250.6600  358.6000 C.3       5 GLY6        0.0000 
     51 CA        113.8800  249.8900  359.2500 C.3       5 GLY6        0.0000 
     52 CA        112.7600  249.1200  359.9000 C.3       5 GLY6        0.0000 
     53 CA        117.0300  250.2800  358.1900 C.3       5 GLY6        0.0000 
     54 CA        114.8100  248.7400  359.4900 C.3       5 GLY6        0.0000 
     55 CA        113.7000  247.9700  360.1400 C.3       5 GLY6        0.0000 
     56 CA        118.9000  247.9800  358.6600 C.3       5 GLY6        0.0000 
     57 CA        117.7900  247.2100  359.3100 C.3       5 GLY6        0.0000 
     58 CA        113.3200  251.6200  360.3400 C.3       5 GLY6        0.0000 
     59 CA        115.3600  251.2400  359.9300 C.3       5 GLY6        0.0000 
     60 CA        119.4500  250.4800  359.1100 C.3       5 GLY6        0.0000 
     61 CA        120.3900  249.3300  359.3500 C.3       5 GLY6        0.0000 
     62 CA        119.2800  248.5600  360.0000 C.3       5 GLY6        0.0000 
     63 CA        121.3200  248.1800  359.5800 C.3       5 GLY6        0.0000 
     64 CA        120.7600  249.9100  360.6800 C.3       5 GLY6        0.0000 
     65 CA        121.7000  248.7600  360.9200 C.3       5 GLY6        0.0000 
     66 DU        117.2200  243.7400  354.2300 H         6 CUB7        0.0000 
     67 DU        116.1100  242.9700  354.8700 H         6 CUB7        0.0000 
     68 DU        115.9300  245.2800  357.3000 H         6 CUB7        0.0000 
     69 DU        116.4800  247.7800  357.7400 H         6 CUB7        0.0000 
     70 DU        117.4100  246.6300  357.9800 H         6 CUB7        0.0000 
     71 DU        116.3000  245.8600  358.6300 H         6 CUB7        0.0000 
     72 DU        115.1900  245.0900  359.2800 H         6 CUB7        0.0000 
     73 DU        115.9200  249.5100  358.8400 H         6 CUB7        0.0000 
     74 DU        117.9700  249.1300  358.4300 H         6 CUB7        0.0000 
     75 DU        116.8600  248.3600  359.0800 H         6 CUB7        0.0000 
     76 DU        124.6600  250.4900  357.6400 H         6 CUB7        0.0000 
     77 DU        123.5500  249.7200  358.2900 H         6 CUB7        0.0000 
     78 DU        122.4300  248.9500  358.9400 H         6 CUB7        0.0000 
     79 DU        123.7400  248.3800  360.5000 H         6 CUB7        0.0000 
@<TRIPOS>BOND
@<TRIPOS>SUBSTRUCTURE
     1 SER1        1 GROUP   
     2 ALA2        4 GROUP   
     3 LYS4       11 GROUP   
     4 PHE5       16 GROUP   
     5 GLY6       40 GROUP   
     6 CUB7       66 GROUP   
@<TRIPOS>SET

