#    Name: 6av2_1_H4B
#    Modification time : Fri May 22 19:36:05 2020

@<TRIPOS>MOLECULE
6av2_1_H4B
   17    18     1     0     1
SMALL
NO_CHARGES


@<TRIPOS>ATOM
      1 N1        119.3080  246.0350  349.8080 N.2       1 H4B802      0.0000 
      2 C2        119.3970  245.6450  351.1050 C.2       1 H4B802      0.0000 
      3 N2        118.3650  245.0000  351.7060 N.pl3     1 H4B802      0.0000 
      4 N3        120.5170  245.8940  351.8210 N.am      1 H4B802      0.0000 
      5 C4        121.5720  246.5260  351.2690 C.2       1 H4B802      0.0000 
      6 O4        122.6030  246.7410  351.9520 O.2       1 H4B802      0.0000 
      7 C4A       121.4940  246.9330  349.9520 C.2       1 H4B802      0.0000 
      8 C8A       120.3410  246.6830  349.2180 C.2       1 H4B802      0.0000 
      9 N5        122.5290  247.5770  349.3700 N.3       1 H4B802      0.0000 
     10 N8        120.2470  247.0830  347.9120 N.pl3     1 H4B802      0.0000 
     11 C6        122.2000  248.4760  348.2730 C.3       1 H4B802      0.0000 
     12 C7        121.3730  247.7230  347.2340 C.3       1 H4B802      0.0000 
     13 C9        123.4630  249.0850  347.6630 C.3       1 H4B802      0.0000 
     14 O9        124.3750  248.0320  347.3450 O.3       1 H4B802      0.0000 
     15 C10       123.1270  249.8400  346.3820 C.3       1 H4B802      0.0000 
     16 C11       124.3950  250.4000  345.7360 C.3       1 H4B802      0.0000 
     17 O10       122.2240  250.9020  346.7010 O.3       1 H4B802      0.0000 
@<TRIPOS>BOND
     1    1    2 2    
     2    1    8 1    
     3    2    3 1    
     4    2    4 1    
     5    4    5 am   
     6    5    6 2    
     7    5    7 1    
     8    7    8 2    
     9    7    9 1    
    10    8   10 1    
    11    9   11 1    
    12   10   12 1    
    13   11   12 1    
    14   11   13 1    
    15   13   14 1    
    16   13   15 1    
    17   15   16 1    
    18   15   17 1    
@<TRIPOS>SUBSTRUCTURE
     1 H4B802      1 GROUP   
@<TRIPOS>SET
ATOM$ORANGE STATIC     ATOMS   COLORGROUP SYSTEM 
18 2 2 5 5 7 7 8 8 11 11 12 12 13 13 15 15 16 \
16 

