#    Name: 6av2_1_H4B_CAVITY_N1_8
#    Modification time : Fri May 22 19:36:06 2020

@<TRIPOS>MOLECULE
6av2_1_H4B_CAVITY_N1_8
   42     0     6     0     0
SMALL
NO_CHARGES


@<TRIPOS>ATOM
      1 OG        119.0800  249.9000  357.7800 O.3       1 SER1        0.0000 
      2 OG        122.2400  250.2900  356.7200 O.3       1 SER1        0.0000 
      3 N         116.6600  245.4700  355.3200 N.am      2 ALA2        0.0000 
      4 N         115.5500  244.7000  355.9700 N.am      2 ALA2        0.0000 
      5 N         114.8100  244.5100  357.9500 N.am      2 ALA2        0.0000 
      6 NZ        117.6000  244.3200  355.5600 N.4       3 LYS4        0.0000 
      7 NZ        116.4900  243.5500  356.2100 N.4       3 LYS4        0.0000 
      8 NZ        118.5300  243.1700  355.7900 N.4       3 LYS4        0.0000 
      9 NZ        117.9700  244.9000  356.8900 N.4       3 LYS4        0.0000 
     10 NZ        116.8600  244.1300  357.5400 N.4       3 LYS4        0.0000 
     11 CZ        118.7100  245.0900  354.9100 C.ar      4 PHE5        0.0000 
     12 CZ        118.1500  246.8200  356.0000 C.ar      4 PHE5        0.0000 
     13 CZ        117.0400  246.0500  356.6500 C.ar      4 PHE5        0.0000 
     14 CZ        119.0800  245.6700  356.2400 C.ar      4 PHE5        0.0000 
     15 CZ        117.7700  250.4700  356.2100 C.ar      4 PHE5        0.0000 
     16 CZ        118.7000  249.3200  356.4500 C.ar      4 PHE5        0.0000 
     17 CZ        117.5900  248.5500  357.1000 C.ar      4 PHE5        0.0000 
     18 CZ        119.6400  248.1700  356.6800 C.ar      4 PHE5        0.0000 
     19 CZ        118.5300  247.4000  357.3300 C.ar      4 PHE5        0.0000 
     20 CZ        119.4600  246.2500  357.5700 C.ar      4 PHE5        0.0000 
     21 CZ        121.1300  249.5200  357.3700 C.ar      4 PHE5        0.0000 
     22 CZ        120.0100  248.7500  358.0200 C.ar      4 PHE5        0.0000 
     23 CZ        122.6100  250.8700  358.0500 C.ar      4 PHE5        0.0000 
     24 CZ        121.5000  250.1000  358.7000 C.ar      4 PHE5        0.0000 
     25 CA        115.1700  248.3500  356.1800 C.3       5 GLY6        0.0000 
     26 CA        114.9900  246.4300  357.0600 C.3       5 GLY6        0.0000 
     27 CA        116.6600  249.7000  356.8600 C.3       5 GLY6        0.0000 
     28 CA        115.5500  248.9300  357.5100 C.3       5 GLY6        0.0000 
     29 CA        115.3700  247.0100  358.3900 C.3       5 GLY6        0.0000 
     30 CA        118.9000  247.9800  358.6600 C.3       5 GLY6        0.0000 
     31 CA        117.7900  247.2100  359.3100 C.3       5 GLY6        0.0000 
     32 CA        121.3200  248.1800  359.5800 C.3       5 GLY6        0.0000 
     33 DU        117.2200  243.7400  354.2300 H         6 CUB7        0.0000 
     34 DU        116.1100  242.9700  354.8700 H         6 CUB7        0.0000 
     35 DU        115.9300  245.2800  357.3000 H         6 CUB7        0.0000 
     36 DU        116.4800  247.7800  357.7400 H         6 CUB7        0.0000 
     37 DU        117.4100  246.6300  357.9800 H         6 CUB7        0.0000 
     38 DU        116.3000  245.8600  358.6300 H         6 CUB7        0.0000 
     39 DU        117.9700  249.1300  358.4300 H         6 CUB7        0.0000 
     40 DU        124.6600  250.4900  357.6400 H         6 CUB7        0.0000 
     41 DU        123.5500  249.7200  358.2900 H         6 CUB7        0.0000 
     42 DU        122.4300  248.9500  358.9400 H         6 CUB7        0.0000 
@<TRIPOS>BOND
@<TRIPOS>SUBSTRUCTURE
     1 SER1        1 GROUP   
     2 ALA2        3 GROUP   
     3 LYS4        6 GROUP   
     4 PHE5       11 GROUP   
     5 GLY6       25 GROUP   
     6 CUB7       33 GROUP   
@<TRIPOS>SET

