#    Name: 6jc8_1_PL6_CAVITY_N1_4
#    Modification time : Fri May 22 19:28:42 2020

@<TRIPOS>MOLECULE
6jc8_1_PL6_CAVITY_N1_4
   64     0     6     0     0
SMALL
NO_CHARGES


@<TRIPOS>ATOM
      1 OG        -11.3500   -8.6600   -3.1800 O.3       1 SER1        0.0000 
      2 OG        -10.2900   -7.7400   -2.6500 O.3       1 SER1        0.0000 
      3 OG         -7.1000   -8.6800   -3.1000 O.3       1 SER1        0.0000 
      4 OG         -8.1700   -7.7500   -2.6100 O.3       1 SER1        0.0000 
      5 OG         -9.2600   -7.5400   -0.8000 O.3       1 SER1        0.0000 
      6 OG         -9.2300   -6.8100   -2.1100 O.3       1 SER1        0.0000 
      7 OG         -6.0500   -7.7600   -2.5700 O.3       1 SER1        0.0000 
      8 OG         -6.0200   -7.0300   -3.8800 O.3       1 SER1        0.0000 
      9 OG         -4.9600   -6.1100   -3.3400 O.3       1 SER1        0.0000 
     10 OG         -1.8100   -7.7900   -2.4800 O.3       1 SER1        0.0000 
     11 OG         -1.7800   -7.0600   -3.8000 O.3       1 SER1        0.0000 
     12 OG         -2.8400   -6.1300   -3.3000 O.3       1 SER1        0.0000 
     13 N          -9.1900   -9.8000   -5.4800 N.am      2 ALA2        0.0000 
     14 N          -8.1300   -8.8800   -4.9400 N.am      2 ALA2        0.0000 
     15 O          -7.0700   -7.9600   -4.4100 O.2       2 ALA2        0.0000 
     16 O          -0.7500   -6.8600   -1.9500 O.2       2 ALA2        0.0000 
     17 OD1        -6.0000   -4.4500   -4.1600 O.co2     3 ASP3        0.0000 
     18 OD1        -4.9400   -3.5300   -3.6300 O.co2     3 ASP3        0.0000 
     19 CZ        -10.2500   -8.8700   -4.9900 C.ar      4 PHE5        0.0000 
     20 CZ        -10.2200   -8.1400   -6.3000 C.ar      4 PHE5        0.0000 
     21 CZ         -9.2000   -7.9400   -4.4500 C.ar      4 PHE5        0.0000 
     22 CZ        -10.2600   -7.0100   -3.9600 C.ar      4 PHE5        0.0000 
     23 CZ         -8.1400   -7.0200   -3.9200 C.ar      4 PHE5        0.0000 
     24 CZ         -9.2000   -6.0900   -3.4300 C.ar      4 PHE5        0.0000 
     25 CZ        -10.3000   -5.8800   -1.6200 C.ar      4 PHE5        0.0000 
     26 CZ        -10.2700   -5.1500   -2.9300 C.ar      4 PHE5        0.0000 
     27 CZ         -7.1400   -7.5500   -0.7600 C.ar      4 PHE5        0.0000 
     28 CZ         -7.1100   -6.8300   -2.0700 C.ar      4 PHE5        0.0000 
     29 CZ         -7.0800   -6.1000   -3.3800 C.ar      4 PHE5        0.0000 
     30 CZ         -8.2100   -6.6200   -0.2700 C.ar      4 PHE5        0.0000 
     31 CZ         -8.1800   -5.8900   -1.5800 C.ar      4 PHE5        0.0000 
     32 CZ         -8.1500   -5.1700   -2.8900 C.ar      4 PHE5        0.0000 
     33 CZ         -9.2400   -4.9600   -1.0900 C.ar      4 PHE5        0.0000 
     34 CZ         -9.1800   -3.5100   -3.7100 C.ar      4 PHE5        0.0000 
     35 CZ        -10.2500   -2.5700   -3.2200 C.ar      4 PHE5        0.0000 
     36 CZ         -6.0300   -5.1800   -2.8500 C.ar      4 PHE5        0.0000 
     37 CZ         -7.1200   -4.9700   -1.0500 C.ar      4 PHE5        0.0000 
     38 CZ         -7.0600   -3.5200   -3.6700 C.ar      4 PHE5        0.0000 
     39 CZ         -8.1900   -4.0400   -0.5500 C.ar      4 PHE5        0.0000 
     40 CZ         -8.1300   -2.5800   -3.1800 C.ar      4 PHE5        0.0000 
     41 CZ         -9.2500   -3.1000   -0.0600 C.ar      4 PHE5        0.0000 
     42 CZ         -3.9100   -5.1900   -2.8100 C.ar      4 PHE5        0.0000 
     43 CZ         -4.9700   -4.2600   -2.3200 C.ar      4 PHE5        0.0000 
     44 CZ         -6.0400   -3.3200   -1.8200 C.ar      4 PHE5        0.0000 
     45 CZ         -7.1300   -3.1100   -0.0200 C.ar      4 PHE5        0.0000 
     46 CZ         -1.8200   -5.9300   -1.4600 C.ar      4 PHE5        0.0000 
     47 CZ         -1.7900   -5.2000   -2.7700 C.ar      4 PHE5        0.0000 
     48 CZ         -2.8500   -4.2700   -2.2800 C.ar      4 PHE5        0.0000 
     49 CZ         -0.7600   -5.0100   -0.9200 C.ar      4 PHE5        0.0000 
     50 CZ         -1.7900   -3.3500   -1.7400 C.ar      4 PHE5        0.0000 
     51 CA         -9.1600   -9.0700   -6.7900 C.3       5 GLY6        0.0000 
     52 CA        -10.2800   -9.5900   -3.6700 C.3       5 GLY6        0.0000 
     53 CA        -11.3200   -7.9300   -4.4900 C.3       5 GLY6        0.0000 
     54 CA         -9.1900   -1.6500   -2.6900 C.3       5 GLY6        0.0000 
     55 CA         -8.2000   -2.1800    0.4700 C.3       5 GLY6        0.0000 
     56 CA         -0.7200   -6.1400   -3.2600 C.3       5 GLY6        0.0000 
     57 CA          0.3100   -5.9400   -1.4200 C.3       5 GLY6        0.0000 
     58 CA         -0.7300   -4.2800   -2.2300 C.3       5 GLY6        0.0000 
     59 DU         -9.2100   -4.2300   -2.4000 H         6 CUB7        0.0000 
     60 DU        -10.2800   -3.3000   -1.9100 H         6 CUB7        0.0000 
     61 DU         -7.0900   -4.2400   -2.3600 H         6 CUB7        0.0000 
     62 DU         -8.1600   -3.3100   -1.8700 H         6 CUB7        0.0000 
     63 DU         -9.2200   -2.3700   -1.3700 H         6 CUB7        0.0000 
     64 DU         -8.1700   -1.4500   -0.8400 H         6 CUB7        0.0000 
@<TRIPOS>BOND
@<TRIPOS>SUBSTRUCTURE
     1 SER1        1 GROUP   
     2 ALA2       13 GROUP   
     3 ASP3       17 GROUP   
     4 PHE5       19 GROUP   
     5 GLY6       51 GROUP   
     6 CUB7       59 GROUP   
@<TRIPOS>SET

