#    Name: 6jc8_3_PL6_CAVITY_N1_4
#    Modification time : Fri May 22 19:29:14 2020

@<TRIPOS>MOLECULE
6jc8_3_PL6_CAVITY_N1_4
   67     0     6     0     0
SMALL
NO_CHARGES


@<TRIPOS>ATOM
      1 OG        -33.9800   12.5900   21.7700 O.3       1 SER1        0.0000 
      2 OG        -33.9500   13.3100   20.4600 O.3       1 SER1        0.0000 
      3 OG        -35.0500   13.5200   22.2600 O.3       1 SER1        0.0000 
      4 OG        -33.9900   14.4400   22.8000 O.3       1 SER1        0.0000 
      5 OG        -33.9600   15.1700   21.4800 O.3       1 SER1        0.0000 
      6 OG        -32.9000   16.0900   22.0200 O.3       1 SER1        0.0000 
      7 OG        -33.9700   17.0300   22.5100 O.3       1 SER1        0.0000 
      8 OG        -32.9100   17.9500   23.0400 O.3       1 SER1        0.0000 
      9 OG        -31.8600   18.8700   23.5800 O.3       1 SER1        0.0000 
     10 OG        -33.9300   22.1900   21.9400 O.3       1 SER1        0.0000 
     11 N         -28.6800   13.4800   22.3900 N.am      2 ALA2        0.0000 
     12 N         -28.6500   14.2100   21.0700 N.am      2 ALA2        0.0000 
     13 N         -27.6300   14.4100   22.9200 N.am      2 ALA2        0.0000 
     14 O         -29.7100   19.5800   22.3100 O.2       2 ALA2        0.0000 
     15 O         -29.6900   22.1600   22.0200 O.2       2 ALA2        0.0000 
     16 OD1       -28.6600   16.0700   22.1000 O.co2     3 ASP3        0.0000 
     17 OD1       -28.6700   17.9200   23.1300 O.co2     3 ASP3        0.0000 
     18 OD1       -30.7700   20.5200   22.8000 O.co2     3 ASP3        0.0000 
     19 OD1       -31.8100   22.1800   21.9800 O.co2     3 ASP3        0.0000 
     20 OD1       -32.8700   23.1100   22.4700 O.co2     3 ASP3        0.0000 
     21 OD1       -30.7500   23.1000   22.5100 O.co2     3 ASP3        0.0000 
     22 CZ        -32.8900   12.3800   19.9600 C.ar      4 PHE5        0.0000 
     23 CZ        -31.8300   13.3000   20.5000 C.ar      4 PHE5        0.0000 
     24 CZ        -32.9600   12.7800   23.6200 C.ar      4 PHE5        0.0000 
     25 CZ        -32.9300   13.5100   22.3000 C.ar      4 PHE5        0.0000 
     26 CZ        -32.9000   14.2300   20.9900 C.ar      4 PHE5        0.0000 
     27 CZ        -34.0200   13.7200   24.1100 C.ar      4 PHE5        0.0000 
     28 CZ        -30.8000   13.5000   22.3400 C.ar      4 PHE5        0.0000 
     29 CZ        -30.7700   14.2200   21.0300 C.ar      4 PHE5        0.0000 
     30 CZ        -30.7500   14.9500   19.7200 C.ar      4 PHE5        0.0000 
     31 CZ        -31.8700   14.4300   22.8400 C.ar      4 PHE5        0.0000 
     32 CZ        -31.8400   15.1600   21.5300 C.ar      4 PHE5        0.0000 
     33 CZ        -31.8100   15.8800   20.2100 C.ar      4 PHE5        0.0000 
     34 CZ        -32.9300   15.3700   23.3300 C.ar      4 PHE5        0.0000 
     35 CZ        -32.8700   16.8200   20.7100 C.ar      4 PHE5        0.0000 
     36 CZ        -33.9400   17.7500   21.2000 C.ar      4 PHE5        0.0000 
     37 CZ        -29.7500   14.4200   22.8800 C.ar      4 PHE5        0.0000 
     38 CZ        -29.6900   15.8700   20.2500 C.ar      4 PHE5        0.0000 
     39 CZ        -29.6600   16.6000   18.9400 C.ar      4 PHE5        0.0000 
     40 CZ        -30.8100   15.3500   23.3700 C.ar      4 PHE5        0.0000 
     41 CZ        -30.7800   16.0800   22.0600 C.ar      4 PHE5        0.0000 
     42 CZ        -30.7500   16.8000   20.7500 C.ar      4 PHE5        0.0000 
     43 CZ        -30.7200   17.5300   19.4300 C.ar      4 PHE5        0.0000 
     44 CZ        -31.8500   17.0100   22.5500 C.ar      4 PHE5        0.0000 
     45 CZ        -31.8200   17.7400   21.2400 C.ar      4 PHE5        0.0000 
     46 CZ        -32.8800   18.6700   21.7300 C.ar      4 PHE5        0.0000 
     47 CZ        -28.6900   15.3400   23.4100 C.ar      4 PHE5        0.0000 
     48 CZ        -29.7300   17.0000   22.5900 C.ar      4 PHE5        0.0000 
     49 CZ        -30.7900   17.9300   23.0900 C.ar      4 PHE5        0.0000 
     50 CZ        -30.7600   18.6600   21.7700 C.ar      4 PHE5        0.0000 
     51 CZ        -31.8300   19.6000   22.2700 C.ar      4 PHE5        0.0000 
     52 CZ        -32.8600   21.2600   21.4500 C.ar      4 PHE5        0.0000 
     53 CZ        -33.9000   22.9200   20.6300 C.ar      4 PHE5        0.0000 
     54 CZ        -29.6800   20.3100   20.9900 C.ar      4 PHE5        0.0000 
     55 CZ        -30.7400   21.2400   21.4900 C.ar      4 PHE5        0.0000 
     56 CZ        -31.7800   22.9000   20.6700 C.ar      4 PHE5        0.0000 
     57 CZ        -29.6600   22.8900   20.7100 C.ar      4 PHE5        0.0000 
     58 CA        -31.8600   12.5700   21.8100 C.3       5 GLY6        0.0000 
     59 CA        -27.6000   15.1300   21.6100 C.3       5 GLY6        0.0000 
     60 CA        -27.5400   16.5800   18.9800 C.3       5 GLY6        0.0000 
     61 CA        -29.7400   18.8600   23.6200 C.3       5 GLY6        0.0000 
     62 CA        -32.8400   23.8400   21.1600 C.3       5 GLY6        0.0000 
     63 CA        -30.7200   23.8300   21.2000 C.3       5 GLY6        0.0000 
     64 DU        -28.6200   14.9400   19.7600 H         6 CUB7        0.0000 
     65 DU        -29.7200   15.1400   21.5700 H         6 CUB7        0.0000 
     66 DU        -27.5700   15.8600   20.3000 H         6 CUB7        0.0000 
     67 DU        -29.7000   17.7300   21.2800 H         6 CUB7        0.0000 
@<TRIPOS>BOND
@<TRIPOS>SUBSTRUCTURE
     1 SER1        1 GROUP   
     2 ALA2       11 GROUP   
     3 ASP3       16 GROUP   
     4 PHE5       22 GROUP   
     5 GLY6       58 GROUP   
     6 CUB7       64 GROUP   
@<TRIPOS>SET

