#    Name: 6jc8_1_PL6_CAVITY_N1_6
#    Modification time : Fri May 22 19:28:42 2020

@<TRIPOS>MOLECULE
6jc8_1_PL6_CAVITY_N1_6
  103     0     6     0     0
SMALL
NO_CHARGES


@<TRIPOS>ATOM
      1 OG        -11.3800   -9.3800   -1.8700 O.3       1 SER1        0.0000 
      2 OG        -11.3500   -8.6600   -3.1800 O.3       1 SER1        0.0000 
      3 OG        -10.2900   -7.7400   -2.6500 O.3       1 SER1        0.0000 
      4 OG        -12.4200   -5.8700   -1.6600 O.3       1 SER1        0.0000 
      5 OG        -12.3900   -5.1400   -2.9700 O.3       1 SER1        0.0000 
      6 OG         -7.1000   -8.6800   -3.1000 O.3       1 SER1        0.0000 
      7 OG         -8.1700   -7.7500   -2.6100 O.3       1 SER1        0.0000 
      8 OG         -9.2600   -7.5400   -0.8000 O.3       1 SER1        0.0000 
      9 OG         -9.2300   -6.8100   -2.1100 O.3       1 SER1        0.0000 
     10 OG        -12.4300   -4.0100   -0.6400 O.3       1 SER1        0.0000 
     11 OG        -12.4000   -3.2800   -1.9500 O.3       1 SER1        0.0000 
     12 OG         -6.0500   -7.7600   -2.5700 O.3       1 SER1        0.0000 
     13 OG         -6.0200   -7.0300   -3.8800 O.3       1 SER1        0.0000 
     14 OG         -4.9600   -6.1100   -3.3400 O.3       1 SER1        0.0000 
     15 OG         -1.8100   -7.7900   -2.4800 O.3       1 SER1        0.0000 
     16 OG         -1.7800   -7.0600   -3.8000 O.3       1 SER1        0.0000 
     17 OG         -2.8400   -6.1300   -3.3000 O.3       1 SER1        0.0000 
     18 O         -11.3000  -11.6400   -6.5500 O.2       2 ALA2        0.0000 
     19 N          -9.1800  -11.6600   -6.5100 N.am      2 ALA2        0.0000 
     20 O         -11.2800   -9.0600   -6.8300 O.2       2 ALA2        0.0000 
     21 N          -9.1900   -9.8000   -5.4800 N.am      2 ALA2        0.0000 
     22 N          -8.1300   -8.8800   -4.9400 N.am      2 ALA2        0.0000 
     23 O          -7.0700   -7.9600   -4.4100 O.2       2 ALA2        0.0000 
     24 O         -10.3200   -2.1700    0.4300 O.2       2 ALA2        0.0000 
     25 O          -9.2300   -0.5200   -0.3500 O.2       2 ALA2        0.0000 
     26 O          -0.7500   -6.8600   -1.9500 O.2       2 ALA2        0.0000 
     27 OD1        -6.0000   -4.4500   -4.1600 O.co2     3 ASP3        0.0000 
     28 OD1        -4.9400   -3.5300   -3.6300 O.co2     3 ASP3        0.0000 
     29 CZ        -10.2500   -8.8700   -4.9900 C.ar      4 PHE5        0.0000 
     30 CZ        -10.2200   -8.1400   -6.3000 C.ar      4 PHE5        0.0000 
     31 CZ        -12.4400   -8.4500   -1.3800 C.ar      4 PHE5        0.0000 
     32 CZ         -9.2000   -7.9400   -4.4500 C.ar      4 PHE5        0.0000 
     33 CZ        -10.2600   -7.0100   -3.9600 C.ar      4 PHE5        0.0000 
     34 CZ        -11.3800   -7.5300   -0.8400 C.ar      4 PHE5        0.0000 
     35 CZ        -11.3500   -6.8000   -2.1500 C.ar      4 PHE5        0.0000 
     36 CZ        -11.3200   -6.0800   -3.4700 C.ar      4 PHE5        0.0000 
     37 CZ         -8.1400   -7.0200   -3.9200 C.ar      4 PHE5        0.0000 
     38 CZ         -9.2000   -6.0900   -3.4300 C.ar      4 PHE5        0.0000 
     39 CZ        -10.3000   -5.8800   -1.6200 C.ar      4 PHE5        0.0000 
     40 CZ        -10.2700   -5.1500   -2.9300 C.ar      4 PHE5        0.0000 
     41 CZ        -11.3600   -4.9400   -1.1300 C.ar      4 PHE5        0.0000 
     42 CZ        -11.3000   -3.4900   -3.7500 C.ar      4 PHE5        0.0000 
     43 CZ         -7.1400   -7.5500   -0.7600 C.ar      4 PHE5        0.0000 
     44 CZ         -7.1100   -6.8300   -2.0700 C.ar      4 PHE5        0.0000 
     45 CZ         -7.0800   -6.1000   -3.3800 C.ar      4 PHE5        0.0000 
     46 CZ         -8.2100   -6.6200   -0.2700 C.ar      4 PHE5        0.0000 
     47 CZ         -8.1800   -5.8900   -1.5800 C.ar      4 PHE5        0.0000 
     48 CZ         -8.1500   -5.1700   -2.8900 C.ar      4 PHE5        0.0000 
     49 CZ         -9.2400   -4.9600   -1.0900 C.ar      4 PHE5        0.0000 
     50 CZ         -9.1800   -3.5100   -3.7100 C.ar      4 PHE5        0.0000 
     51 CZ        -10.3100   -4.0200   -0.5900 C.ar      4 PHE5        0.0000 
     52 CZ        -10.2500   -2.5700   -3.2200 C.ar      4 PHE5        0.0000 
     53 CZ        -11.3700   -3.0900   -0.1000 C.ar      4 PHE5        0.0000 
     54 CZ         -6.0300   -5.1800   -2.8500 C.ar      4 PHE5        0.0000 
     55 CZ         -7.1200   -4.9700   -1.0500 C.ar      4 PHE5        0.0000 
     56 CZ         -7.0600   -3.5200   -3.6700 C.ar      4 PHE5        0.0000 
     57 CZ         -8.1900   -4.0400   -0.5500 C.ar      4 PHE5        0.0000 
     58 CZ         -8.1300   -2.5800   -3.1800 C.ar      4 PHE5        0.0000 
     59 CZ         -9.2500   -3.1000   -0.0600 C.ar      4 PHE5        0.0000 
     60 CZ         -3.9100   -5.1900   -2.8100 C.ar      4 PHE5        0.0000 
     61 CZ         -4.9700   -4.2600   -2.3200 C.ar      4 PHE5        0.0000 
     62 CZ         -6.0400   -3.3200   -1.8200 C.ar      4 PHE5        0.0000 
     63 CZ         -7.1300   -3.1100   -0.0200 C.ar      4 PHE5        0.0000 
     64 CZ         -1.8200   -5.9300   -1.4600 C.ar      4 PHE5        0.0000 
     65 CZ         -1.7900   -5.2000   -2.7700 C.ar      4 PHE5        0.0000 
     66 CZ         -2.8500   -4.2700   -2.2800 C.ar      4 PHE5        0.0000 
     67 CZ         -0.7600   -5.0100   -0.9200 C.ar      4 PHE5        0.0000 
     68 CZ         -1.7900   -3.3500   -1.7400 C.ar      4 PHE5        0.0000 
     69 CA        -10.2600  -13.3000   -5.7300 C.3       5 GLY6        0.0000 
     70 CA        -10.2300  -12.5800   -7.0400 C.3       5 GLY6        0.0000 
     71 CA        -11.3600  -13.1000   -3.9200 C.3       5 GLY6        0.0000 
     72 CA        -12.3900  -11.4400   -4.7400 C.3       5 GLY6        0.0000 
     73 CA        -12.3600  -10.7100   -6.0500 C.3       5 GLY6        0.0000 
     74 CA         -9.2100  -12.3800   -5.1900 C.3       5 GLY6        0.0000 
     75 CA        -10.2700  -11.4500   -4.7000 C.3       5 GLY6        0.0000 
     76 CA        -10.2100  -10.0000   -7.3200 C.3       5 GLY6        0.0000 
     77 CA        -11.3400  -10.5100   -4.2100 C.3       5 GLY6        0.0000 
     78 CA        -11.3100   -9.7900   -5.5200 C.3       5 GLY6        0.0000 
     79 CA        -12.4300  -10.3100   -2.4000 C.3       5 GLY6        0.0000 
     80 CA        -12.4000   -9.5800   -3.7100 C.3       5 GLY6        0.0000 
     81 CA         -9.1600   -9.0700   -6.7900 C.3       5 GLY6        0.0000 
     82 CA        -10.2800   -9.5900   -3.6700 C.3       5 GLY6        0.0000 
     83 CA        -11.3200   -7.9300   -4.4900 C.3       5 GLY6        0.0000 
     84 CA        -12.4100   -7.7200   -2.6900 C.3       5 GLY6        0.0000 
     85 CA        -11.3400   -2.3600   -1.4100 C.3       5 GLY6        0.0000 
     86 CA         -9.1900   -1.6500   -2.6900 C.3       5 GLY6        0.0000 
     87 CA        -10.2900   -1.4400   -0.8800 C.3       5 GLY6        0.0000 
     88 CA        -10.2600   -0.7100   -2.1900 C.3       5 GLY6        0.0000 
     89 CA         -8.2000   -2.1800    0.4700 C.3       5 GLY6        0.0000 
     90 CA         -9.2900   -1.9700    2.2800 C.3       5 GLY6        0.0000 
     91 CA         -9.2600   -1.2400    0.9700 C.3       5 GLY6        0.0000 
     92 CA         -0.7200   -6.1400   -3.2600 C.3       5 GLY6        0.0000 
     93 CA          0.3100   -5.9400   -1.4200 C.3       5 GLY6        0.0000 
     94 CA         -0.7300   -4.2800   -2.2300 C.3       5 GLY6        0.0000 
     95 DU        -11.3300  -12.3700   -5.2300 H         6 CUB7        0.0000 
     96 DU        -10.2400  -10.7200   -6.0100 H         6 CUB7        0.0000 
     97 DU        -11.3300   -4.2200   -2.4400 H         6 CUB7        0.0000 
     98 DU         -9.2100   -4.2300   -2.4000 H         6 CUB7        0.0000 
     99 DU        -10.2800   -3.3000   -1.9100 H         6 CUB7        0.0000 
    100 DU         -7.0900   -4.2400   -2.3600 H         6 CUB7        0.0000 
    101 DU         -8.1600   -3.3100   -1.8700 H         6 CUB7        0.0000 
    102 DU         -9.2200   -2.3700   -1.3700 H         6 CUB7        0.0000 
    103 DU         -8.1700   -1.4500   -0.8400 H         6 CUB7        0.0000 
@<TRIPOS>BOND
@<TRIPOS>SUBSTRUCTURE
     1 SER1        1 GROUP   
     2 ALA2       18 GROUP   
     3 ASP3       27 GROUP   
     4 PHE5       29 GROUP   
     5 GLY6       69 GROUP   
     6 CUB7       95 GROUP   
@<TRIPOS>SET

