#    Name: 6jc8_4_PL6_CAVITY_N1_12
#    Modification time : Fri May 22 19:29:31 2020

@<TRIPOS>MOLECULE
6jc8_4_PL6_CAVITY_N1_12
  139     0     6     0     0
SMALL
NO_CHARGES


@<TRIPOS>ATOM
      1 OG        -52.9700   33.7600   22.7600 O.3       1 SER1        0.0000 
      2 OG        -51.9100   34.6900   23.3000 O.3       1 SER1        0.0000 
      3 OG        -51.8800   35.4100   21.9900 O.3       1 SER1        0.0000 
      4 OG        -51.8500   36.1400   20.6700 O.3       1 SER1        0.0000 
      5 OG        -56.0800   40.6000   21.3300 O.3       1 SER1        0.0000 
      6 OG        -56.0500   41.3300   20.0200 O.3       1 SER1        0.0000 
      7 OG        -56.0300   42.0500   18.7100 O.3       1 SER1        0.0000 
      8 OG        -50.8300   36.3300   22.5200 O.3       1 SER1        0.0000 
      9 OG        -51.8600   37.9900   21.7000 O.3       1 SER1        0.0000 
     10 OG        -53.9600   40.5900   21.3700 O.3       1 SER1        0.0000 
     11 OG        -53.9300   41.3100   20.0600 O.3       1 SER1        0.0000 
     12 OG        -54.9400   43.7000   17.9300 O.3       1 SER1        0.0000 
     13 OG        -50.8100   38.9100   22.2300 O.3       1 SER1        0.0000 
     14 OG        -50.7800   39.6400   20.9200 O.3       1 SER1        0.0000 
     15 OG        -52.8800   42.2400   20.5900 O.3       1 SER1        0.0000 
     16 OG        -52.8500   42.9600   19.2800 O.3       1 SER1        0.0000 
     17 OG        -53.8800   44.6200   18.4600 O.3       1 SER1        0.0000 
     18 OG        -51.8200   43.1600   21.1300 O.3       1 SER1        0.0000 
     19 OG        -51.7900   43.8800   19.8200 O.3       1 SER1        0.0000 
     20 OG        -52.8600   44.8200   20.3100 O.3       1 SER1        0.0000 
     21 O         -58.2100   34.3200   19.5200 O.2       2 ALA2        0.0000 
     22 O         -57.1800   34.5100   21.3700 O.2       2 ALA2        0.0000 
     23 O         -57.0600   37.4200   16.1200 O.2       2 ALA2        0.0000 
     24 N         -58.2200   36.1700   20.5500 N.am      2 ALA2        0.0000 
     25 O         -58.1600   37.6300   17.9200 O.2       2 ALA2        0.0000 
     26 O         -59.2500   37.8300   19.7300 O.2       2 ALA2        0.0000 
     27 O         -57.1000   38.5500   18.4600 O.2       2 ALA2        0.0000 
     28 N         -57.0700   39.2700   17.1500 N.am      2 ALA2        0.0000 
     29 N         -57.1700   38.9500   22.1100 N.am      2 ALA2        0.0000 
     30 N         -57.1400   39.6800   20.8000 N.am      2 ALA2        0.0000 
     31 N         -57.1100   40.4000   19.4900 N.am      2 ALA2        0.0000 
     32 N         -57.0800   41.1300   18.1700 N.am      2 ALA2        0.0000 
     33 N         -56.1100   39.8700   22.6400 N.am      2 ALA2        0.0000 
     34 N         -56.0000   42.7800   17.3900 N.am      2 ALA2        0.0000 
     35 N         -55.9700   43.5000   16.0800 N.am      2 ALA2        0.0000 
     36 O         -57.0600   43.7100   17.8900 O.2       2 ALA2        0.0000 
     37 O         -53.8400   43.4900   16.1200 O.2       2 ALA2        0.0000 
     38 N         -55.9700   45.3600   17.1100 N.am      2 ALA2        0.0000 
     39 O         -51.7500   42.7500   17.4800 O.2       2 ALA2        0.0000 
     40 O         -52.7900   44.4100   16.6600 O.2       2 ALA2        0.0000 
     41 N         -49.6900   41.2900   20.1400 N.am      2 ALA2        0.0000 
     42 N         -50.7600   42.2200   20.6300 N.am      2 ALA2        0.0000 
     43 N         -50.7300   42.9500   19.3200 N.am      2 ALA2        0.0000 
     44 N         -51.7600   44.6100   18.5000 N.am      2 ALA2        0.0000 
     45 N         -48.6400   42.2100   20.6800 N.am      2 ALA2        0.0000 
     46 N         -49.7000   43.1400   21.1700 N.am      2 ALA2        0.0000 
     47 N         -49.6700   43.8700   19.8600 N.am      2 ALA2        0.0000 
     48 N         -47.5800   43.1300   21.2100 N.am      2 ALA2        0.0000 
     49 OD1       -58.2500   35.4500   21.8600 O.co2     3 ASP3        0.0000 
     50 OD1       -55.0900   33.7800   22.7200 O.co2     3 ASP3        0.0000 
     51 OD1       -57.1900   36.3700   22.4000 O.co2     3 ASP3        0.0000 
     52 OD1       -58.2600   37.3100   22.8900 O.co2     3 ASP3        0.0000 
     53 CZ        -56.1200   33.5800   20.8800 C.ar      4 PHE5        0.0000 
     54 CZ        -56.0900   34.3100   19.5600 C.ar      4 PHE5        0.0000 
     55 CZ        -54.0300   32.8400   22.2300 C.ar      4 PHE5        0.0000 
     56 CZ        -55.0600   34.5000   21.4100 C.ar      4 PHE5        0.0000 
     57 CZ        -55.0300   35.2300   20.1000 C.ar      4 PHE5        0.0000 
     58 CZ        -55.0000   35.9500   18.7900 C.ar      4 PHE5        0.0000 
     59 CZ        -56.0700   36.8900   19.2800 C.ar      4 PHE5        0.0000 
     60 CZ        -56.0400   37.6100   17.9700 C.ar      4 PHE5        0.0000 
     61 CZ        -52.9400   34.4900   21.4500 C.ar      4 PHE5        0.0000 
     62 CZ        -54.0400   34.7000   23.2600 C.ar      4 PHE5        0.0000 
     63 CZ        -53.9800   36.1500   20.6300 C.ar      4 PHE5        0.0000 
     64 CZ        -55.0700   36.3600   22.4400 C.ar      4 PHE5        0.0000 
     65 CZ        -55.0100   37.8100   19.8100 C.ar      4 PHE5        0.0000 
     66 CZ        -56.1400   37.2900   22.9300 C.ar      4 PHE5        0.0000 
     67 CZ        -56.0800   38.7400   20.3000 C.ar      4 PHE5        0.0000 
     68 CZ        -56.0500   39.4700   18.9900 C.ar      4 PHE5        0.0000 
     69 CZ        -56.0200   40.2000   17.6800 C.ar      4 PHE5        0.0000 
     70 CZ        -57.2000   38.2300   23.4200 C.ar      4 PHE5        0.0000 
     71 CZ        -52.9500   36.3500   22.4800 C.ar      4 PHE5        0.0000 
     72 CZ        -52.9200   37.0700   21.1700 C.ar      4 PHE5        0.0000 
     73 CZ        -54.0100   37.2800   22.9700 C.ar      4 PHE5        0.0000 
     74 CZ        -53.9800   38.0100   21.6600 C.ar      4 PHE5        0.0000 
     75 CZ        -53.9500   38.7300   20.3500 C.ar      4 PHE5        0.0000 
     76 CZ        -55.0500   38.9400   22.1500 C.ar      4 PHE5        0.0000 
     77 CZ        -55.0200   39.6700   20.8400 C.ar      4 PHE5        0.0000 
     78 CZ        -54.9900   40.3900   19.5300 C.ar      4 PHE5        0.0000 
     79 CZ        -54.9600   41.1200   18.2100 C.ar      4 PHE5        0.0000 
     80 CZ        -54.9300   41.8400   16.9000 C.ar      4 PHE5        0.0000 
     81 CZ        -51.8900   37.2700   23.0100 C.ar      4 PHE5        0.0000 
     82 CZ        -52.9300   38.9300   22.1900 C.ar      4 PHE5        0.0000 
     83 CZ        -52.9000   39.6500   20.8800 C.ar      4 PHE5        0.0000 
     84 CZ        -53.9900   39.8600   22.6800 C.ar      4 PHE5        0.0000 
     85 CZ        -53.9000   42.0400   18.7500 C.ar      4 PHE5        0.0000 
     86 CZ        -53.8700   42.7700   17.4400 C.ar      4 PHE5        0.0000 
     87 CZ        -56.0000   44.6300   18.4200 C.ar      4 PHE5        0.0000 
     88 CZ        -50.8400   38.1900   23.5500 C.ar      4 PHE5        0.0000 
     89 CZ        -51.9000   39.1200   24.0400 C.ar      4 PHE5        0.0000 
     90 CZ        -51.8100   41.3000   20.1000 C.ar      4 PHE5        0.0000 
     91 CZ        -51.7800   42.0300   18.7900 C.ar      4 PHE5        0.0000 
     92 CZ        -52.8200   43.6900   17.9700 C.ar      4 PHE5        0.0000 
     93 CZ        -54.9200   46.2800   17.6400 C.ar      4 PHE5        0.0000 
     94 CZ        -52.8300   45.5400   19.0000 C.ar      4 PHE5        0.0000 
     95 CZ        -52.8000   46.2700   17.6800 C.ar      4 PHE5        0.0000 
     96 CZ        -50.7700   44.0800   21.6600 C.ar      4 PHE5        0.0000 
     97 CZ        -50.7400   44.8100   20.3500 C.ar      4 PHE5        0.0000 
     98 CZ        -51.7700   46.4700   19.5300 C.ar      4 PHE5        0.0000 
     99 CZ        -51.7400   47.1900   18.2200 C.ar      4 PHE5        0.0000 
    100 CZ        -49.6800   45.7300   20.8800 C.ar      4 PHE5        0.0000 
    101 CA        -57.1200   35.9700   18.7400 C.3       5 GLY6        0.0000 
    102 CA        -57.0900   36.6900   17.4300 C.3       5 GLY6        0.0000 
    103 CA        -58.1900   36.9000   19.2400 C.3       5 GLY6        0.0000 
    104 CA        -59.2800   37.1100   21.0400 C.3       5 GLY6        0.0000 
    105 CA        -56.1600   34.7100   23.2200 C.3       5 GLY6        0.0000 
    106 CA        -58.2300   38.0300   21.5800 C.3       5 GLY6        0.0000 
    107 CA        -58.2000   38.7600   20.2600 C.3       5 GLY6        0.0000 
    108 CA        -55.0600   40.8000   23.1800 C.3       5 GLY6        0.0000 
    109 CA        -51.8700   39.8500   22.7300 C.3       5 GLY6        0.0000 
    110 CA        -52.9100   41.5100   21.9100 C.3       5 GLY6        0.0000 
    111 CA        -49.7500   39.8400   22.7700 C.3       5 GLY6        0.0000 
    112 CA        -49.7200   40.5600   21.4500 C.3       5 GLY6        0.0000 
    113 CA        -50.8500   40.0500   24.5700 C.3       5 GLY6        0.0000 
    114 CA        -50.8200   40.7700   23.2600 C.3       5 GLY6        0.0000 
    115 CA        -50.7900   41.5000   21.9500 C.3       5 GLY6        0.0000 
    116 CA        -51.8500   42.4300   22.4400 C.3       5 GLY6        0.0000 
    117 CA        -47.6000   40.5500   21.5000 C.3       5 GLY6        0.0000 
    118 CA        -48.7000   40.7600   23.3000 C.3       5 GLY6        0.0000 
    119 CA        -48.6700   41.4800   21.9900 C.3       5 GLY6        0.0000 
    120 CA        -50.7100   45.5300   19.0400 C.3       5 GLY6        0.0000 
    121 CA        -50.6800   46.2600   17.7200 C.3       5 GLY6        0.0000 
    122 CA        -46.5700   40.7500   23.3400 C.3       5 GLY6        0.0000 
    123 CA        -47.6100   42.4100   22.5200 C.3       5 GLY6        0.0000 
    124 CA        -48.6700   43.3400   23.0100 C.3       5 GLY6        0.0000 
    125 CA        -48.6500   44.0700   21.7000 C.3       5 GLY6        0.0000 
    126 CA        -48.6200   44.7900   20.3900 C.3       5 GLY6        0.0000 
    127 CA        -49.6500   46.4500   19.5700 C.3       5 GLY6        0.0000 
    128 DU        -57.1500   35.2400   20.0600 H         6 CUB7        0.0000 
    129 DU        -56.1300   35.4400   21.9000 H         6 CUB7        0.0000 
    130 DU        -56.1000   36.1600   20.5900 H         6 CUB7        0.0000 
    131 DU        -57.1600   37.1000   21.0800 H         6 CUB7        0.0000 
    132 DU        -57.1300   37.8200   19.7700 H         6 CUB7        0.0000 
    133 DU        -54.0100   35.4200   21.9400 H         6 CUB7        0.0000 
    134 DU        -55.0400   37.0800   21.1200 H         6 CUB7        0.0000 
    135 DU        -56.1100   38.0200   21.6200 H         6 CUB7        0.0000 
    136 DU        -54.9100   44.4300   16.6200 H         6 CUB7        0.0000 
    137 DU        -51.8400   40.5800   21.4100 H         6 CUB7        0.0000 
    138 DU        -53.8500   45.3500   17.1500 H         6 CUB7        0.0000 
    139 DU        -51.7300   45.3300   17.1900 H         6 CUB7        0.0000 
@<TRIPOS>BOND
@<TRIPOS>SUBSTRUCTURE
     1 SER1        1 GROUP   
     2 ALA2       21 GROUP   
     3 ASP3       49 GROUP   
     4 PHE5       53 GROUP   
     5 GLY6      101 GROUP   
     6 CUB7      128 GROUP   
@<TRIPOS>SET

