#    Name: 6jc8_2_PL6_CAVITY_N1_4
#    Modification time : Fri May 22 19:28:58 2020

@<TRIPOS>MOLECULE
6jc8_2_PL6_CAVITY_N1_4
   63     0     6     0     0
SMALL
NO_CHARGES


@<TRIPOS>ATOM
      1 OG         11.9000  -25.4200   -3.3500 O.3       1 SER1        0.0000 
      2 OG         11.9300  -24.6900   -4.6600 O.3       1 SER1        0.0000 
      3 OG         10.8300  -24.4900   -2.8600 O.3       1 SER1        0.0000 
      4 OG         14.0100  -23.5800   -2.2800 O.3       1 SER1        0.0000 
      5 OG         14.0400  -22.8500   -3.6000 O.3       1 SER1        0.0000 
      6 OG         12.9400  -22.6400   -1.7900 O.3       1 SER1        0.0000 
      7 OG         12.9700  -21.9200   -3.1000 O.3       1 SER1        0.0000 
      8 OG         16.1300  -23.5900   -2.2400 O.3       1 SER1        0.0000 
      9 OG         16.1600  -22.8600   -3.5600 O.3       1 SER1        0.0000 
     10 OG         17.2200  -21.9400   -3.0200 O.3       1 SER1        0.0000 
     11 O          11.8500  -28.7300   -1.7500 O.2       2 ALA2        0.0000 
     12 O          11.8800  -28.0000   -3.0700 O.2       2 ALA2        0.0000 
     13 O          11.9200  -22.8400   -3.6400 O.2       2 ALA2        0.0000 
     14 N          17.1700  -27.1100   -2.4500 N.am      2 ALA2        0.0000 
     15 N          15.1500  -20.4800   -5.6900 N.am      2 ALA2        0.0000 
     16 OD1        12.9100  -29.6600   -2.2500 O.co2     3 ASP3        0.0000 
     17 OD1        12.9400  -28.9400   -3.5600 O.co2     3 ASP3        0.0000 
     18 OD1        10.8400  -26.3400   -3.8900 O.co2     3 ASP3        0.0000 
     19 CZ         10.7800  -27.7900   -1.2600 C.ar      4 PHE5        0.0000 
     20 CZ         10.8100  -27.0700   -2.5700 C.ar      4 PHE5        0.0000 
     21 CZ         15.0600  -28.9500   -3.5200 C.ar      4 PHE5        0.0000 
     22 CZ         14.0000  -28.0100   -3.0300 C.ar      4 PHE5        0.0000 
     23 CZ         14.0300  -27.2900   -4.3400 C.ar      4 PHE5        0.0000 
     24 CZ         12.8700  -28.5300    0.0900 C.ar      4 PHE5        0.0000 
     25 CZ         12.9000  -27.8100   -1.2200 C.ar      4 PHE5        0.0000 
     26 CZ         12.9600  -26.3500   -3.8400 C.ar      4 PHE5        0.0000 
     27 CZ         11.8400  -26.8700   -0.7300 C.ar      4 PHE5        0.0000 
     28 CZ         11.8700  -26.1500   -2.0400 C.ar      4 PHE5        0.0000 
     29 CZ         16.1200  -28.0300   -2.9800 C.ar      4 PHE5        0.0000 
     30 CZ         15.0800  -26.3700   -3.8000 C.ar      4 PHE5        0.0000 
     31 CZ         13.9300  -27.6100    0.6300 C.ar      4 PHE5        0.0000 
     32 CZ         13.9600  -26.8800   -0.6900 C.ar      4 PHE5        0.0000 
     33 CZ         14.0200  -25.4300   -3.3100 C.ar      4 PHE5        0.0000 
     34 CZ         12.9200  -25.2200   -1.5100 C.ar      4 PHE5        0.0000 
     35 CZ         12.9800  -23.7700   -4.1300 C.ar      4 PHE5        0.0000 
     36 CZ         13.0100  -23.0500   -5.4400 C.ar      4 PHE5        0.0000 
     37 CZ         11.8900  -23.5600   -2.3300 C.ar      4 PHE5        0.0000 
     38 CZ         16.0800  -26.9000   -0.6500 C.ar      4 PHE5        0.0000 
     39 CZ         16.1100  -26.1700   -1.9600 C.ar      4 PHE5        0.0000 
     40 CZ         16.1400  -25.4500   -3.2700 C.ar      4 PHE5        0.0000 
     41 CZ         15.0400  -25.2400   -1.4600 C.ar      4 PHE5        0.0000 
     42 CZ         15.0700  -24.5100   -2.7800 C.ar      4 PHE5        0.0000 
     43 CZ         15.1000  -23.7800   -4.0900 C.ar      4 PHE5        0.0000 
     44 CZ         13.9800  -24.3000   -0.9700 C.ar      4 PHE5        0.0000 
     45 CZ         14.0700  -22.1200   -4.9100 C.ar      4 PHE5        0.0000 
     46 CZ         17.2200  -23.8000   -4.0500 C.ar      4 PHE5        0.0000 
     47 CZ         16.1900  -22.1400   -4.8700 C.ar      4 PHE5        0.0000 
     48 CA         12.8800  -30.3900   -0.9300 C.3       5 GLY6        0.0000 
     49 CA         11.9100  -27.2800   -4.3800 C.3       5 GLY6        0.0000 
     50 CA         15.0300  -29.6800   -2.2100 C.3       5 GLY6        0.0000 
     51 CA         13.9400  -29.4700   -0.4000 C.3       5 GLY6        0.0000 
     52 CA         16.0900  -28.7500   -1.6700 C.3       5 GLY6        0.0000 
     53 CA         17.2500  -23.0700   -5.3600 C.3       5 GLY6        0.0000 
     54 CA         16.2200  -21.4100   -6.1800 C.3       5 GLY6        0.0000 
     55 CA         15.1200  -21.2000   -4.3800 C.3       5 GLY6        0.0000 
     56 CA         17.2500  -21.2200   -4.3300 C.3       5 GLY6        0.0000 
     57 DU         13.9700  -28.7400   -1.7100 H         6 CUB7        0.0000 
     58 DU         12.9300  -27.0800   -2.5300 H         6 CUB7        0.0000 
     59 DU         14.9900  -28.5400    0.1300 H         6 CUB7        0.0000 
     60 DU         15.0200  -27.8200   -1.1800 H         6 CUB7        0.0000 
     61 DU         15.0500  -27.0900   -2.4900 H         6 CUB7        0.0000 
     62 DU         13.9900  -26.1600   -2.0000 H         6 CUB7        0.0000 
     63 DU         12.9500  -24.5000   -2.8200 H         6 CUB7        0.0000 
@<TRIPOS>BOND
@<TRIPOS>SUBSTRUCTURE
     1 SER1        1 GROUP   
     2 ALA2       11 GROUP   
     3 ASP3       16 GROUP   
     4 PHE5       19 GROUP   
     5 GLY6       48 GROUP   
     6 CUB7       57 GROUP   
@<TRIPOS>SET

