#    Name: 6jc8_1_PL6
#    Modification time : Fri May 22 19:28:40 2020

@<TRIPOS>MOLECULE
6jc8_1_PL6
   25    25     1     0     0
SMALL
NO_CHARGES


@<TRIPOS>ATOM
      1 OAE        -0.1930   -8.9920   -4.9360 O.co2     1 PL6601      0.0000 
      2 PAY        -0.8580   -8.7820   -3.5570 P.3       1 PL6601      0.0000 
      3 OAI        -0.4140   -9.8350   -2.5110 O.co2     1 PL6601      0.0000 
      4 OAD        -2.3540   -8.6690   -3.7340 O.co2     1 PL6601      0.0000 
      5 OAQ        -0.3830   -7.3720   -3.0210 O.3       1 PL6601      0.0000 
      6 CAN        -0.7250   -6.9990   -1.6790 C.3       1 PL6601      0.0000 
      7 CAU        -0.7120   -5.4800   -1.5740 C.ar      1 PL6601      0.0000 
      8 CAK         0.2770   -4.9190   -0.7400 C.ar      1 PL6601      0.0000 
      9 NAO         0.4040   -3.5970   -0.6170 N.ar      1 PL6601      0.0000 
     10 CAT        -0.4910   -2.7760   -1.2720 C.ar      1 PL6601      0.0000 
     11 CAA        -0.3880   -1.2820   -1.1060 C.3       1 PL6601      0.0000 
     12 CAV        -1.4510   -3.2930   -2.1400 C.ar      1 PL6601      0.0000 
     13 OAH        -2.3280   -2.5120   -2.8160 O.3       1 PL6601      0.0000 
     14 CAW        -1.5430   -4.6550   -2.3610 C.ar      1 PL6601      0.0000 
     15 CAJ        -2.6840   -5.0900   -3.1560 C.2       1 PL6601      0.0000 
     16 N          -3.6750   -4.2190   -3.2150 N.2       1 PL6601      0.0000 
     17 CA         -5.0700   -4.3890   -3.7390 C.3       1 PL6601      0.0000 
     18 C          -6.1060   -3.4490   -3.1230 C.2       1 PL6601      0.0000 
     19 OXT        -5.7830   -2.6580   -2.1930 O.co2     1 PL6601      0.0000 
     20 O          -7.3030   -3.4870   -3.5290 O.co2     1 PL6601      0.0000 
     21 CB         -5.4680   -5.8490   -3.3680 C.3       1 PL6601      0.0000 
     22 CG         -6.9630   -6.2420   -3.2390 C.3       1 PL6601      0.0000 
     23 CD         -7.0720   -7.7540   -3.0760 C.2       1 PL6601      0.0000 
     24 OE2        -6.6000   -8.2800   -2.0360 O.co2     1 PL6601      0.0000 
     25 OE1        -7.6100   -8.4350   -3.9910 O.co2     1 PL6601      0.0000 
@<TRIPOS>BOND
     1    1    2 ar   
     2    2    3 ar   
     3    2    4 ar   
     4    2    5 1    
     5    5    6 1    
     6    6    7 1    
     7    7    8 ar   
     8    7   14 ar   
     9    8    9 ar   
    10    9   10 ar   
    11   10   11 1    
    12   10   12 ar   
    13   12   13 1    
    14   12   14 ar   
    15   14   15 1    
    16   15   16 2    
    17   16   17 1    
    18   17   18 1    
    19   17   21 1    
    20   18   19 ar   
    21   18   20 ar   
    22   21   22 1    
    23   22   23 1    
    24   23   24 ar   
    25   23   25 ar   
@<TRIPOS>SUBSTRUCTURE
     1 PL6601      1 GROUP   
@<TRIPOS>SET

