#    Name: 6jc8_2_PL6
#    Modification time : Fri May 22 19:28:56 2020

@<TRIPOS>MOLECULE
6jc8_2_PL6
   25    25     1     0     0
SMALL
NO_CHARGES


@<TRIPOS>ATOM
      1 OAE         6.2530  -21.7450   -4.8540 O.co2     1 PL6601      0.0000 
      2 PAY         6.8440  -22.0070   -3.4450 P.3       1 PL6601      0.0000 
      3 OAI         6.3630  -20.9080   -2.4690 O.co2     1 PL6601      0.0000 
      4 OAD         8.3520  -22.0940   -3.6010 O.co2     1 PL6601      0.0000 
      5 OAQ         6.3130  -23.3990   -2.8670 O.3       1 PL6601      0.0000 
      6 CAN         6.8380  -23.7770   -1.5860 C.3       1 PL6601      0.0000 
      7 CAU         6.8220  -25.2980   -1.4830 C.ar      1 PL6601      0.0000 
      8 CAK         5.8230  -25.8430   -0.6640 C.ar      1 PL6601      0.0000 
      9 NAO         5.6910  -27.1430   -0.4640 N.ar      1 PL6601      0.0000 
     10 CAT         6.5660  -27.9790   -1.0760 C.ar      1 PL6601      0.0000 
     11 CAA         6.4770  -29.4580   -0.9110 C.3       1 PL6601      0.0000 
     12 CAV         7.5490  -27.5130   -1.9070 C.ar      1 PL6601      0.0000 
     13 OAH         8.3970  -28.4140   -2.4900 O.3       1 PL6601      0.0000 
     14 CAW         7.6730  -26.1770   -2.1630 C.ar      1 PL6601      0.0000 
     15 CAJ         8.8510  -25.8430   -2.9420 C.2       1 PL6601      0.0000 
     16 N           9.7790  -26.7890   -3.1140 N.2       1 PL6601      0.0000 
     17 CA         11.1250  -26.6660   -3.7320 C.3       1 PL6601      0.0000 
     18 C          12.1130  -27.5330   -2.9350 C.2       1 PL6601      0.0000 
     19 OXT        11.6810  -28.3500   -2.0660 O.co2     1 PL6601      0.0000 
     20 O          13.3550  -27.4370   -3.1420 O.co2     1 PL6601      0.0000 
     21 CB         11.5980  -25.1540   -3.8300 C.3       1 PL6601      0.0000 
     22 CG         12.9180  -24.6150   -3.1690 C.3       1 PL6601      0.0000 
     23 CD         13.0010  -23.0600   -3.1490 C.2       1 PL6601      0.0000 
     24 OE2        12.5370  -22.4170   -2.1540 O.co2     1 PL6601      0.0000 
     25 OE1        13.5350  -22.4310   -4.1300 O.co2     1 PL6601      0.0000 
@<TRIPOS>BOND
     1    1    2 ar   
     2    2    3 ar   
     3    2    4 ar   
     4    2    5 1    
     5    5    6 1    
     6    6    7 1    
     7    7    8 ar   
     8    7   14 ar   
     9    8    9 ar   
    10    9   10 ar   
    11   10   11 1    
    12   10   12 ar   
    13   12   13 1    
    14   12   14 ar   
    15   14   15 1    
    16   15   16 2    
    17   16   17 1    
    18   17   18 1    
    19   17   21 1    
    20   18   19 ar   
    21   18   20 ar   
    22   21   22 1    
    23   22   23 1    
    24   23   24 ar   
    25   23   25 ar   
@<TRIPOS>SUBSTRUCTURE
     1 PL6601      1 GROUP   
@<TRIPOS>SET

