#    Name: 6jc8_4_PL6
#    Modification time : Fri May 22 19:29:29 2020

@<TRIPOS>MOLECULE
6jc8_4_PL6
   25    25     1     0     0
SMALL
NO_CHARGES


@<TRIPOS>ATOM
      1 OAE       -48.5300   29.2480   21.7710 O.co2     1 PL6601      0.0000 
      2 PAY       -49.7460   29.5640   22.7010 P.3       1 PL6601      0.0000 
      3 OAI       -49.4160   28.9890   24.0940 O.co2     1 PL6601      0.0000 
      4 OAD       -50.0430   31.0630   22.8420 O.co2     1 PL6601      0.0000 
      5 OAQ       -51.0250   28.8720   22.0640 O.3       1 PL6601      0.0000 
      6 CAN       -51.4600   29.4160   20.8180 C.3       1 PL6601      0.0000 
      7 CAU       -52.9860   29.2480   20.7270 C.ar      1 PL6601      0.0000 
      8 CAK       -53.4010   28.2250   19.8540 C.ar      1 PL6601      0.0000 
      9 NAO       -54.6850   27.9610   19.6550 N.ar      1 PL6601      0.0000 
     10 CAT       -55.6530   28.6860   20.2650 C.ar      1 PL6601      0.0000 
     11 CAA       -57.1030   28.3580   20.0010 C.3       1 PL6601      0.0000 
     12 CAV       -55.3140   29.6950   21.1470 C.ar      1 PL6601      0.0000 
     13 OAH       -56.2720   30.4440   21.7940 O.3       1 PL6601      0.0000 
     14 CAW       -53.9780   29.9600   21.4410 C.ar      1 PL6601      0.0000 
     15 CAJ       -53.8210   31.1520   22.2690 C.2       1 PL6601      0.0000 
     16 N         -54.8760   32.0050   22.3380 N.2       1 PL6601      0.0000 
     17 CA        -54.9100   33.3960   22.8990 C.3       1 PL6601      0.0000 
     18 C         -55.9050   34.2840   22.1350 C.2       1 PL6601      0.0000 
     19 OXT       -55.9350   35.5400   22.3490 O.co2     1 PL6601      0.0000 
     20 O         -56.7080   33.7430   21.2940 O.co2     1 PL6601      0.0000 
     21 CB        -53.4260   33.8760   22.7540 C.3       1 PL6601      0.0000 
     22 CG        -52.8890   35.3040   23.0300 C.3       1 PL6601      0.0000 
     23 CD        -52.0430   35.7960   21.8360 C.2       1 PL6601      0.0000 
     24 OE2       -50.8450   35.3530   21.6400 O.co2     1 PL6601      0.0000 
     25 OE1       -52.6570   36.6200   21.0710 O.co2     1 PL6601      0.0000 
@<TRIPOS>BOND
     1    1    2 ar   
     2    2    3 ar   
     3    2    4 ar   
     4    2    5 1    
     5    5    6 1    
     6    6    7 1    
     7    7    8 ar   
     8    7   14 ar   
     9    8    9 ar   
    10    9   10 ar   
    11   10   11 1    
    12   10   12 ar   
    13   12   13 1    
    14   12   14 ar   
    15   14   15 1    
    16   15   16 2    
    17   16   17 1    
    18   17   18 1    
    19   17   21 1    
    20   18   19 ar   
    21   18   20 ar   
    22   21   22 1    
    23   22   23 1    
    24   23   24 ar   
    25   23   25 ar   
@<TRIPOS>SUBSTRUCTURE
     1 PL6601      1 GROUP   
@<TRIPOS>SET

