#    Name: 6jc8_4_PL6_CAVITY_N1_6
#    Modification time : Fri May 22 19:29:31 2020

@<TRIPOS>MOLECULE
6jc8_4_PL6_CAVITY_N1_6
   88     0     6     0     0
SMALL
NO_CHARGES


@<TRIPOS>ATOM
      1 OG        -52.9700   33.7600   22.7600 O.3       1 SER1        0.0000 
      2 OG        -51.9100   34.6900   23.3000 O.3       1 SER1        0.0000 
      3 OG        -51.8800   35.4100   21.9900 O.3       1 SER1        0.0000 
      4 OG        -51.8500   36.1400   20.6700 O.3       1 SER1        0.0000 
      5 OG        -56.0800   40.6000   21.3300 O.3       1 SER1        0.0000 
      6 OG        -56.0500   41.3300   20.0200 O.3       1 SER1        0.0000 
      7 OG        -50.8300   36.3300   22.5200 O.3       1 SER1        0.0000 
      8 OG        -51.8600   37.9900   21.7000 O.3       1 SER1        0.0000 
      9 OG        -53.9600   40.5900   21.3700 O.3       1 SER1        0.0000 
     10 OG        -53.9300   41.3100   20.0600 O.3       1 SER1        0.0000 
     11 OG        -50.8100   38.9100   22.2300 O.3       1 SER1        0.0000 
     12 OG        -50.7800   39.6400   20.9200 O.3       1 SER1        0.0000 
     13 OG        -52.8800   42.2400   20.5900 O.3       1 SER1        0.0000 
     14 O         -58.2100   34.3200   19.5200 O.2       2 ALA2        0.0000 
     15 O         -57.1800   34.5100   21.3700 O.2       2 ALA2        0.0000 
     16 N         -58.2200   36.1700   20.5500 N.am      2 ALA2        0.0000 
     17 O         -58.1600   37.6300   17.9200 O.2       2 ALA2        0.0000 
     18 O         -59.2500   37.8300   19.7300 O.2       2 ALA2        0.0000 
     19 O         -57.1000   38.5500   18.4600 O.2       2 ALA2        0.0000 
     20 N         -57.1700   38.9500   22.1100 N.am      2 ALA2        0.0000 
     21 N         -57.1400   39.6800   20.8000 N.am      2 ALA2        0.0000 
     22 N         -57.1100   40.4000   19.4900 N.am      2 ALA2        0.0000 
     23 N         -56.1100   39.8700   22.6400 N.am      2 ALA2        0.0000 
     24 N         -49.6900   41.2900   20.1400 N.am      2 ALA2        0.0000 
     25 N         -50.7600   42.2200   20.6300 N.am      2 ALA2        0.0000 
     26 OD1       -58.2500   35.4500   21.8600 O.co2     3 ASP3        0.0000 
     27 OD1       -55.0900   33.7800   22.7200 O.co2     3 ASP3        0.0000 
     28 OD1       -57.1900   36.3700   22.4000 O.co2     3 ASP3        0.0000 
     29 OD1       -58.2600   37.3100   22.8900 O.co2     3 ASP3        0.0000 
     30 CZ        -56.1200   33.5800   20.8800 C.ar      4 PHE5        0.0000 
     31 CZ        -56.0900   34.3100   19.5600 C.ar      4 PHE5        0.0000 
     32 CZ        -54.0300   32.8400   22.2300 C.ar      4 PHE5        0.0000 
     33 CZ        -55.0600   34.5000   21.4100 C.ar      4 PHE5        0.0000 
     34 CZ        -55.0300   35.2300   20.1000 C.ar      4 PHE5        0.0000 
     35 CZ        -55.0000   35.9500   18.7900 C.ar      4 PHE5        0.0000 
     36 CZ        -56.0700   36.8900   19.2800 C.ar      4 PHE5        0.0000 
     37 CZ        -56.0400   37.6100   17.9700 C.ar      4 PHE5        0.0000 
     38 CZ        -52.9400   34.4900   21.4500 C.ar      4 PHE5        0.0000 
     39 CZ        -54.0400   34.7000   23.2600 C.ar      4 PHE5        0.0000 
     40 CZ        -53.9800   36.1500   20.6300 C.ar      4 PHE5        0.0000 
     41 CZ        -55.0700   36.3600   22.4400 C.ar      4 PHE5        0.0000 
     42 CZ        -55.0100   37.8100   19.8100 C.ar      4 PHE5        0.0000 
     43 CZ        -56.1400   37.2900   22.9300 C.ar      4 PHE5        0.0000 
     44 CZ        -56.0800   38.7400   20.3000 C.ar      4 PHE5        0.0000 
     45 CZ        -56.0500   39.4700   18.9900 C.ar      4 PHE5        0.0000 
     46 CZ        -56.0200   40.2000   17.6800 C.ar      4 PHE5        0.0000 
     47 CZ        -57.2000   38.2300   23.4200 C.ar      4 PHE5        0.0000 
     48 CZ        -52.9500   36.3500   22.4800 C.ar      4 PHE5        0.0000 
     49 CZ        -52.9200   37.0700   21.1700 C.ar      4 PHE5        0.0000 
     50 CZ        -54.0100   37.2800   22.9700 C.ar      4 PHE5        0.0000 
     51 CZ        -53.9800   38.0100   21.6600 C.ar      4 PHE5        0.0000 
     52 CZ        -53.9500   38.7300   20.3500 C.ar      4 PHE5        0.0000 
     53 CZ        -55.0500   38.9400   22.1500 C.ar      4 PHE5        0.0000 
     54 CZ        -55.0200   39.6700   20.8400 C.ar      4 PHE5        0.0000 
     55 CZ        -54.9900   40.3900   19.5300 C.ar      4 PHE5        0.0000 
     56 CZ        -54.9600   41.1200   18.2100 C.ar      4 PHE5        0.0000 
     57 CZ        -51.8900   37.2700   23.0100 C.ar      4 PHE5        0.0000 
     58 CZ        -52.9300   38.9300   22.1900 C.ar      4 PHE5        0.0000 
     59 CZ        -52.9000   39.6500   20.8800 C.ar      4 PHE5        0.0000 
     60 CZ        -53.9900   39.8600   22.6800 C.ar      4 PHE5        0.0000 
     61 CZ        -50.8400   38.1900   23.5500 C.ar      4 PHE5        0.0000 
     62 CZ        -51.9000   39.1200   24.0400 C.ar      4 PHE5        0.0000 
     63 CZ        -51.8100   41.3000   20.1000 C.ar      4 PHE5        0.0000 
     64 CZ        -51.7800   42.0300   18.7900 C.ar      4 PHE5        0.0000 
     65 CA        -57.1200   35.9700   18.7400 C.3       5 GLY6        0.0000 
     66 CA        -57.0900   36.6900   17.4300 C.3       5 GLY6        0.0000 
     67 CA        -58.1900   36.9000   19.2400 C.3       5 GLY6        0.0000 
     68 CA        -59.2800   37.1100   21.0400 C.3       5 GLY6        0.0000 
     69 CA        -56.1600   34.7100   23.2200 C.3       5 GLY6        0.0000 
     70 CA        -58.2300   38.0300   21.5800 C.3       5 GLY6        0.0000 
     71 CA        -58.2000   38.7600   20.2600 C.3       5 GLY6        0.0000 
     72 CA        -55.0600   40.8000   23.1800 C.3       5 GLY6        0.0000 
     73 CA        -51.8700   39.8500   22.7300 C.3       5 GLY6        0.0000 
     74 CA        -52.9100   41.5100   21.9100 C.3       5 GLY6        0.0000 
     75 CA        -49.7500   39.8400   22.7700 C.3       5 GLY6        0.0000 
     76 CA        -49.7200   40.5600   21.4500 C.3       5 GLY6        0.0000 
     77 CA        -50.8500   40.0500   24.5700 C.3       5 GLY6        0.0000 
     78 CA        -50.8200   40.7700   23.2600 C.3       5 GLY6        0.0000 
     79 CA        -50.7900   41.5000   21.9500 C.3       5 GLY6        0.0000 
     80 DU        -57.1500   35.2400   20.0600 H         6 CUB7        0.0000 
     81 DU        -56.1300   35.4400   21.9000 H         6 CUB7        0.0000 
     82 DU        -56.1000   36.1600   20.5900 H         6 CUB7        0.0000 
     83 DU        -57.1600   37.1000   21.0800 H         6 CUB7        0.0000 
     84 DU        -57.1300   37.8200   19.7700 H         6 CUB7        0.0000 
     85 DU        -54.0100   35.4200   21.9400 H         6 CUB7        0.0000 
     86 DU        -55.0400   37.0800   21.1200 H         6 CUB7        0.0000 
     87 DU        -56.1100   38.0200   21.6200 H         6 CUB7        0.0000 
     88 DU        -51.8400   40.5800   21.4100 H         6 CUB7        0.0000 
@<TRIPOS>BOND
@<TRIPOS>SUBSTRUCTURE
     1 SER1        1 GROUP   
     2 ALA2       14 GROUP   
     3 ASP3       26 GROUP   
     4 PHE5       30 GROUP   
     5 GLY6       65 GROUP   
     6 CUB7       80 GROUP   
@<TRIPOS>SET

