#    Name: 6jc8_3_PL6
#    Modification time : Fri May 22 19:29:13 2020

@<TRIPOS>MOLECULE
6jc8_3_PL6
   25    25     1     0     0
SMALL
NO_CHARGES


@<TRIPOS>ATOM
      1 OAE       -36.9580   23.4470   21.7970 O.co2     1 PL6601      0.0000 
      2 PAY       -35.8490   23.0510   22.7650 P.3       1 PL6601      0.0000 
      3 OAI       -36.1190   23.6760   24.1250 O.co2     1 PL6601      0.0000 
      4 OAD       -35.6100   21.5910   22.9660 O.co2     1 PL6601      0.0000 
      5 OAQ       -34.5240   23.7520   22.2210 O.3       1 PL6601      0.0000 
      6 CAN       -34.1110   23.3480   20.9130 C.3       1 PL6601      0.0000 
      7 CAU       -32.6120   23.4870   20.8300 C.ar      1 PL6601      0.0000 
      8 CAK       -32.1690   24.5300   20.0260 C.ar      1 PL6601      0.0000 
      9 NAO       -30.8710   24.7530   19.8650 N.ar      1 PL6601      0.0000 
     10 CAT       -29.9450   23.9690   20.4940 C.ar      1 PL6601      0.0000 
     11 CAA       -28.4840   24.2630   20.2820 C.3       1 PL6601      0.0000 
     12 CAV       -30.3240   22.9360   21.3260 C.ar      1 PL6601      0.0000 
     13 OAH       -29.4030   22.1100   21.9490 O.3       1 PL6601      0.0000 
     14 CAW       -31.6700   22.7300   21.5420 C.ar      1 PL6601      0.0000 
     15 CAJ       -31.9480   21.5370   22.2900 C.2       1 PL6601      0.0000 
     16 N         -30.9540   20.6670   22.3970 N.2       1 PL6601      0.0000 
     17 CA        -31.0290   19.2880   22.9500 C.3       1 PL6601      0.0000 
     18 C         -30.0360   18.3350   22.2780 C.2       1 PL6601      0.0000 
     19 OXT       -29.8000   17.1520   22.6480 O.co2     1 PL6601      0.0000 
     20 O         -29.4310   18.7460   21.2760 O.co2     1 PL6601      0.0000 
     21 CB        -32.4400   18.8150   22.5200 C.3       1 PL6601      0.0000 
     22 CG        -33.0860   17.5460   23.1000 C.3       1 PL6601      0.0000 
     23 CD        -33.8950   16.9160   21.9790 C.2       1 PL6601      0.0000 
     24 OE2       -35.0120   17.3740   21.6210 O.co2     1 PL6601      0.0000 
     25 OE1       -33.3380   15.9620   21.3990 O.co2     1 PL6601      0.0000 
@<TRIPOS>BOND
     1    1    2 ar   
     2    2    3 ar   
     3    2    4 ar   
     4    2    5 1    
     5    5    6 1    
     6    6    7 1    
     7    7    8 ar   
     8    7   14 ar   
     9    8    9 ar   
    10    9   10 ar   
    11   10   11 1    
    12   10   12 ar   
    13   12   13 1    
    14   12   14 ar   
    15   14   15 1    
    16   15   16 2    
    17   16   17 1    
    18   17   18 1    
    19   17   21 1    
    20   18   19 ar   
    21   18   20 ar   
    22   21   22 1    
    23   22   23 1    
    24   23   24 ar   
    25   23   25 ar   
@<TRIPOS>SUBSTRUCTURE
     1 PL6601      1 GROUP   
@<TRIPOS>SET

