#    Name: 6knz_4_GTP_CAVITY_N1_6
#    Modification time : Fri May 22 19:32:26 2020

@<TRIPOS>MOLECULE
6knz_4_GTP_CAVITY_N1_6
   87     0     7     0     0
SMALL
NO_CHARGES


@<TRIPOS>ATOM
      1 OG         20.5100  -16.2700  -43.8400 O.3       1 SER1        0.0000 
      2 OG         19.1700  -15.6400  -44.0300 O.3       1 SER1        0.0000 
      3 OG         19.8600  -17.4500  -43.1800 O.3       1 SER1        0.0000 
      4 OG         19.9500  -13.7800  -43.3600 O.3       1 SER1        0.0000 
      5 OG         18.6000  -13.1500  -43.5500 O.3       1 SER1        0.0000 
      6 OG         19.3000  -14.9600  -42.7000 O.3       1 SER1        0.0000 
      7 OG         18.7300  -12.4700  -42.2100 O.3       1 SER1        0.0000 
      8 OG         19.4300  -14.2900  -41.3600 O.3       1 SER1        0.0000 
      9 OG         18.0800  -13.6500  -41.5500 O.3       1 SER1        0.0000 
     10 OG         22.8500  -10.7100  -41.8200 O.3       1 SER1        0.0000 
     11 OG         22.2000  -11.8900  -41.1600 O.3       1 SER1        0.0000 
     12 OG         21.5500  -13.0700  -40.5000 O.3       1 SER1        0.0000 
     13 O          15.7400   -9.5500  -46.7700 O.2       2 ALA2        0.0000 
     14 O          14.3900   -8.9200  -46.9600 O.2       2 ALA2        0.0000 
     15 O          23.1600  -14.5500  -44.9700 O.2       2 ALA2        0.0000 
     16 N          21.8100  -13.9100  -45.1600 N.am      2 ALA2        0.0000 
     17 N          22.5100  -15.7300  -44.3100 N.am      2 ALA2        0.0000 
     18 N          19.8200  -14.4600  -44.6900 N.am      2 ALA2        0.0000 
     19 O          18.4700  -13.8200  -44.8800 O.2       2 ALA2        0.0000 
     20 N          21.8600  -16.9100  -43.6500 N.am      2 ALA2        0.0000 
     21 N          22.5900  -12.0600  -44.4800 N.am      2 ALA2        0.0000 
     22 O          15.8700   -8.8800  -45.4400 O.2       2 ALA2        0.0000 
     23 O          14.5200   -8.2500  -45.6300 O.2       2 ALA2        0.0000 
     24 O          23.2900  -13.8700  -43.6300 O.2       2 ALA2        0.0000 
     25 N          21.9400  -13.2400  -43.8200 N.am      2 ALA2        0.0000 
     26 N          20.6000  -12.6000  -44.0200 N.am      2 ALA2        0.0000 
     27 O          16.5600  -10.7000  -44.5900 O.2       2 ALA2        0.0000 
     28 N          22.6400  -15.0500  -42.9800 N.am      2 ALA2        0.0000 
     29 N          21.9900  -16.2300  -42.3200 N.am      2 ALA2        0.0000 
     30 O          23.3700  -10.2000  -43.8100 O.2       2 ALA2        0.0000 
     31 O          21.3800  -10.7500  -43.3400 O.2       2 ALA2        0.0000 
     32 O          19.3800  -11.2900  -42.8700 O.2       2 ALA2        0.0000 
     33 O          18.0400  -10.6600  -43.0600 O.2       2 ALA2        0.0000 
     34 O          16.6900  -10.0200  -43.2500 O.2       2 ALA2        0.0000 
     35 N          16.8200   -9.3500  -41.9200 N.am      2 ALA2        0.0000 
     36 O          15.4700   -8.7100  -42.1100 O.2       2 ALA2        0.0000 
     37 O          18.2100  -12.9800  -40.2200 O.2       2 ALA2        0.0000 
     38 O          16.8600  -12.3500  -40.4100 O.2       2 ALA2        0.0000 
     39 O          17.5600  -14.1600  -39.5600 O.2       2 ALA2        0.0000 
     40 O          16.9100  -15.3400  -38.9000 O.2       2 ALA2        0.0000 
     41 N          18.9900  -11.1300  -39.5400 N.am      2 ALA2        0.0000 
     42 N          17.6400  -10.4900  -39.7300 N.am      2 ALA2        0.0000 
     43 N          16.3000   -9.8600  -39.9300 N.am      2 ALA2        0.0000 
     44 N          14.9500   -9.2200  -40.1200 N.am      2 ALA2        0.0000 
     45 O          18.3400  -12.3100  -38.8900 O.2       2 ALA2        0.0000 
     46 N          15.6500  -11.0400  -39.2700 N.am      2 ALA2        0.0000 
     47 N          14.3000  -10.4000  -39.4600 N.am      2 ALA2        0.0000 
     48 O          19.0300  -14.1200  -38.0400 O.2       2 ALA2        0.0000 
     49 N          16.4300   -9.1800  -38.5900 N.am      2 ALA2        0.0000 
     50 N          15.0800   -8.5500  -38.7800 N.am      2 ALA2        0.0000 
     51 OD1        23.6800  -14.0400  -46.9600 O.co2     3 ASP3        0.0000 
     52 OD1        23.8100  -13.3700  -45.6300 O.co2     3 ASP3        0.0000 
     53 OD1        23.9400  -12.6900  -44.2900 O.co2     3 ASP3        0.0000 
     54 OD1        24.7200  -10.8400  -43.6200 O.co2     3 ASP3        0.0000 
     55 NZ         20.6400  -15.6000  -42.5100 N.4       4 LYS4        0.0000 
     56 NZ         20.7700  -14.9200  -41.1700 N.4       4 LYS4        0.0000 
     57 NZ         20.9000  -14.2500  -39.8400 N.4       4 LYS4        0.0000 
     58 NZ         18.9000  -14.8000  -39.3700 N.4       4 LYS4        0.0000 
     59 NZ         20.3800  -14.7600  -37.8500 N.4       4 LYS4        0.0000 
     60 CZ         15.2200  -10.0600  -44.7800 C.ar      5 PHE5        0.0000 
     61 CZ         15.3400   -9.3900  -43.4400 C.ar      5 PHE5        0.0000 
     62 CZ         17.3800  -11.8400  -42.4000 C.ar      5 PHE5        0.0000 
     63 CZ         16.1700  -10.5300  -41.2600 C.ar      5 PHE5        0.0000 
     64 CZ         14.8200   -9.8900  -41.4500 C.ar      5 PHE5        0.0000 
     65 CA         24.0700  -12.0200  -42.9600 C.3       6 GLY6        0.0000 
     66 CA         22.7200  -11.3800  -43.1500 C.3       6 GLY6        0.0000 
     67 CA         17.3400   -8.8400  -43.9100 C.3       6 GLY6        0.0000 
     68 CA         15.9900   -8.2100  -44.1000 C.3       6 GLY6        0.0000 
     69 CA         23.4200  -13.2000  -42.3000 C.3       6 GLY6        0.0000 
     70 CA         20.7300  -11.9300  -42.6800 C.3       6 GLY6        0.0000 
     71 CA         22.7700  -14.3800  -41.6400 C.3       6 GLY6        0.0000 
     72 CA         18.7700  -15.4700  -40.7000 C.3       6 GLY6        0.0000 
     73 CA         24.2000  -11.3500  -41.6300 C.3       6 GLY6        0.0000 
     74 CA         20.8600  -11.2600  -41.3500 C.3       6 GLY6        0.0000 
     75 CA         20.2000  -12.4400  -40.6900 C.3       6 GLY6        0.0000 
     76 CA         18.8600  -11.8000  -40.8800 C.3       6 GLY6        0.0000 
     77 CA         17.5100  -11.1600  -41.0700 C.3       6 GLY6        0.0000 
     78 CA         18.2500  -15.9800  -38.7100 C.3       6 GLY6        0.0000 
     79 CA         21.0300  -13.5800  -38.5100 C.3       6 GLY6        0.0000 
     80 CA         19.6800  -12.9400  -38.7000 C.3       6 GLY6        0.0000 
     81 CA         18.3800  -15.3000  -37.3800 C.3       6 GLY6        0.0000 
     82 DU         21.1600  -15.0900  -44.5000 H         7 CUB7        0.0000 
     83 DU         21.2900  -14.4200  -43.1700 H         7 CUB7        0.0000 
     84 DU         22.0700  -12.5600  -42.4900 H         7 CUB7        0.0000 
     85 DU         21.4200  -13.7400  -41.8300 H         7 CUB7        0.0000 
     86 DU         20.0800  -13.1100  -42.0200 H         7 CUB7        0.0000 
     87 DU         19.5500  -13.6200  -40.0300 H         7 CUB7        0.0000 
@<TRIPOS>BOND
@<TRIPOS>SUBSTRUCTURE
     1 SER1        1 GROUP   
     2 ALA2       13 GROUP   
     3 ASP3       51 GROUP   
     4 LYS4       55 GROUP   
     5 PHE5       60 GROUP   
     6 GLY6       65 GROUP   
     7 CUB7       82 GROUP   
@<TRIPOS>SET

