#    Name: 6knz_3_GTP_CAVITY_N1_8
#    Modification time : Fri May 22 19:32:20 2020

@<TRIPOS>MOLECULE
6knz_3_GTP_CAVITY_N1_8
   25     0     6     0     0
SMALL
NO_CHARGES


@<TRIPOS>ATOM
      1 OG          6.0400   14.1400  -17.3100 O.3       1 SER1        0.0000 
      2 OG         10.8100   17.0900  -17.5800 O.3       1 SER1        0.0000 
      3 OG         10.1600   15.9100  -16.9200 O.3       1 SER1        0.0000 
      4 OG          8.8100   16.5400  -17.1100 O.3       1 SER1        0.0000 
      5 OG          6.8200   16.0000  -16.6400 O.3       1 SER1        0.0000 
      6 N          10.6800   16.4100  -18.9100 N.am      2 ALA2        0.0000 
      7 N           8.6800   15.8700  -18.4400 N.am      2 ALA2        0.0000 
      8 O           5.4300   19.6300  -18.3400 O.2       2 ALA2        0.0000 
      9 O           4.9000   19.1200  -16.3400 O.2       2 ALA2        0.0000 
     10 OD1         5.4700   16.6300  -16.8300 O.co2     3 ASP3        0.0000 
     11 OD1         4.8200   15.4500  -16.1700 O.co2     3 ASP3        0.0000 
     12 CZ          6.7700   18.9900  -18.1500 C.ar      4 PHE5        0.0000 
     13 CZ          7.4700   17.1800  -17.3000 C.ar      4 PHE5        0.0000 
     14 CZ          6.1200   17.8100  -17.4900 C.ar      4 PHE5        0.0000 
     15 CZ          6.2500   18.4800  -16.1500 C.ar      4 PHE5        0.0000 
     16 CA         12.0200   15.7800  -18.7200 C.3       5 GLY6        0.0000 
     17 CA         10.0300   15.2300  -18.2500 C.3       5 GLY6        0.0000 
     18 CA          7.3400   16.5000  -18.6300 C.3       5 GLY6        0.0000 
     19 CA          9.3800   14.0500  -17.5900 C.3       5 GLY6        0.0000 
     20 CA          8.0300   14.6900  -17.7800 C.3       5 GLY6        0.0000 
     21 CA          8.1600   15.3600  -16.4500 C.3       5 GLY6        0.0000 
     22 CA          6.1600   14.8200  -15.9800 C.3       5 GLY6        0.0000 
     23 CA          6.9400   16.6700  -15.3000 C.3       5 GLY6        0.0000 
     24 CA          5.6000   17.3000  -15.4900 C.3       5 GLY6        0.0000 
     25 DU          6.6900   15.3200  -17.9700 H         6 CUB7        0.0000 
@<TRIPOS>BOND
@<TRIPOS>SUBSTRUCTURE
     1 SER1        1 GROUP   
     2 ALA2        6 GROUP   
     3 ASP3       10 GROUP   
     4 PHE5       12 GROUP   
     5 GLY6       16 GROUP   
     6 CUB7       25 GROUP   
@<TRIPOS>SET

