#    Name: 6knz_5_ACP
#    Modification time : Fri May 22 19:32:31 2020

@<TRIPOS>MOLECULE
6knz_5_ACP
   45    47     1     0     1
SMALL
NO_CHARGES


@<TRIPOS>ATOM
      1 PG          8.4940   48.8260   93.0140 P.3       1 ACP402      0.0000 
      2 O1G         9.1550   50.1890   92.8480 O.co2     1 ACP402      0.0000 
      3 O2G         8.7240   47.8630   91.8480 O.co2     1 ACP402      0.0000 
      4 O3G         6.9920   48.9890   93.3190 O.co2     1 ACP402      0.0000 
      5 PB         10.4100   49.0810   95.4380 P.3       1 ACP402      0.0000 
      6 O1B        10.5570   50.4930   94.9730 O.co2     1 ACP402      0.0000 
      7 O2B        11.6670   48.4320   96.0030 O.co2     1 ACP402      0.0000 
      8 C3B         9.3230   48.0270   94.5840 C.3       1 ACP402      0.0000 
      9 PA         10.5280   50.2140   98.1630 P.3       1 ACP402      0.0000 
     10 O1A        10.1030   51.6460   98.4460 O.co2     1 ACP402      0.0000 
     11 O2A        11.9480   49.8120   98.2760 O.co2     1 ACP402      0.0000 
     12 O3A         9.6760   49.5440   97.0390 O.3       1 ACP402      0.0000 
     13 O5'         9.8980   49.4750   99.8360 O.3       1 ACP402      0.0000 
     14 C5'         8.5900   49.2110  100.0080 C.3       1 ACP402      0.0000 
     15 C4'         8.1910   48.5030  101.3860 C.3       1 ACP402      0.0000 
     16 O4'         8.9670   48.7100  102.4450 O.3       1 ACP402      0.0000 
     17 C3'         6.9130   49.4130  101.7320 C.3       1 ACP402      0.0000 
     18 O3'         5.7670   49.1450  101.0250 O.3       1 ACP402      0.0000 
     19 C2'         6.6920   49.1790  103.1480 C.3       1 ACP402      0.0000 
     20 O2'         5.8910   48.1270  103.3270 O.3       1 ACP402      0.0000 
     21 C1'         8.1330   48.8680  103.5050 C.3       1 ACP402      0.0000 
     22 N9          8.6630   50.2010  103.8230 N.pl3     1 ACP402      0.0000 
     23 C8          9.3900   50.9710  102.8610 C.2       1 ACP402      0.0000 
     24 N7          9.7390   52.1990  103.3360 N.2       1 ACP402      0.0000 
     25 C5          9.1860   52.2270  104.6370 C.ar      1 ACP402      0.0000 
     26 C6          9.1740   53.1990  105.6600 C.ar      1 ACP402      0.0000 
     27 N6          9.8000   54.4430  105.6300 N.pl3     1 ACP402      0.0000 
     28 N1          8.5380   52.8640  106.8090 N.ar      1 ACP402      0.0000 
     29 C2          7.9130   51.6500  106.9480 C.ar      1 ACP402      0.0000 
     30 N3          7.8510   50.6690  106.0680 N.ar      1 ACP402      0.0000 
     31 C4          8.5040   50.9840  104.9090 C.ar      1 ACP402      0.0000 
     32 H3B1        8.4720   47.6350   95.1580 H         1 ACP402      0.0000 
     33 H3B2        9.7500   47.0890   94.2050 H         1 ACP402      0.0000 
     34 H5'1        8.1150   48.4680   99.3210 H         1 ACP402      0.0000 
     35 H5'2        7.8910   50.0800  100.0840 H         1 ACP402      0.0000 
     36 H4'         8.1690   47.4000  101.3570 H         1 ACP402      0.0000 
     37 H3'         7.0540   50.5030  101.7000 H         1 ACP402      0.0000 
     38 HO3'        5.8120   48.1830  100.9060 H         1 ACP402      0.0000 
     39 H2'         6.2540   50.0890  103.5860 H         1 ACP402      0.0000 
     40 HO2'        5.0700   48.4930  102.9810 H         1 ACP402      0.0000 
     41 H1'         8.1350   48.0310  104.2560 H         1 ACP402      0.0000 
     42 H8          9.6120   50.5690  101.8720 H         1 ACP402      0.0000 
     43 HN61        9.8010   54.9900  104.8230 H         1 ACP402      0.0000 
     44 HN62       10.3160   54.8250  106.4120 H         1 ACP402      0.0000 
     45 H2          7.4130   51.4920  107.9040 H         1 ACP402      0.0000 
@<TRIPOS>BOND
     1    1    2 ar   
     2    1    3 ar   
     3    1    4 ar   
     4    1    8 1    
     5    5    6 ar   
     6    5    7 ar   
     7    5    8 1    
     8    5   12 1    
     9    8   32 1    
    10    8   33 1    
    11    9   10 ar   
    12    9   11 ar   
    13    9   12 1    
    14    9   13 1    
    15   13   14 1    
    16   14   15 1    
    17   14   34 1    
    18   14   35 1    
    19   15   16 1    
    20   15   17 1    
    21   15   36 1    
    22   16   21 1    
    23   17   18 1    
    24   17   19 1    
    25   17   37 1    
    26   18   38 1    
    27   19   20 1    
    28   19   21 1    
    29   19   39 1    
    30   20   40 1    
    31   21   22 1    
    32   21   41 1    
    33   22   23 1    
    34   22   31 1    
    35   23   24 2    
    36   23   42 1    
    37   24   25 1    
    38   25   26 ar   
    39   25   31 ar   
    40   26   27 1    
    41   26   28 ar   
    42   27   43 1    
    43   27   44 1    
    44   28   29 ar   
    45   29   30 ar   
    46   29   45 1    
    47   30   31 ar   
@<TRIPOS>SUBSTRUCTURE
     1 ACP402      1 GROUP   
@<TRIPOS>SET
ATOM$ORANGE STATIC     ATOMS   COLORGROUP SYSTEM 
22 8 8 14 14 15 15 17 17 19 19 21 21 23 23 25 25 26 \
26 29 29 31 31 

