#    Name: 6knz_3_GTP
#    Modification time : Fri May 22 19:32:18 2020

@<TRIPOS>MOLECULE
6knz_3_GTP
   42    44     1     0     1
SMALL
NO_CHARGES


@<TRIPOS>ATOM
      1 PG         20.6410   18.5240  -16.8190 P.3       1 GTP501      0.0000 
      2 O1G        19.5150   18.6820  -17.8140 O.co2     1 GTP501      0.0000 
      3 O2G        21.9510   18.9590  -17.4300 O.co2     1 GTP501      0.0000 
      4 O3G        20.7690   17.0810  -16.3880 O.co2     1 GTP501      0.0000 
      5 O3B        20.3600   19.4650  -15.5400 O.3       1 GTP501      0.0000 
      6 PB         19.0000   20.3100  -15.3730 P.3       1 GTP501      0.0000 
      7 O1B        18.7130   21.0750  -16.6400 O.co2     1 GTP501      0.0000 
      8 O2B        19.1420   21.2390  -14.1900 O.co2     1 GTP501      0.0000 
      9 O3A        17.8550   19.2050  -15.1310 O.3       1 GTP501      0.0000 
     10 PA         16.3970   19.5870  -14.5540 P.3       1 GTP501      0.0000 
     11 O1A        15.3720   19.4490  -15.6530 O.co2     1 GTP501      0.0000 
     12 O2A        16.3410   20.9700  -13.9440 O.co2     1 GTP501      0.0000 
     13 O5'        16.1110   18.4270  -13.4730 O.3       1 GTP501      0.0000 
     14 C5'        14.9290   17.6660  -13.5960 C.3       1 GTP501      0.0000 
     15 C4'        14.1400   17.7610  -12.2980 C.3       1 GTP501      0.0000 
     16 O4'        13.6960   19.1030  -12.0920 O.3       1 GTP501      0.0000 
     17 C3'        12.8690   16.9280  -12.1910 C.3       1 GTP501      0.0000 
     18 O3'        12.7750   16.4960  -10.8490 O.3       1 GTP501      0.0000 
     19 C2'        11.6880   17.8350  -12.5000 C.3       1 GTP501      0.0000 
     20 O2'        10.5750   17.5270  -11.7000 O.3       1 GTP501      0.0000 
     21 C1'        12.2620   19.2170  -12.1670 C.3       1 GTP501      0.0000 
     22 N9         11.9320   20.3270  -13.0850 N.pl3     1 GTP501      0.0000 
     23 C8         12.3970   20.5790  -14.3520 C.2       1 GTP501      0.0000 
     24 N7         11.8300   21.7360  -14.7820 N.2       1 GTP501      0.0000 
     25 C5         11.0260   22.2270  -13.8050 C.2       1 GTP501      0.0000 
     26 C6         10.2130   23.3520  -13.7070 C.2       1 GTP501      0.0000 
     27 O6         10.1350   24.1420  -14.6450 O.2       1 GTP501      0.0000 
     28 N1          9.5020   23.5850  -12.5480 N.am      1 GTP501      0.0000 
     29 C2          9.5900   22.7000  -11.4930 C.2       1 GTP501      0.0000 
     30 N2          8.9040   22.9150  -10.3730 N.pl3     1 GTP501      0.0000 
     31 N3         10.3920   21.5860  -11.6020 N.2       1 GTP501      0.0000 
     32 C4         11.0980   21.3550  -12.7330 C.2       1 GTP501      0.0000 
     33 H4'        14.8570   17.3880  -11.5670 H         1 GTP501      0.0000 
     34 H3'        12.8770   16.0770  -12.8710 H         1 GTP501      0.0000 
     35 HO3'       11.9120   16.0540  -10.7080 H         1 GTP501      0.0000 
     36 H2'        11.3140   17.7440  -13.5190 H         1 GTP501      0.0000 
     37 HO2'       10.1660   18.3570  -11.3760 H         1 GTP501      0.0000 
     38 H1'        11.7770   19.4780  -11.2270 H         1 GTP501      0.0000 
     39 H8         13.0970   19.9610  -14.9140 H         1 GTP501      0.0000 
     40 HN1         8.8990   24.4290  -12.4700 H         1 GTP501      0.0000 
     41 HN21        8.9730   22.2580   -9.6020 H         1 GTP501      0.0000 
     42 HN22        8.3120   23.7350  -10.2890 H         1 GTP501      0.0000 
@<TRIPOS>BOND
     1    1    2 ar   
     2    1    3 ar   
     3    1    4 ar   
     4    1    5 1    
     5    5    6 1    
     6    6    7 ar   
     7    6    8 ar   
     8    6    9 1    
     9    9   10 1    
    10   10   11 ar   
    11   10   12 ar   
    12   10   13 1    
    13   13   14 1    
    14   14   15 1    
    15   15   16 1    
    16   15   17 1    
    17   15   33 1    
    18   16   21 1    
    19   17   18 1    
    20   17   19 1    
    21   17   34 1    
    22   18   35 1    
    23   19   20 1    
    24   19   21 1    
    25   19   36 1    
    26   20   37 1    
    27   21   22 1    
    28   21   38 1    
    29   22   23 1    
    30   22   32 1    
    31   23   24 2    
    32   23   39 1    
    33   24   25 1    
    34   25   26 1    
    35   25   32 2    
    36   26   27 2    
    37   26   28 am   
    38   28   29 1    
    39   28   40 1    
    40   29   30 1    
    41   29   31 2    
    42   30   41 1    
    43   30   42 1    
    44   31   32 1    
@<TRIPOS>SUBSTRUCTURE
     1 GTP501      1 GROUP   
@<TRIPOS>SET
ATOM$ORANGE STATIC     ATOMS   COLORGROUP SYSTEM 
20 14 14 15 15 17 17 19 19 21 21 23 23 25 25 26 26 29 \
29 32 32 

