#    Name: 6knz_3_GTP_CAVITY_N1_ALL
#    Modification time : Fri May 22 19:32:20 2020

@<TRIPOS>MOLECULE
6knz_3_GTP_CAVITY_N1_ALL
   70     0     6     0     0
SMALL
NO_CHARGES


@<TRIPOS>ATOM
      1 OG          7.9000   14.0100  -19.1200 O.3       1 SER1        0.0000 
      2 OG          7.2500   12.8300  -18.4600 O.3       1 SER1        0.0000 
      3 OG          5.9100   13.4700  -18.6500 O.3       1 SER1        0.0000 
      4 OG          6.0400   14.1400  -17.3100 O.3       1 SER1        0.0000 
      5 OG         10.8100   17.0900  -17.5800 O.3       1 SER1        0.0000 
      6 OG         10.1600   15.9100  -16.9200 O.3       1 SER1        0.0000 
      7 OG          8.8100   16.5400  -17.1100 O.3       1 SER1        0.0000 
      8 OG          6.8200   16.0000  -16.6400 O.3       1 SER1        0.0000 
      9 N           5.6000   15.1200  -22.8200 N.am      2 ALA2        0.0000 
     10 N           4.2600   15.7500  -23.0100 N.am      2 ALA2        0.0000 
     11 O           6.3000   13.3000  -21.9700 O.2       2 ALA2        0.0000 
     12 N           4.9500   13.9400  -22.1700 N.am      2 ALA2        0.0000 
     13 O           7.0800   15.1600  -21.3000 O.2       2 ALA2        0.0000 
     14 N           4.3900   16.4300  -21.6800 N.am      2 ALA2        0.0000 
     15 N           7.7700   13.3400  -20.4500 N.am      2 ALA2        0.0000 
     16 N           5.7800   12.7900  -19.9800 N.am      2 ALA2        0.0000 
     17 N           5.1300   11.6100  -19.3200 N.am      2 ALA2        0.0000 
     18 O           8.5500   15.1900  -19.7800 O.2       2 ALA2        0.0000 
     19 N           4.5200   17.1000  -20.3500 N.am      2 ALA2        0.0000 
     20 N           3.1700   17.7300  -20.5400 N.am      2 ALA2        0.0000 
     21 N          10.6800   16.4100  -18.9100 N.am      2 ALA2        0.0000 
     22 N           3.9500   19.5900  -19.8600 N.am      2 ALA2        0.0000 
     23 N           8.6800   15.8700  -18.4400 N.am      2 ALA2        0.0000 
     24 N           4.6500   17.7700  -19.0100 N.am      2 ALA2        0.0000 
     25 O           5.4300   19.6300  -18.3400 O.2       2 ALA2        0.0000 
     26 N           2.7800   17.9000  -17.2100 N.am      2 ALA2        0.0000 
     27 O           4.9000   19.1200  -16.3400 O.2       2 ALA2        0.0000 
     28 OD1         5.2600   12.2900  -17.9900 O.co2     3 ASP3        0.0000 
     29 OD1         3.9900   16.5900  -18.3500 O.co2     3 ASP3        0.0000 
     30 OD1         4.6900   14.7800  -17.5000 O.co2     3 ASP3        0.0000 
     31 OD1         5.4700   16.6300  -16.8300 O.co2     3 ASP3        0.0000 
     32 OD1         4.1200   17.2700  -17.0200 O.co2     3 ASP3        0.0000 
     33 OD1         4.8200   15.4500  -16.1700 O.co2     3 ASP3        0.0000 
     34 CZ          6.7700   18.9900  -18.1500 C.ar      4 PHE5        0.0000 
     35 CZ          7.4700   17.1800  -17.3000 C.ar      4 PHE5        0.0000 
     36 CZ          6.1200   17.8100  -17.4900 C.ar      4 PHE5        0.0000 
     37 CZ          6.2500   18.4800  -16.1500 C.ar      4 PHE5        0.0000 
     38 CA          3.6100   14.5700  -22.3600 C.3       5 GLY6        0.0000 
     39 CA          4.3000   12.7600  -21.5100 C.3       5 GLY6        0.0000 
     40 CA          5.7300   15.7900  -21.4900 C.3       5 GLY6        0.0000 
     41 CA          5.0800   14.6100  -20.8300 C.3       5 GLY6        0.0000 
     42 CA          3.7400   15.2500  -21.0200 C.3       5 GLY6        0.0000 
     43 CA          4.4300   13.4300  -20.1700 C.3       5 GLY6        0.0000 
     44 CA          9.9000   14.5600  -19.5800 C.3       5 GLY6        0.0000 
     45 CA          7.2100   15.8300  -19.9700 C.3       5 GLY6        0.0000 
     46 CA          5.8600   16.4600  -20.1600 C.3       5 GLY6        0.0000 
     47 CA          9.2500   13.3800  -18.9300 C.3       5 GLY6        0.0000 
     48 CA          5.2100   15.2800  -19.5000 C.3       5 GLY6        0.0000 
     49 CA          3.8700   15.9200  -19.6900 C.3       5 GLY6        0.0000 
     50 CA          2.5200   16.5500  -19.8800 C.3       5 GLY6        0.0000 
     51 CA          4.5600   14.1000  -18.8400 C.3       5 GLY6        0.0000 
     52 CA         12.0200   15.7800  -18.7200 C.3       5 GLY6        0.0000 
     53 CA          5.3000   18.9500  -19.6700 C.3       5 GLY6        0.0000 
     54 CA         10.0300   15.2300  -18.2500 C.3       5 GLY6        0.0000 
     55 CA          7.3400   16.5000  -18.6300 C.3       5 GLY6        0.0000 
     56 CA          5.9900   17.1400  -18.8200 C.3       5 GLY6        0.0000 
     57 CA          3.3000   18.4100  -19.2000 C.3       5 GLY6        0.0000 
     58 CA          9.3800   14.0500  -17.5900 C.3       5 GLY6        0.0000 
     59 CA          8.0300   14.6900  -17.7800 C.3       5 GLY6        0.0000 
     60 CA          2.6500   17.2300  -18.5400 C.3       5 GLY6        0.0000 
     61 CA          4.7700   18.4500  -17.6800 C.3       5 GLY6        0.0000 
     62 CA          3.4300   19.0800  -17.8700 C.3       5 GLY6        0.0000 
     63 CA          8.1600   15.3600  -16.4500 C.3       5 GLY6        0.0000 
     64 CA          6.1600   14.8200  -15.9800 C.3       5 GLY6        0.0000 
     65 CA          6.9400   16.6700  -15.3000 C.3       5 GLY6        0.0000 
     66 CA          5.6000   17.3000  -15.4900 C.3       5 GLY6        0.0000 
     67 DU          6.4300   13.9800  -20.6400 H         6 CUB7        0.0000 
     68 DU          6.5600   14.6500  -19.3100 H         6 CUB7        0.0000 
     69 DU          6.6900   15.3200  -17.9700 H         6 CUB7        0.0000 
     70 DU          5.3400   15.9600  -18.1600 H         6 CUB7        0.0000 
@<TRIPOS>BOND
@<TRIPOS>SUBSTRUCTURE
     1 SER1        1 GROUP   
     2 ALA2        9 GROUP   
     3 ASP3       28 GROUP   
     4 PHE5       34 GROUP   
     5 GLY6       38 GROUP   
     6 CUB7       67 GROUP   
@<TRIPOS>SET

