#    Name: 6knz_3_GTP_CAVITY_N1_6
#    Modification time : Fri May 22 19:32:20 2020

@<TRIPOS>MOLECULE
6knz_3_GTP_CAVITY_N1_6
    6     0     2     0     0
SMALL
NO_CHARGES


@<TRIPOS>ATOM
      1 OG         10.8100   17.0900  -17.5800 O.3       1 SER1        0.0000 
      2 OG         10.1600   15.9100  -16.9200 O.3       1 SER1        0.0000 
      3 OG          8.8100   16.5400  -17.1100 O.3       1 SER1        0.0000 
      4 CA         12.0200   15.7800  -18.7200 C.3       2 GLY6        0.0000 
      5 CA          8.1600   15.3600  -16.4500 C.3       2 GLY6        0.0000 
      6 CA          6.9400   16.6700  -15.3000 C.3       2 GLY6        0.0000 
@<TRIPOS>BOND
@<TRIPOS>SUBSTRUCTURE
     1 SER1        1 GROUP   
     2 GLY6        4 GROUP   
@<TRIPOS>SET

