#    Name: 6knz_4_GTP
#    Modification time : Fri May 22 19:32:24 2020

@<TRIPOS>MOLECULE
6knz_4_GTP
   42    44     1     0     1
SMALL
NO_CHARGES


@<TRIPOS>ATOM
      1 PG         26.9140  -11.9250  -44.6840 P.3       1 GTP503      0.0000 
      2 O1G        27.8680  -13.0730  -44.4340 O.co2     1 GTP503      0.0000 
      3 O2G        25.6200  -12.4820  -45.2430 O.co2     1 GTP503      0.0000 
      4 O3G        27.5290  -10.9420  -45.6590 O.co2     1 GTP503      0.0000 
      5 O3B        26.6450  -11.1770  -43.2770 O.3       1 GTP503      0.0000 
      6 PB         25.2320  -10.4530  -43.0170 P.3       1 GTP503      0.0000 
      7 O1B        25.3920   -9.4460  -41.9010 O.co2     1 GTP503      0.0000 
      8 O2B        24.6850   -9.8160  -44.2720 O.co2     1 GTP503      0.0000 
      9 O3A        24.3070  -11.6810  -42.5450 O.3       1 GTP503      0.0000 
     10 PA         22.7040  -11.5840  -42.5170 P.3       1 GTP503      0.0000 
     11 O1A        22.2590  -10.1450  -42.3910 O.co2     1 GTP503      0.0000 
     12 O2A        22.1190  -12.2510  -43.7370 O.co2     1 GTP503      0.0000 
     13 O5'        22.3220  -12.4320  -41.2060 O.3       1 GTP503      0.0000 
     14 C5'        21.5830  -13.6310  -41.3020 C.3       1 GTP503      0.0000 
     15 C4'        20.6500  -13.7150  -40.1030 C.3       1 GTP503      0.0000 
     16 O4'        19.9020  -12.5070  -39.9810 O.3       1 GTP503      0.0000 
     17 C3'        19.6060  -14.8200  -40.1460 C.3       1 GTP503      0.0000 
     18 O3'        19.5430  -15.3920  -38.8600 O.3       1 GTP503      0.0000 
     19 C2'        18.2630  -14.1770  -40.4550 C.3       1 GTP503      0.0000 
     20 O2'        17.2590  -14.7210  -39.6320 O.3       1 GTP503      0.0000 
     21 C1'        18.4920  -12.6890  -40.1810 C.3       1 GTP503      0.0000 
     22 N9         18.0250  -11.7490  -41.2190 N.pl3     1 GTP503      0.0000 
     23 C8         18.5350  -11.5240  -42.4690 C.2       1 GTP503      0.0000 
     24 N7         17.7960  -10.5580  -43.0670 N.2       1 GTP503      0.0000 
     25 C5         16.8330  -10.1560  -42.2090 C.2       1 GTP503      0.0000 
     26 C6         15.8180   -9.2130  -42.2950 C.2       1 GTP503      0.0000 
     27 O6         15.6720   -8.5460  -43.3190 O.2       1 GTP503      0.0000 
     28 N1         14.9710   -9.0310  -41.2160 N.am      1 GTP503      0.0000 
     29 C2         15.1280   -9.7750  -40.0610 C.2       1 GTP503      0.0000 
     30 N2         14.3080   -9.5940  -39.0260 N.pl3     1 GTP503      0.0000 
     31 N3         16.1390  -10.7080  -39.9870 N.2       1 GTP503      0.0000 
     32 C4         16.9720  -10.8910  -41.0410 C.2       1 GTP503      0.0000 
     33 H4'        21.3260  -13.9100  -39.2700 H         1 GTP503      0.0000 
     34 H3'        19.8520  -15.5770  -40.8910 H         1 GTP503      0.0000 
     35 HO3'       18.6060  -15.5470  -38.6180 H         1 GTP503      0.0000 
     36 H2'        17.9200  -14.3510  -41.4750 H         1 GTP503      0.0000 
     37 HO2'       16.3780  -14.4850  -39.9920 H         1 GTP503      0.0000 
     38 H1'        17.8810  -12.4600  -39.3070 H         1 GTP503      0.0000 
     39 H8         19.3920  -12.0350  -42.9090 H         1 GTP503      0.0000 
     40 HN1        14.2090   -8.3260  -41.2740 H         1 GTP503      0.0000 
     41 HN21       14.4270  -10.1450  -38.1820 H         1 GTP503      0.0000 
     42 HN22       13.5640   -8.9060  -39.0820 H         1 GTP503      0.0000 
@<TRIPOS>BOND
     1    1    2 ar   
     2    1    3 ar   
     3    1    4 ar   
     4    1    5 1    
     5    5    6 1    
     6    6    7 ar   
     7    6    8 ar   
     8    6    9 1    
     9    9   10 1    
    10   10   11 ar   
    11   10   12 ar   
    12   10   13 1    
    13   13   14 1    
    14   14   15 1    
    15   15   16 1    
    16   15   17 1    
    17   15   33 1    
    18   16   21 1    
    19   17   18 1    
    20   17   19 1    
    21   17   34 1    
    22   18   35 1    
    23   19   20 1    
    24   19   21 1    
    25   19   36 1    
    26   20   37 1    
    27   21   22 1    
    28   21   38 1    
    29   22   23 1    
    30   22   32 1    
    31   23   24 2    
    32   23   39 1    
    33   24   25 1    
    34   25   26 1    
    35   25   32 2    
    36   26   27 2    
    37   26   28 am   
    38   28   29 1    
    39   28   40 1    
    40   29   30 1    
    41   29   31 2    
    42   30   41 1    
    43   30   42 1    
    44   31   32 1    
@<TRIPOS>SUBSTRUCTURE
     1 GTP503      1 GROUP   
@<TRIPOS>SET
ATOM$ORANGE STATIC     ATOMS   COLORGROUP SYSTEM 
20 14 14 15 15 17 17 19 19 21 21 23 23 25 25 26 26 29 \
29 32 32 

