#    Name: 5zw2_1_FAD
#    Modification time : Fri May 22 19:26:20 2020

@<TRIPOS>MOLECULE
5zw2_1_FAD
   53    58     1     0     1
SMALL
NO_CHARGES


@<TRIPOS>ATOM
      1 PA          2.6020   19.0760   14.6010 P.3       1 FAD501      0.0000 
      2 O1A         1.3940   19.6930   15.2250 O.co2     1 FAD501      0.0000 
      3 O2A         3.6690   19.9280   14.0930 O.co2     1 FAD501      0.0000 
      4 O5B         2.1510   18.0320   13.3470 O.3       1 FAD501      0.0000 
      5 C5B         0.7810   17.5860   13.4010 C.3       1 FAD501      0.0000 
      6 C4B         0.5420   16.9820   11.9590 C.3       1 FAD501      0.0000 
      7 O4B         0.6020   17.9880   11.0450 O.3       1 FAD501      0.0000 
      8 C3B         1.6730   15.9950   11.6150 C.3       1 FAD501      0.0000 
      9 O3B         1.1290   14.9130   10.7850 O.3       1 FAD501      0.0000 
     10 C2B         2.5420   16.8940   10.7350 C.3       1 FAD501      0.0000 
     11 O2B         3.3970   16.0130    9.8790 O.3       1 FAD501      0.0000 
     12 C1B         1.6540   17.6120   10.0000 C.3       1 FAD501      0.0000 
     13 N9A         2.2420   18.8560    9.4830 N.pl3     1 FAD501      0.0000 
     14 C8A         2.6830   19.9490   10.1970 C.2       1 FAD501      0.0000 
     15 N7A         3.2250   20.8340    9.3590 N.2       1 FAD501      0.0000 
     16 C5A         3.1460   20.2520    8.1010 C.ar      1 FAD501      0.0000 
     17 C6A         3.5370   20.6830    6.8790 C.ar      1 FAD501      0.0000 
     18 N6A         4.2310   21.8900    6.5130 N.pl3     1 FAD501      0.0000 
     19 N1A         3.3750   19.9180    5.7900 N.ar      1 FAD501      0.0000 
     20 C2A         2.7730   18.6910    5.9070 C.ar      1 FAD501      0.0000 
     21 N3A         2.3500   18.2680    7.1140 N.ar      1 FAD501      0.0000 
     22 C4A         2.5450   19.0370    8.1940 C.ar      1 FAD501      0.0000 
     23 N1         11.0920   18.1570   21.2060 N.2       1 FAD501      0.0000 
     24 C2         12.1370   18.8650   21.8860 C.2       1 FAD501      0.0000 
     25 O2         12.3150   20.0530   21.7620 O.2       1 FAD501      0.0000 
     26 N3         13.0120   18.0450   22.7010 N.am      1 FAD501      0.0000 
     27 C4         12.8890   16.6350   22.9440 C.2       1 FAD501      0.0000 
     28 O4         13.6220   15.9680   23.6350 O.2       1 FAD501      0.0000 
     29 C4X        11.8260   15.9600   22.1760 C.2       1 FAD501      0.0000 
     30 N5         11.7330   14.5870   22.3420 N.2       1 FAD501      0.0000 
     31 C5X        10.5920   13.9020   21.7170 C.ar      1 FAD501      0.0000 
     32 C6         10.4860   12.5170   21.9130 C.ar      1 FAD501      0.0000 
     33 C7          9.4430   11.8930   21.2350 C.ar      1 FAD501      0.0000 
     34 C7M         9.3470   10.3840   21.4680 C.3       1 FAD501      0.0000 
     35 C8          8.5130   12.6500   20.4680 C.ar      1 FAD501      0.0000 
     36 C8M         7.3260   11.8470   19.7350 C.3       1 FAD501      0.0000 
     37 C9          8.6200   13.9950   20.2810 C.ar      1 FAD501      0.0000 
     38 C9A         9.6920   14.6470   20.9300 C.ar      1 FAD501      0.0000 
     39 N10         9.8630   16.0820   20.7130 N.pl3     1 FAD501      0.0000 
     40 C10        10.9150   16.7460   21.3680 C.2       1 FAD501      0.0000 
     41 C1'         8.8720   16.8250   19.9490 C.3       1 FAD501      0.0000 
     42 C2'         8.9920   16.6660   18.4100 C.3       1 FAD501      0.0000 
     43 O2'        10.0020   17.4980   18.0240 O.3       1 FAD501      0.0000 
     44 C3'         7.6730   17.1790   17.8540 C.3       1 FAD501      0.0000 
     45 O3'         6.7130   16.1920   18.2570 O.3       1 FAD501      0.0000 
     46 C4'         7.8070   17.2420   16.3120 C.3       1 FAD501      0.0000 
     47 O4'         8.5710   18.4120   15.9930 O.3       1 FAD501      0.0000 
     48 C5'         6.4380   17.3610   15.6920 C.3       1 FAD501      0.0000 
     49 O5'         5.7030   18.5200   16.2730 O.3       1 FAD501      0.0000 
     50 P           4.2530   18.3530   16.8920 P.3       1 FAD501      0.0000 
     51 O1P         4.1830   17.1310   17.6960 O.co2     1 FAD501      0.0000 
     52 O2P         3.7670   19.5860   17.5090 O.co2     1 FAD501      0.0000 
     53 O3P         3.2950   17.9490   15.5670 O.3       1 FAD501      0.0000 
@<TRIPOS>BOND
     1    1    2 ar   
     2    1    3 ar   
     3    1    4 1    
     4    1   53 1    
     5    4    5 1    
     6    5    6 1    
     7    6    7 1    
     8    6    8 1    
     9    7   12 1    
    10    8    9 1    
    11    8   10 1    
    12   10   11 1    
    13   10   12 1    
    14   12   13 1    
    15   13   14 1    
    16   13   22 1    
    17   14   15 2    
    18   15   16 1    
    19   16   17 ar   
    20   16   22 ar   
    21   17   18 1    
    22   17   19 ar   
    23   19   20 ar   
    24   20   21 ar   
    25   21   22 ar   
    26   23   24 1    
    27   23   40 2    
    28   24   25 2    
    29   24   26 am   
    30   26   27 am   
    31   27   28 2    
    32   27   29 1    
    33   29   30 2    
    34   29   40 1    
    35   30   31 1    
    36   31   32 ar   
    37   31   38 ar   
    38   32   33 ar   
    39   33   34 1    
    40   33   35 ar   
    41   35   36 1    
    42   35   37 ar   
    43   37   38 ar   
    44   38   39 1    
    45   39   40 1    
    46   39   41 1    
    47   41   42 1    
    48   42   43 1    
    49   42   44 1    
    50   44   45 1    
    51   44   46 1    
    52   46   47 1    
    53   46   48 1    
    54   48   49 1    
    55   49   50 1    
    56   50   51 ar   
    57   50   52 ar   
    58   50   53 1    
@<TRIPOS>SUBSTRUCTURE
     1 FAD501      1 GROUP   
@<TRIPOS>SET
ATOM$ORANGE STATIC     ATOMS   COLORGROUP SYSTEM 
54 5 5 6 6 8 8 10 10 12 12 14 14 16 16 17 17 20 \
20 22 22 24 24 27 27 29 29 31 31 32 32 33 33 34 34 35 \
35 36 36 37 37 38 38 40 40 41 41 42 42 44 44 46 46 48 \
48 

