#    Name: 6fbn_1_SAM
#    Modification time : Fri May 22 19:29:34 2020

@<TRIPOS>MOLECULE
6fbn_1_SAM
   27    29     1     0     0
SMALL
NO_CHARGES


@<TRIPOS>ATOM
      1 N         -25.1050   14.1900  -10.3170 N.4       1 SAM401      0.0000 
      2 CA        -25.9740   15.2070  -10.8090 C.3       1 SAM401      0.0000 
      3 C         -27.3750   14.8480  -10.4600 C.2       1 SAM401      0.0000 
      4 O         -27.5970   14.0610   -9.5300 O.co2     1 SAM401      0.0000 
      5 OXT       -28.2820   15.3720  -11.1000 O.co2     1 SAM401      0.0000 
      6 CB        -25.7690   15.2850  -12.3160 C.3       1 SAM401      0.0000 
      7 CG        -25.3490   16.6310  -12.8970 C.3       1 SAM401      0.0000 
      8 SD        -24.4190   17.7170  -12.0010 S.3       1 SAM401      0.0000 
      9 CE        -25.2120   19.1500  -12.2200 C.3       1 SAM401      0.0000 
     10 C5'       -22.8640   17.7420  -12.6090 C.3       1 SAM401      0.0000 
     11 C4'       -21.9680   18.9550  -12.4090 C.3       1 SAM401      0.0000 
     12 O4'       -22.6730   20.1690  -12.3310 O.3       1 SAM401      0.0000 
     13 C3'       -21.1700   18.9120  -11.1270 C.3       1 SAM401      0.0000 
     14 O3'       -19.9320   18.2690  -11.3210 O.3       1 SAM401      0.0000 
     15 C2'       -20.9670   20.3530  -10.7450 C.3       1 SAM401      0.0000 
     16 O2'       -19.7300   20.8950  -11.1480 O.3       1 SAM401      0.0000 
     17 C1'       -22.0770   21.0780  -11.4430 C.3       1 SAM401      0.0000 
     18 N9        -23.0550   21.4270  -10.4230 N.pl3     1 SAM401      0.0000 
     19 C8        -23.2700   20.7390   -9.2960 C.2       1 SAM401      0.0000 
     20 N7        -24.2340   21.2890   -8.5560 N.2       1 SAM401      0.0000 
     21 C5        -24.6420   22.3560   -9.2030 C.ar      1 SAM401      0.0000 
     22 C6        -25.6350   23.3910   -8.9840 C.ar      1 SAM401      0.0000 
     23 N6        -26.3950   23.3990   -7.9060 N.pl3     1 SAM401      0.0000 
     24 N1        -25.7660   24.3330   -9.9040 N.ar      1 SAM401      0.0000 
     25 C2        -25.0160   24.3470  -11.0000 C.ar      1 SAM401      0.0000 
     26 N3        -24.0920   23.4370  -11.2760 N.ar      1 SAM401      0.0000 
     27 C4        -23.8700   22.4380  -10.4380 C.ar      1 SAM401      0.0000 
@<TRIPOS>BOND
     1    1    2 1    
     2    2    3 1    
     3    2    6 1    
     4    3    4 ar   
     5    3    5 ar   
     6    6    7 1    
     7    7    8 1    
     8    8    9 1    
     9    8   10 1    
    10   10   11 1    
    11   11   12 1    
    12   11   13 1    
    13   12   17 1    
    14   13   14 1    
    15   13   15 1    
    16   15   16 1    
    17   15   17 1    
    18   17   18 1    
    19   18   19 1    
    20   18   27 1    
    21   19   20 2    
    22   20   21 1    
    23   21   22 ar   
    24   21   27 ar   
    25   22   23 1    
    26   22   24 ar   
    27   24   25 ar   
    28   25   26 ar   
    29   26   27 ar   
@<TRIPOS>SUBSTRUCTURE
     1 SAM401      1 GROUP   
@<TRIPOS>SET

