#    Name: 6gmz_1_ALA_HIS_HIS_ALA_CAVITY_N1_4
#    Modification time : Fri May 22 19:26:59 2020

@<TRIPOS>MOLECULE
6gmz_1_ALA_HIS_HIS_ALA_CAVITY_N1_4
   43     0     5     0     0
SMALL
NO_CHARGES


@<TRIPOS>ATOM
      1 OG        -20.9000   21.8300  -13.0500 O.3       1 SER1        0.0000 
      2 OG        -19.9300   20.9000  -13.7100 O.3       1 SER1        0.0000 
      3 OG        -20.0800   19.9400  -12.5700 O.3       1 SER1        0.0000 
      4 OG        -18.9400   20.6100  -11.8600 O.3       1 SER1        0.0000 
      5 OG        -17.8200   20.6400  -13.6600 O.3       1 SER1        0.0000 
      6 OG        -17.9700   19.6800  -12.5200 O.3       1 SER1        0.0000 
      7 OG        -19.4600   25.0700  -12.0900 O.3       1 SER1        0.0000 
      8 OG        -19.6000   24.1100  -10.9500 O.3       1 SER1        0.0000 
      9 OG        -18.4800   24.1400  -12.7600 O.3       1 SER1        0.0000 
     10 OG        -18.6300   23.1800  -11.6200 O.3       1 SER1        0.0000 
     11 OG        -17.6600   22.2500  -12.2800 O.3       1 SER1        0.0000 
     12 OG        -17.8100   21.2800  -11.1400 O.3       1 SER1        0.0000 
     13 OG        -17.9600   20.3200  -10.0000 O.3       1 SER1        0.0000 
     14 OG        -16.5400   22.2800  -14.0800 O.3       1 SER1        0.0000 
     15 OG        -16.6900   21.3100  -12.9400 O.3       1 SER1        0.0000 
     16 OG        -15.5700   21.3500  -14.7400 O.3       1 SER1        0.0000 
     17 OG        -16.5300   22.9200  -11.5600 O.3       1 SER1        0.0000 
     18 OG        -16.6800   21.9500  -10.4200 O.3       1 SER1        0.0000 
     19 OG        -15.5600   21.9900  -12.2200 O.3       1 SER1        0.0000 
     20 OG        -15.5400   22.6300   -9.7100 O.3       1 SER1        0.0000 
     21 OD1       -21.7100   24.3700  -11.0100 O.co2     2 ASP3        0.0000 
     22 OD1       -14.2900   22.9800  -15.1600 O.co2     2 ASP3        0.0000 
     23 OD1       -13.1500   23.6600  -14.4500 O.co2     2 ASP3        0.0000 
     24 CZ        -17.3600   24.1700  -14.5600 C.ar      3 PHE5        0.0000 
     25 CZ        -17.5100   23.2100  -13.4200 C.ar      3 PHE5        0.0000 
     26 CZ        -15.2600   23.9100  -14.5000 C.ar      3 PHE5        0.0000 
     27 CZ        -15.4100   22.9500  -13.3600 C.ar      3 PHE5        0.0000 
     28 CZ        -14.4400   22.0200  -14.0200 C.ar      3 PHE5        0.0000 
     29 CZ        -15.3900   23.5900  -10.8400 C.ar      3 PHE5        0.0000 
     30 CZ        -14.1300   24.5900  -13.7900 C.ar      3 PHE5        0.0000 
     31 CZ        -14.2700   23.6200  -12.6500 C.ar      3 PHE5        0.0000 
     32 CZ        -14.4200   22.6600  -11.5100 C.ar      3 PHE5        0.0000 
     33 CZ        -13.3000   22.6900  -13.3100 C.ar      3 PHE5        0.0000 
     34 CZ        -13.1400   24.3000  -11.9300 C.ar      3 PHE5        0.0000 
     35 CZ        -12.3200   22.4000  -11.4500 C.ar      3 PHE5        0.0000 
     36 CA        -15.4200   22.3100  -15.8800 C.3       4 GLY6        0.0000 
     37 CA        -12.1700   23.3600  -12.5900 C.3       4 GLY6        0.0000 
     38 DU        -20.7400   23.4400  -11.6700 H         5 CUB7        0.0000 
     39 DU        -19.6200   23.4700  -13.4700 H         5 CUB7        0.0000 
     40 DU        -19.7700   22.5100  -12.3300 H         5 CUB7        0.0000 
     41 DU        -18.6500   22.5400  -14.1300 H         5 CUB7        0.0000 
     42 DU        -18.7900   21.5700  -12.9900 H         5 CUB7        0.0000 
     43 DU        -16.3900   23.2400  -15.2200 H         5 CUB7        0.0000 
@<TRIPOS>BOND
@<TRIPOS>SUBSTRUCTURE
     1 SER1        1 GROUP   
     2 ASP3       21 GROUP   
     3 PHE5       24 GROUP   
     4 GLY6       36 GROUP   
     5 CUB7       38 GROUP   
@<TRIPOS>SET

