#    Name: 6gmz_1_ALA_HIS_HIS_ALA_CAVITY_N1_8
#    Modification time : Fri May 22 19:26:59 2020

@<TRIPOS>MOLECULE
6gmz_1_ALA_HIS_HIS_ALA_CAVITY_N1_8
   73     0     6     0     0
SMALL
NO_CHARGES


@<TRIPOS>ATOM
      1 OG        -21.8800   22.1300  -14.9100 O.3       1 SER1        0.0000 
      2 OG        -22.0300   21.1600  -13.7700 O.3       1 SER1        0.0000 
      3 OG        -20.6000   23.7600  -15.3300 O.3       1 SER1        0.0000 
      4 OG        -20.7500   22.8000  -14.1900 O.3       1 SER1        0.0000 
      5 OG        -20.9000   21.8300  -13.0500 O.3       1 SER1        0.0000 
      6 OG        -19.7800   21.8700  -14.8500 O.3       1 SER1        0.0000 
      7 OG        -19.9300   20.9000  -13.7100 O.3       1 SER1        0.0000 
      8 OG        -20.0800   19.9400  -12.5700 O.3       1 SER1        0.0000 
      9 OG        -18.6600   21.9000  -16.6500 O.3       1 SER1        0.0000 
     10 OG        -18.8100   20.9300  -15.5100 O.3       1 SER1        0.0000 
     11 OG        -19.4700   24.4300  -14.6100 O.3       1 SER1        0.0000 
     12 OG        -18.5000   23.5000  -15.2700 O.3       1 SER1        0.0000 
     13 OG        -18.9400   20.6100  -11.8600 O.3       1 SER1        0.0000 
     14 OG        -17.3800   23.5300  -17.0700 O.3       1 SER1        0.0000 
     15 OG        -17.5300   22.5700  -15.9400 O.3       1 SER1        0.0000 
     16 OG        -17.6700   21.6100  -14.8000 O.3       1 SER1        0.0000 
     17 OG        -17.8200   20.6400  -13.6600 O.3       1 SER1        0.0000 
     18 OG        -17.9700   19.6800  -12.5200 O.3       1 SER1        0.0000 
     19 OG        -16.8500   19.7100  -14.3200 O.3       1 SER1        0.0000 
     20 OG        -19.4600   25.0700  -12.0900 O.3       1 SER1        0.0000 
     21 OG        -19.6000   24.1100  -10.9500 O.3       1 SER1        0.0000 
     22 OG        -18.4800   24.1400  -12.7600 O.3       1 SER1        0.0000 
     23 OG        -18.6300   23.1800  -11.6200 O.3       1 SER1        0.0000 
     24 OG        -17.6600   22.2500  -12.2800 O.3       1 SER1        0.0000 
     25 OG        -17.8100   21.2800  -11.1400 O.3       1 SER1        0.0000 
     26 OG        -17.9600   20.3200  -10.0000 O.3       1 SER1        0.0000 
     27 OG        -16.5400   22.2800  -14.0800 O.3       1 SER1        0.0000 
     28 OG        -16.6900   21.3100  -12.9400 O.3       1 SER1        0.0000 
     29 OG        -15.5700   21.3500  -14.7400 O.3       1 SER1        0.0000 
     30 OG        -16.5300   22.9200  -11.5600 O.3       1 SER1        0.0000 
     31 OG        -16.6800   21.9500  -10.4200 O.3       1 SER1        0.0000 
     32 OG        -15.5600   21.9900  -12.2200 O.3       1 SER1        0.0000 
     33 OG        -15.5400   22.6300   -9.7100 O.3       1 SER1        0.0000 
     34 O         -17.2200   25.1400  -15.7000 O.2       2 ALA2        0.0000 
     35 O         -16.2400   24.2100  -16.3600 O.2       2 ALA2        0.0000 
     36 OD1       -23.0000   22.0900  -13.1100 O.co2     3 ASP3        0.0000 
     37 OD1       -21.7200   23.7300  -13.5300 O.co2     3 ASP3        0.0000 
     38 OD1       -21.8700   22.7700  -12.3900 O.co2     3 ASP3        0.0000 
     39 OD1       -21.5600   25.3300  -12.1500 O.co2     3 ASP3        0.0000 
     40 OD1       -21.7100   24.3700  -11.0100 O.co2     3 ASP3        0.0000 
     41 OD1       -20.4400   25.3700  -13.9500 O.co2     3 ASP3        0.0000 
     42 OD1       -20.5900   24.4000  -12.8100 O.co2     3 ASP3        0.0000 
     43 OD1       -15.2700   23.2700  -17.0200 O.co2     3 ASP3        0.0000 
     44 OD1       -14.2900   22.9800  -15.1600 O.co2     3 ASP3        0.0000 
     45 OD1       -13.1500   23.6600  -14.4500 O.co2     3 ASP3        0.0000 
     46 CZ        -17.8400   20.0000  -16.1700 C.ar      4 PHE5        0.0000 
     47 CZ        -19.3100   26.0400  -13.2300 C.ar      4 PHE5        0.0000 
     48 CZ        -18.3400   25.1100  -13.9000 C.ar      4 PHE5        0.0000 
     49 CZ        -17.3600   24.1700  -14.5600 C.ar      4 PHE5        0.0000 
     50 CZ        -17.5100   23.2100  -13.4200 C.ar      4 PHE5        0.0000 
     51 CZ        -15.2600   23.9100  -14.5000 C.ar      4 PHE5        0.0000 
     52 CZ        -15.4100   22.9500  -13.3600 C.ar      4 PHE5        0.0000 
     53 CZ        -14.4400   22.0200  -14.0200 C.ar      4 PHE5        0.0000 
     54 CZ        -15.3900   23.5900  -10.8400 C.ar      4 PHE5        0.0000 
     55 CZ        -14.1300   24.5900  -13.7900 C.ar      4 PHE5        0.0000 
     56 CZ        -14.2700   23.6200  -12.6500 C.ar      4 PHE5        0.0000 
     57 CZ        -14.4200   22.6600  -11.5100 C.ar      4 PHE5        0.0000 
     58 CZ        -13.3000   22.6900  -13.3100 C.ar      4 PHE5        0.0000 
     59 CZ        -13.1400   24.3000  -11.9300 C.ar      4 PHE5        0.0000 
     60 CZ        -12.3200   22.4000  -11.4500 C.ar      4 PHE5        0.0000 
     61 CA        -17.6900   20.9700  -17.3100 C.3       5 GLY6        0.0000 
     62 CA        -16.4100   22.6000  -17.7400 C.3       5 GLY6        0.0000 
     63 CA        -16.5500   21.6400  -16.6000 C.3       5 GLY6        0.0000 
     64 CA        -16.7000   20.6700  -15.4600 C.3       5 GLY6        0.0000 
     65 CA        -15.4200   22.3100  -15.8800 C.3       5 GLY6        0.0000 
     66 CA        -12.1700   23.3600  -12.5900 C.3       5 GLY6        0.0000 
     67 DU        -23.1500   21.1300  -11.9700 H         6 CUB7        0.0000 
     68 DU        -20.7400   23.4400  -11.6700 H         6 CUB7        0.0000 
     69 DU        -19.6200   23.4700  -13.4700 H         6 CUB7        0.0000 
     70 DU        -19.7700   22.5100  -12.3300 H         6 CUB7        0.0000 
     71 DU        -18.6500   22.5400  -14.1300 H         6 CUB7        0.0000 
     72 DU        -18.7900   21.5700  -12.9900 H         6 CUB7        0.0000 
     73 DU        -16.3900   23.2400  -15.2200 H         6 CUB7        0.0000 
@<TRIPOS>BOND
@<TRIPOS>SUBSTRUCTURE
     1 SER1        1 GROUP   
     2 ALA2       34 GROUP   
     3 ASP3       36 GROUP   
     4 PHE5       46 GROUP   
     5 GLY6       61 GROUP   
     6 CUB7       67 GROUP   
@<TRIPOS>SET

