#    Name: 6gmz_1_ALA_HIS_HIS_ALA
#    Modification time : Fri May 22 19:26:58 2020

@<TRIPOS>MOLECULE
6gmz_1_ALA_HIS_HIS_ALA
   30    31     4     0     0
SMALL
NO_CHARGES


@<TRIPOS>ATOM
      1 N         -17.4400   26.3560   -2.2070 N.4       1 ALA1        0.0000 
      2 CA        -16.1930   27.1680   -2.4320 C.3       1 ALA1        0.0000 
      3 C         -15.3570   26.6110   -3.6130 C.2       1 ALA1        0.0000 
      4 O         -14.8870   27.4020   -4.4350 O.2       1 ALA1        0.0000 
      5 CB        -15.3580   27.2730   -1.1360 C.3       1 ALA1        0.0000 
      6 N         -15.1900   25.2750   -3.7030 N.am      2 HIS2        0.0000 
      7 CA        -14.2820   24.6350   -4.7110 C.3       2 HIS2        0.0000 
      8 C         -14.8870   24.5750   -6.1070 C.2       2 HIS2        0.0000 
      9 O         -16.0650   24.8710   -6.2910 O.2       2 HIS2        0.0000 
     10 CB        -13.8350   23.1980   -4.3080 C.3       2 HIS2        0.0000 
     11 CG        -12.9740   23.1530   -3.0950 C.2       2 HIS2        0.0000 
     12 ND1       -11.6050   23.0370   -3.1640 N.pl3     2 HIS2        0.0000 
     13 CD2       -13.2810   23.2440   -1.7750 C.2       2 HIS2        0.0000 
     14 CE1       -11.1030   23.0480   -1.9390 C.2       2 HIS2        0.0000 
     15 NE2       -12.1000   23.1750   -1.0790 N.2       2 HIS2        0.0000 
     16 N         -14.0480   24.1970   -7.0810 N.am      3 HIS3        0.0000 
     17 CA        -14.4790   23.8350   -8.4620 C.3       3 HIS3        0.0000 
     18 C         -15.6630   22.8300   -8.4290 C.2       3 HIS3        0.0000 
     19 O         -15.6270   21.8400   -7.6990 O.2       3 HIS3        0.0000 
     20 CB        -13.2730   23.2500   -9.1970 C.3       3 HIS3        0.0000 
     21 CG        -13.4130   23.1920  -10.6770 C.2       3 HIS3        0.0000 
     22 ND1       -12.3440   23.4520  -11.5130 N.pl3     3 HIS3        0.0000 
     23 CD2       -14.4660   22.8830  -11.4860 C.2       3 HIS3        0.0000 
     24 CE1       -12.7340   23.3070  -12.7760 C.2       3 HIS3        0.0000 
     25 NE2       -14.0180   22.9640  -12.7910 N.2       3 HIS3        0.0000 
     26 N         -16.7210   23.1150   -9.1710 N.am      4 ALA4        0.0000 
     27 CA        -17.9080   22.2800   -9.1600 C.3       4 ALA4        0.0000 
     28 C         -18.0760   21.5850  -10.5140 C.2       4 ALA4        0.0000 
     29 O         -18.4550   20.4090  -10.5770 O.2       4 ALA4        0.0000 
     30 CB        -19.1100   23.1300   -8.8210 C.3       4 ALA4        0.0000 
@<TRIPOS>BOND
     1    1    2 1    
     2    2    3 1    
     3    2    5 1    
     4    3    4 2    
     5    3    6 am   
     6    6    7 1    
     7    7    8 1    
     8    7   10 1    
     9    8    9 2    
    10    8   16 am   
    11   10   11 1    
    12   11   12 1    
    13   11   13 2    
    14   12   14 1    
    15   13   15 1    
    16   14   15 2    
    17   16   17 1    
    18   17   18 1    
    19   17   20 1    
    20   18   19 2    
    21   18   26 am   
    22   20   21 1    
    23   21   22 1    
    24   21   23 2    
    25   22   24 1    
    26   23   25 1    
    27   24   25 2    
    28   26   27 1    
    29   27   28 1    
    30   27   30 1    
    31   28   29 2    
@<TRIPOS>SUBSTRUCTURE
     1 ALA1        1 RESIDUE 
     2 HIS2        6 RESIDUE 
     3 HIS3       16 RESIDUE 
     4 ALA4       26 RESIDUE 
@<TRIPOS>SET

