#    Name: 6q52_1_2TM
#    Modification time : Fri May 22 19:33:58 2020

@<TRIPOS>MOLECULE
6q52_1_2TM
   29    30     1     0     0
SMALL
NO_CHARGES


@<TRIPOS>ATOM
      1 O5'        40.2230   53.5650   49.7430           1 2TM401      0.0000 
      2 C5'        40.0710   54.2130   48.4930           1 2TM401      0.0000 
      3 C4'        40.6860   55.6320   48.5330           1 2TM401      0.0000 
      4 O4'        41.2850   55.8090   49.6670           1 2TM401      0.0000 
      5 C3'        41.7710   55.8570   47.3160           1 2TM401      0.0000 
      6 O3'        41.6220   57.1730   46.6900           1 2TM401      0.0000 
      7 C2'        42.9520   55.7740   47.8570           1 2TM401      0.0000 
      8 O2'        43.8600   56.7950   47.2560           1 2TM401      0.0000 
      9 C1'        42.7520   56.1760   49.3230           1 2TM401      0.0000 
     10 C5         44.2310   53.6670   51.7380           1 2TM401      0.0000 
     11 C6         43.2400   54.3310   50.8490           1 2TM401      0.0000 
     12 N1         43.6200   55.5400   50.1250           1 2TM401      0.0000 
     13 C2         44.9940   56.1100   50.2720           1 2TM401      0.0000 
     14 N3         45.9990   55.4390   51.1720           1 2TM401      0.0000 
     15 C4         45.6220   54.2420   51.8910           1 2TM401      0.0000 
     16 O3G        39.9150   47.7400   48.2660           1 2TM401      0.0000 
     17 PG         39.8500   48.2400   46.8330           1 2TM401      0.0000 
     18 O1G        40.2120   47.1250   45.8630           1 2TM401      0.0000 
     19 O2G        38.4600   48.7200   46.5230           1 2TM401      0.0000 
     20 O3B        40.8770   49.5360   46.5950           1 2TM401      0.0000 
     21 PB         40.6910   51.0240   47.3380           1 2TM401      0.0000 
     22 O1B        41.9150   51.8960   47.1190           1 2TM401      0.0000 
     23 O2B        39.4930   51.7380   46.7350           1 2TM401      0.0000 
     24 PA         39.5220   52.0570   50.0420           1 2TM401      0.0000 
     25 O1A        38.0880   52.0200   49.5360           1 2TM401      0.0000 
     26 O2A        39.5190   51.7880   51.5270           1 2TM401      0.0000 
     27 N4         46.5630   53.5830   52.7590           1 2TM401      0.0000 
     28 O2         45.2690   57.0880   49.6700           1 2TM401      0.0000 
     29 C1         40.4830   50.6990   49.1790           1 2TM401      0.0000 
@<TRIPOS>BOND
     1    1    2 du   
     2    1   24 du   
     3    2    3 du   
     4    3    4 du   
     5    3    5 du   
     6    4    9 du   
     7    5    6 du   
     8    5    7 du   
     9    7    8 du   
    10    7    9 du   
    11    9   12 du   
    12   10   11 du   
    13   10   15 du   
    14   11   12 du   
    15   12   13 du   
    16   13   14 du   
    17   13   28 du   
    18   14   15 du   
    19   15   27 du   
    20   16   17 du   
    21   17   18 du   
    22   17   19 du   
    23   17   20 du   
    24   20   21 du   
    25   21   22 du   
    26   21   23 du   
    27   21   29 du   
    28   24   25 du   
    29   24   26 du   
    30   24   29 du   
@<TRIPOS>SUBSTRUCTURE
     1 2TM401      1 GROUP   
@<TRIPOS>SET

