#    Name: 6q52_1_2TM_CAVITY_N1_4
#    Modification time : Fri May 22 19:33:59 2020

@<TRIPOS>MOLECULE
6q52_1_2TM_CAVITY_N1_4
  111     0     7     0     0
SMALL
NO_CHARGES


@<TRIPOS>ATOM
      1 OG         38.7700   47.1300   45.0000 O.3       1 SER1        0.0000 
      2 OG         39.1300   48.5200   45.4200 O.3       1 SER1        0.0000 
      3 OG         38.1000   50.3700   45.5100 O.3       1 SER1        0.0000 
      4 OG         37.2600   49.7600   48.3300 O.3       1 SER1        0.0000 
      5 OG         39.0700   49.6100   47.2400 O.3       1 SER1        0.0000 
      6 OG         38.6500   49.3000   48.6400 O.3       1 SER1        0.0000 
      7 OG         38.0400   51.4600   47.3300 O.3       1 SER1        0.0000 
      8 OG         37.6200   51.1500   48.7400 O.3       1 SER1        0.0000 
      9 O          38.8200   53.1600   46.3400 O.2       2 ALA2        0.0000 
     10 O          39.1800   54.5600   46.7500 O.2       2 ALA2        0.0000 
     11 O          40.9900   54.4100   45.6600 O.2       2 ALA2        0.0000 
     12 O          40.5700   54.1100   47.0700 O.2       2 ALA2        0.0000 
     13 N          41.3500   55.8100   46.0800 N.am      2 ALA2        0.0000 
     14 OD1        39.1900   47.4300   43.6000 O.co2     3 ASP3        0.0000 
     15 OD1        39.7400   46.3600   46.7300 O.co2     3 ASP3        0.0000 
     16 OD1        40.5200   48.0700   45.7300 O.co2     3 ASP3        0.0000 
     17 OD1        40.1000   47.7600   47.1400 O.co2     3 ASP3        0.0000 
     18 OD1        39.6800   47.4500   48.5500 O.co2     3 ASP3        0.0000 
     19 OD1        39.4900   49.9200   45.8300 O.co2     3 ASP3        0.0000 
     20 OD1        40.8800   49.4600   46.1500 O.co2     3 ASP3        0.0000 
     21 OD1        40.4600   49.1600   47.5500 O.co2     3 ASP3        0.0000 
     22 OD1        39.8500   51.3100   46.2400 O.co2     3 ASP3        0.0000 
     23 OD1        41.2400   50.8600   46.5600 O.co2     3 ASP3        0.0000 
     24 OD1        40.8200   50.5500   47.9700 O.co2     3 ASP3        0.0000 
     25 OD1        42.2200   50.1000   48.2800 O.co2     3 ASP3        0.0000 
     26 OD1        40.6300   53.0200   45.2500 O.co2     3 ASP3        0.0000 
     27 OD1        40.2100   52.7100   46.6600 O.co2     3 ASP3        0.0000 
     28 OD1        41.6100   52.2600   46.9700 O.co2     3 ASP3        0.0000 
     29 OD1        41.1900   51.9500   48.3800 O.co2     3 ASP3        0.0000 
     30 OD1        41.9700   53.6500   47.3900 O.co2     3 ASP3        0.0000 
     31 OD1        41.5500   53.3400   48.7900 O.co2     3 ASP3        0.0000 
     32 OD1        41.1300   53.0400   50.2000 O.co2     3 ASP3        0.0000 
     33 OD1        42.5200   52.5800   50.5200 O.co2     3 ASP3        0.0000 
     34 OD1        40.9300   55.5000   47.4800 O.co2     3 ASP3        0.0000 
     35 OD1        42.3300   55.0500   47.8000 O.co2     3 ASP3        0.0000 
     36 OD1        41.9100   54.7400   49.2100 O.co2     3 ASP3        0.0000 
     37 OD1        43.3000   54.2900   49.5200 O.co2     3 ASP3        0.0000 
     38 OD1        42.8800   53.9800   50.9300 O.co2     3 ASP3        0.0000 
     39 OD1        44.2700   53.5200   51.2500 O.co2     3 ASP3        0.0000 
     40 OD1        39.4800   57.0500   48.9900 O.co2     3 ASP3        0.0000 
     41 OD1        41.2900   56.9000   47.9000 O.co2     3 ASP3        0.0000 
     42 OD1        40.8700   56.5900   49.3000 O.co2     3 ASP3        0.0000 
     43 OD1        42.6900   56.4400   48.2100 O.co2     3 ASP3        0.0000 
     44 OD1        43.6600   55.6800   49.9400 O.co2     3 ASP3        0.0000 
     45 OD1        46.0300   54.4700   51.9800 O.co2     3 ASP3        0.0000 
     46 OD1        39.4200   58.1300   50.8100 O.co2     3 ASP3        0.0000 
     47 OD1        39.0000   57.8300   52.2100 O.co2     3 ASP3        0.0000 
     48 OD1        41.2400   57.9900   49.7200 O.co2     3 ASP3        0.0000 
     49 OD1        40.8100   57.6800   51.1200 O.co2     3 ASP3        0.0000 
     50 OD1        40.3900   57.3700   52.5300 O.co2     3 ASP3        0.0000 
     51 OD1        42.6300   57.5300   50.0300 O.co2     3 ASP3        0.0000 
     52 OD1        44.0200   57.0800   50.3500 O.co2     3 ASP3        0.0000 
     53 OD1        45.4200   56.6200   50.6700 O.co2     3 ASP3        0.0000 
     54 OD1        45.0000   56.3200   52.0700 O.co2     3 ASP3        0.0000 
     55 OD1        46.3900   55.8600   52.3900 O.co2     3 ASP3        0.0000 
     56 OD1        41.6000   59.3800   50.1300 O.co2     3 ASP3        0.0000 
     57 OD1        41.1800   59.0800   51.5400 O.co2     3 ASP3        0.0000 
     58 OD1        44.3800   58.4700   50.7600 O.co2     3 ASP3        0.0000 
     59 OD1        43.9600   58.1700   52.1700 O.co2     3 ASP3        0.0000 
     60 OD1        45.3600   57.7100   52.4900 O.co2     3 ASP3        0.0000 
     61 OD1        44.9400   57.4100   53.8900 O.co2     3 ASP3        0.0000 
     62 OD1        44.7500   59.8700   51.1800 O.co2     3 ASP3        0.0000 
     63 OD1        44.3200   59.5600   52.5800 O.co2     3 ASP3        0.0000 
     64 NZ         37.0000   53.3100   47.4300 N.4       4 LYS4        0.0000 
     65 NZ         36.5800   53.0000   48.8400 N.4       4 LYS4        0.0000 
     66 NZ         38.4000   52.8600   47.7500 N.4       4 LYS4        0.0000 
     67 NZ         37.9800   52.5500   49.1500 N.4       4 LYS4        0.0000 
     68 NZ         38.7600   54.2500   48.1600 N.4       4 LYS4        0.0000 
     69 NZ         38.3400   53.9500   49.5700 N.4       4 LYS4        0.0000 
     70 NZ         39.1200   55.6500   48.5700 N.4       4 LYS4        0.0000 
     71 NZ         38.7000   55.3400   49.9800 N.4       4 LYS4        0.0000 
     72 NZ         38.0900   57.5000   48.6700 N.4       4 LYS4        0.0000 
     73 NZ         44.0800   55.9900   48.5300 N.4       4 LYS4        0.0000 
     74 NZ         45.0600   55.2300   50.2500 N.4       4 LYS4        0.0000 
     75 NZ         45.6100   54.1600   53.3800 N.4       4 LYS4        0.0000 
     76 NZ         45.1900   53.8500   54.7900 N.4       4 LYS4        0.0000 
     77 NZ         45.9700   55.5500   53.8000 N.4       4 LYS4        0.0000 
     78 NZ         45.5500   55.2500   55.2000 N.4       4 LYS4        0.0000 
     79 NZ         46.3300   56.9500   54.2100 N.4       4 LYS4        0.0000 
     80 CZ         36.8300   49.4500   49.7300 C.ar      5 PHE5        0.0000 
     81 CA         39.3200   46.0600   48.1300 C.3       6 GLY6        0.0000 
     82 CA         36.6400   51.9200   47.0200 C.3       6 GLY6        0.0000 
     83 CA         36.2200   51.6100   48.4200 C.3       6 GLY6        0.0000 
     84 CA         35.8000   51.3000   49.8300 C.3       6 GLY6        0.0000 
     85 CA         38.4600   51.7700   45.9300 C.3       6 GLY6        0.0000 
     86 CA         39.5400   55.9600   47.1700 C.3       6 GLY6        0.0000 
     87 CA         45.2500   52.7600   52.9700 C.3       6 GLY6        0.0000 
     88 CA         43.0500   57.8400   48.6300 C.3       6 GLY6        0.0000 
     89 CA         44.4400   57.3900   48.9400 C.3       6 GLY6        0.0000 
     90 CA         42.9900   58.9300   50.4500 C.3       6 GLY6        0.0000 
     91 CA         43.3500   60.3300   50.8600 C.3       6 GLY6        0.0000 
     92 DU         39.4300   51.0100   47.6500 H         7 CUB7        0.0000 
     93 DU         39.0100   50.7000   49.0600 H         7 CUB7        0.0000 
     94 DU         39.7900   52.4000   48.0600 H         7 CUB7        0.0000 
     95 DU         39.3700   52.1000   49.4700 H         7 CUB7        0.0000 
     96 DU         40.1500   53.8000   48.4800 H         7 CUB7        0.0000 
     97 DU         39.7300   53.4900   49.8800 H         7 CUB7        0.0000 
     98 DU         40.5100   55.2000   48.8900 H         7 CUB7        0.0000 
     99 DU         40.0900   54.8900   50.3000 H         7 CUB7        0.0000 
    100 DU         41.4900   54.4300   50.6100 H         7 CUB7        0.0000 
    101 DU         38.6400   56.4300   51.8000 H         7 CUB7        0.0000 
    102 DU         40.4500   56.2800   50.7100 H         7 CUB7        0.0000 
    103 DU         42.2700   56.1400   49.6200 H         7 CUB7        0.0000 
    104 DU         43.2400   55.3800   51.3400 H         7 CUB7        0.0000 
    105 DU         44.6400   54.9200   51.6600 H         7 CUB7        0.0000 
    106 DU         44.2200   54.6100   53.0700 H         7 CUB7        0.0000 
    107 DU         42.2100   57.2300   51.4400 H         7 CUB7        0.0000 
    108 DU         43.6000   56.7700   51.7600 H         7 CUB7        0.0000 
    109 DU         43.1800   56.4600   53.1600 H         7 CUB7        0.0000 
    110 DU         44.5800   56.0100   53.4800 H         7 CUB7        0.0000 
    111 DU         42.5700   58.6200   51.8500 H         7 CUB7        0.0000 
@<TRIPOS>BOND
@<TRIPOS>SUBSTRUCTURE
     1 SER1        1 GROUP   
     2 ALA2        9 GROUP   
     3 ASP3       14 GROUP   
     4 LYS4       64 GROUP   
     5 PHE5       80 GROUP   
     6 GLY6       81 GROUP   
     7 CUB7       92 GROUP   
@<TRIPOS>SET

