#    Name: 6hyq_1_GMP
#    Modification time : Fri May 22 19:34:54 2020

@<TRIPOS>MOLECULE
6hyq_1_GMP
   32    34     1     0     1
SMALL
NO_CHARGES


@<TRIPOS>ATOM
      1 O5'        71.9430  -28.9300  165.6550 O.3       1 GMP601      0.0000 
      2 C5'        71.5000  -27.7620  166.3300 C.3       1 GMP601      0.0000 
      3 C4'        71.0150  -26.6840  165.3790 C.3       1 GMP601      0.0000 
      4 O4'        72.1010  -26.2800  164.5030 O.3       1 GMP601      0.0000 
      5 C3'        69.8620  -27.0380  164.4280 C.3       1 GMP601      0.0000 
      6 O3'        68.5940  -26.9210  165.0370 O.3       1 GMP601      0.0000 
      7 C2'        70.0460  -26.0820  163.2620 C.3       1 GMP601      0.0000 
      8 O2'        69.4100  -24.7990  163.4950 O.3       1 GMP601      0.0000 
      9 C1'        71.5780  -25.9410  163.2190 C.3       1 GMP601      0.0000 
     10 N9         72.1670  -26.9010  162.2960 N.pl3     1 GMP601      0.0000 
     11 C8         72.3950  -28.2040  162.5960 C.2       1 GMP601      0.0000 
     12 N7         72.9770  -28.7750  161.5380 N.2       1 GMP601      0.0000 
     13 C5         73.0840  -27.8060  160.6280 C.2       1 GMP601      0.0000 
     14 C6         73.6540  -27.7900  159.2270 C.2       1 GMP601      0.0000 
     15 O6         74.0990  -28.8030  158.7450 O.2       1 GMP601      0.0000 
     16 N1         73.6410  -26.5450  158.5120 N.am      1 GMP601      0.0000 
     17 C2         73.0860  -25.3420  159.0340 C.2       1 GMP601      0.0000 
     18 N2         73.1230  -24.1830  158.1530 N.pl3     1 GMP601      0.0000 
     19 N3         72.5800  -25.3400  160.3540 N.2       1 GMP601      0.0000 
     20 C4         72.5840  -26.6320  161.1050 C.2       1 GMP601      0.0000 
     21 HO5'       71.4220  -29.5770  165.8350 H         1 GMP601      0.0000 
     22 H5'1       70.7740  -28.0040  166.9260 H         1 GMP601      0.0000 
     23 H5'2       72.2340  -27.4070  166.8570 H         1 GMP601      0.0000 
     24 H4'        70.7450  -25.9140  165.9030 H         1 GMP601      0.0000 
     25 H3'        69.9830  -27.9470  164.1110 H         1 GMP601      0.0000 
     26 H2'        69.7190  -26.4860  162.4430 H         1 GMP601      0.0000 
     27 HO2'       68.7020  -24.7450  163.0290 H         1 GMP601      0.0000 
     28 H1'        71.8280  -25.0350  162.9790 H         1 GMP601      0.0000 
     29 H8         72.1860  -28.6240  163.3990 H         1 GMP601      0.0000 
     30 HN1        73.9370  -26.5390  157.7050 H         1 GMP601      0.0000 
     31 HN21       73.4770  -24.2490  157.3720 H         1 GMP601      0.0000 
     32 HN22       72.8360  -23.4220  158.4320 H         1 GMP601      0.0000 
@<TRIPOS>BOND
     1    1    2 1    
     2    2    3 1    
     3    1   21 1    
     4    2   22 1    
     5    2   23 1    
     6    3    4 1    
     7    3    5 1    
     8    3   24 1    
     9    4    9 1    
    10    5    6 1    
    11    5    7 1    
    12    5   25 1    
    13    7    8 1    
    14    7    9 1    
    15    7   26 1    
    16    9   10 1    
    17    8   27 1    
    18    9   28 1    
    19   10   11 1    
    20   10   20 1    
    21   11   12 2    
    22   12   13 1    
    23   11   29 1    
    24   13   14 1    
    25   13   20 2    
    26   14   15 2    
    27   14   16 am   
    28   16   17 1    
    29   17   18 1    
    30   16   30 1    
    31   17   19 2    
    32   19   20 1    
    33   18   31 1    
    34   18   32 1    
@<TRIPOS>SUBSTRUCTURE
     1 GMP601      1 GROUP   
@<TRIPOS>SET
ATOM$ORANGE STATIC     ATOMS   COLORGROUP SYSTEM 
20 2 2 3 3 5 5 7 7 9 9 11 11 13 13 14 14 17 \
17 20 20 

