#    Name: 6hyq_5_GMP
#    Modification time : Fri May 22 19:34:57 2020

@<TRIPOS>MOLECULE
6hyq_5_GMP
   32    34     1     0     1
SMALL
NO_CHARGES


@<TRIPOS>ATOM
      1 O5'        23.7790   24.7710  103.6070 O.3       1 GMP601      0.0000 
      2 C5'        24.5740   23.8500  104.3700 C.3       1 GMP601      0.0000 
      3 C4'        25.2480   22.8450  103.4770 C.3       1 GMP601      0.0000 
      4 O4'        24.2430   22.1280  102.7120 O.3       1 GMP601      0.0000 
      5 C3'        26.1710   23.4320  102.4270 C.3       1 GMP601      0.0000 
      6 O3'        27.4660   23.6920  102.9330 O.3       1 GMP601      0.0000 
      7 C2'        26.1660   22.3620  101.3570 C.3       1 GMP601      0.0000 
      8 O2'        26.9710   21.2830  101.7780 O.3       1 GMP601      0.0000 
      9 C1'        24.7180   21.8810  101.4050 C.3       1 GMP601      0.0000 
     10 N9         23.8130   22.5140  100.4070 N.pl3     1 GMP601      0.0000 
     11 C8         23.0750   23.6270  100.6060 C.2       1 GMP601      0.0000 
     12 N7         22.3580   23.8580   99.5000 N.2       1 GMP601      0.0000 
     13 C5         22.6360   22.8920   98.6430 C.2       1 GMP601      0.0000 
     14 C6         22.1170   22.6570   97.2390 C.2       1 GMP601      0.0000 
     15 O6         21.3490   23.4800   96.8590 O.2       1 GMP601      0.0000 
     16 N1         22.5400   21.5450   96.4410 N.am      1 GMP601      0.0000 
     17 C2         23.4960   20.6350   97.0280 C.2       1 GMP601      0.0000 
     18 N2         24.0000   19.4550   96.2960 N.pl3     1 GMP601      0.0000 
     19 N3         23.9920   20.8630   98.3650 N.2       1 GMP601      0.0000 
     20 C4         23.5300   22.0460   99.1830 C.2       1 GMP601      0.0000 
     21 HO5'       23.8760   25.5550  103.9210 H         1 GMP601      0.0000 
     22 H5'1       25.2500   24.3440  104.8590 H         1 GMP601      0.0000 
     23 H5'2       24.0030   23.3820  104.9990 H         1 GMP601      0.0000 
     24 H4'        25.7460   22.2140  104.0190 H         1 GMP601      0.0000 
     25 H3'        25.7830   24.2480  102.0720 H         1 GMP601      0.0000 
     26 H2'        26.4160   22.7080  100.4860 H         1 GMP601      0.0000 
     27 HO2'       27.6960   21.2800  101.3350 H         1 GMP601      0.0000 
     28 H1'        24.7150   20.9220  101.2560 H         1 GMP601      0.0000 
     29 H8         23.0720   24.1470  101.3770 H         1 GMP601      0.0000 
     30 HN1        22.2400   21.4270   95.6430 H         1 GMP601      0.0000 
     31 HN21       24.5660   18.9260   96.6700 H         1 GMP601      0.0000 
     32 HN22       23.7230   19.2940   95.4980 H         1 GMP601      0.0000 
@<TRIPOS>BOND
     1    1    2 1    
     2    1   21 1    
     3    2    3 1    
     4    2   22 1    
     5    2   23 1    
     6    3    4 1    
     7    3    5 1    
     8    3   24 1    
     9    4    9 1    
    10    5    6 1    
    11    5    7 1    
    12    5   25 1    
    13    7    8 1    
    14    7    9 1    
    15    7   26 1    
    16    8   27 1    
    17    9   10 1    
    18    9   28 1    
    19   10   11 1    
    20   10   20 1    
    21   11   12 2    
    22   11   29 1    
    23   12   13 1    
    24   13   14 1    
    25   13   20 2    
    26   14   15 2    
    27   14   16 am   
    28   16   17 1    
    29   16   30 1    
    30   17   18 1    
    31   17   19 2    
    32   18   31 1    
    33   18   32 1    
    34   19   20 1    
@<TRIPOS>SUBSTRUCTURE
     1 GMP601      1 GROUP   
@<TRIPOS>SET
ATOM$ORANGE STATIC     ATOMS   COLORGROUP SYSTEM 
20 2 2 3 3 5 5 7 7 9 9 11 11 13 13 14 14 17 \
17 20 20 

