#    Name: 6hin_5_SRO
#    Modification time : Fri May 22 19:24:00 2020

@<TRIPOS>MOLECULE
6hin_5_SRO
   13    14     1     0     0
SMALL
NO_CHARGES


@<TRIPOS>ATOM
      1 OH        147.8420  126.3540  154.6640 O.3       1 SRO901      0.0000 
      2 CZ3       149.0960  125.7470  154.7840 C.ar      1 SRO901      0.0000 
      3 CH2       150.2320  126.4480  154.4460 C.ar      1 SRO901      0.0000 
      4 CZ2       151.4670  125.8510  154.5570 C.ar      1 SRO901      0.0000 
      5 CE2       151.5560  124.5390  155.0180 C.ar      1 SRO901      0.0000 
      6 NE1       152.6380  123.7370  155.2170 N.pl3     1 SRO901      0.0000 
      7 CD1       152.2000  122.5470  155.6710 C.2       1 SRO901      0.0000 
      8 CG        150.8390  122.6130  155.7570 C.2       1 SRO901      0.0000 
      9 CD2       150.4380  123.8430  155.3510 C.ar      1 SRO901      0.0000 
     10 CE3       149.1800  124.4420  155.2380 C.ar      1 SRO901      0.0000 
     11 CB        150.1660  121.3520  156.2520 C.3       1 SRO901      0.0000 
     12 CA        150.3830  120.3040  155.1740 C.3       1 SRO901      0.0000 
     13 NZ        150.0680  119.0040  155.7220 N.4       1 SRO901      0.0000 
@<TRIPOS>BOND
     1    1    2 1    
     2    2    3 ar   
     3    2   10 ar   
     4    3    4 ar   
     5    4    5 ar   
     6    5    6 1    
     7    5    9 ar   
     8    6    7 1    
     9    7    8 2    
    10    8    9 1    
    11    8   11 1    
    12    9   10 ar   
    13   11   12 1    
    14   12   13 1    
@<TRIPOS>SUBSTRUCTURE
     1 SRO901      1 GROUP   
@<TRIPOS>SET

