#    Name: 6hin_2_SRO
#    Modification time : Fri May 22 19:23:54 2020

@<TRIPOS>MOLECULE
6hin_2_SRO
   13    14     1     0     0
SMALL
NO_CHARGES


@<TRIPOS>ATOM
      1 OH        106.9050  109.7050  154.6500 O.3       1 SRO506      0.0000 
      2 CZ3       105.5340  109.4590  154.7700 C.ar      1 SRO506      0.0000 
      3 CH2       105.0270  108.2240  154.4320 C.ar      1 SRO506      0.0000 
      4 CZ2       103.6780  107.9800  154.5440 C.ar      1 SRO506      0.0000 
      5 CE2       102.8350  108.9890  155.0060 C.ar      1 SRO506      0.0000 
      6 NE1       101.4870  109.0010  155.2050 N.pl3     1 SRO506      0.0000 
      7 CD1       101.1420  110.2210  155.6600 C.2       1 SRO506      0.0000 
      8 CG        102.2810  110.9670  155.7460 C.2       1 SRO506      0.0000 
      9 CD2       103.3290  110.2100  155.3390 C.ar      1 SRO506      0.0000 
     10 CE3       104.6980  110.4650  155.2250 C.ar      1 SRO506      0.0000 
     11 CB        102.0850  112.3840  156.2420 C.3       1 SRO506      0.0000 
     12 CA        101.2920  113.1040  155.1650 C.3       1 SRO506      0.0000 
     13 NZ        100.7830  114.3400  155.7130 N.4       1 SRO506      0.0000 
@<TRIPOS>BOND
     1    1    2 1    
     2    2    3 ar   
     3    2   10 ar   
     4    3    4 ar   
     5    4    5 ar   
     6    5    6 1    
     7    5    9 ar   
     8    6    7 1    
     9    7    8 2    
    10    8    9 1    
    11    8   11 1    
    12    9   10 ar   
    13   11   12 1    
    14   12   13 1    
@<TRIPOS>SUBSTRUCTURE
     1 SRO506      1 GROUP   
@<TRIPOS>SET

