#    Name: 6hin_5_SRO_CAVITY_N1_6
#    Modification time : Fri May 22 19:24:01 2020

@<TRIPOS>MOLECULE
6hin_5_SRO_CAVITY_N1_6
   54     0     5     0     0
SMALL
NO_CHARGES


@<TRIPOS>ATOM
      1 O         151.1500  116.9500  150.5900 O.2       1 ALA2        0.0000 
      2 O         149.8400  116.7500  152.8300 O.2       1 ALA2        0.0000 
      3 O         150.2800  118.0400  152.2000 O.2       1 ALA2        0.0000 
      4 N         148.5600  120.2000  155.4100 N.am      1 ALA2        0.0000 
      5 N         149.4900  121.9700  156.1200 N.am      1 ALA2        0.0000 
      6 N         149.0200  125.1400  155.1400 N.am      1 ALA2        0.0000 
      7 O         149.4600  126.4300  154.5100 O.2       1 ALA2        0.0000 
      8 O         149.9000  127.7200  153.8800 O.2       1 ALA2        0.0000 
      9 N         149.9500  126.9200  155.8400 N.am      1 ALA2        0.0000 
     10 OD1       152.1600  125.2400  153.9600 O.co2     2 ASP3        0.0000 
     11 OD1       152.2000  124.4400  155.9200 O.co2     2 ASP3        0.0000 
     12 OD1       151.3000  126.3200  155.5600 O.co2     2 ASP3        0.0000 
     13 OD1       151.7400  127.6100  154.9400 O.co2     2 ASP3        0.0000 
     14 CZ        151.5900  118.2400  149.9600 C.ar      3 PHE5        0.0000 
     15 CZ        151.6300  117.4400  151.9200 C.ar      3 PHE5        0.0000 
     16 CZ        150.7700  118.5200  153.5300 C.ar      3 PHE5        0.0000 
     17 CZ        149.8600  120.4000  153.1800 C.ar      3 PHE5        0.0000 
     18 CZ        151.2100  119.8100  152.9000 C.ar      3 PHE5        0.0000 
     19 CZ        149.0000  121.4900  154.7900 C.ar      3 PHE5        0.0000 
     20 CZ        150.3500  120.8900  154.5100 C.ar      3 PHE5        0.0000 
     21 CZ        151.7000  120.2900  154.2400 C.ar      3 PHE5        0.0000 
     22 CZ        149.4400  122.7700  154.1600 C.ar      3 PHE5        0.0000 
     23 CZ        150.7900  122.1800  153.8800 C.ar      3 PHE5        0.0000 
     24 CZ        152.1400  121.5800  153.6100 C.ar      3 PHE5        0.0000 
     25 CZ        152.5800  122.8700  152.9800 C.ar      3 PHE5        0.0000 
     26 CZ        153.0200  124.1600  152.3500 C.ar      3 PHE5        0.0000 
     27 CZ        150.3900  120.0900  156.4700 C.ar      3 PHE5        0.0000 
     28 CZ        150.8300  121.3700  155.8400 C.ar      3 PHE5        0.0000 
     29 CZ        152.1800  120.7800  155.5700 C.ar      3 PHE5        0.0000 
     30 CZ        148.5800  123.8600  155.7600 C.ar      3 PHE5        0.0000 
     31 CZ        149.9300  123.2600  155.4900 C.ar      3 PHE5        0.0000 
     32 CZ        150.3700  124.5500  154.8600 C.ar      3 PHE5        0.0000 
     33 CZ        151.7200  123.9500  154.5900 C.ar      3 PHE5        0.0000 
     34 CZ        150.8100  125.8400  154.2300 C.ar      3 PHE5        0.0000 
     35 CZ        149.9700  122.4600  157.4500 C.ar      3 PHE5        0.0000 
     36 CZ        151.3200  121.8600  157.1800 C.ar      3 PHE5        0.0000 
     37 CZ        150.4100  123.7400  156.8200 C.ar      3 PHE5        0.0000 
     38 CZ        151.7600  123.1500  156.5500 C.ar      3 PHE5        0.0000 
     39 CZ        153.1100  122.5500  156.2700 C.ar      3 PHE5        0.0000 
     40 CZ        149.5100  125.6300  156.4700 C.ar      3 PHE5        0.0000 
     41 CZ        150.8500  125.0300  156.1900 C.ar      3 PHE5        0.0000 
     42 CA        150.7000  115.6700  151.2200 C.3       4 GLY6        0.0000 
     43 CA        151.1900  116.1500  152.5500 C.3       4 GLY6        0.0000 
     44 CA        149.4200  119.1200  153.8100 C.3       4 GLY6        0.0000 
     45 CA        149.9100  119.6000  155.1400 C.3       4 GLY6        0.0000 
     46 CA        151.2600  119.0100  154.8600 C.3       4 GLY6        0.0000 
     47 CA        152.6200  122.0700  154.9400 C.3       4 GLY6        0.0000 
     48 CA        153.0700  123.3500  154.3100 C.3       4 GLY6        0.0000 
     49 CA        153.5100  124.6400  153.6800 C.3       4 GLY6        0.0000 
     50 CA        151.2500  127.1200  153.6000 C.3       4 GLY6        0.0000 
     51 CA        152.6000  126.5300  153.3300 C.3       4 GLY6        0.0000 
     52 CA        153.5500  123.8400  155.6400 C.3       4 GLY6        0.0000 
     53 CA        150.3900  128.2000  155.2100 C.3       4 GLY6        0.0000 
     54 DU        151.2800  122.6600  155.2100 H         5 CUB7        0.0000 
@<TRIPOS>BOND
@<TRIPOS>SUBSTRUCTURE
     1 ALA2        1 GROUP   
     2 ASP3       10 GROUP   
     3 PHE5       14 GROUP   
     4 GLY6       42 GROUP   
     5 CUB7       54 GROUP   
@<TRIPOS>SET

