#    Name: 6hin_1_SRO_CAVITY_N1_8
#    Modification time : Fri May 22 19:23:49 2020

@<TRIPOS>MOLECULE
6hin_1_SRO_CAVITY_N1_8
   59     0     6     0     0
SMALL
NO_CHARGES


@<TRIPOS>ATOM
      1 OG        123.9000   97.5700  149.0100 O.3       1 SER1        0.0000 
      2 OG        124.3400   98.8600  148.3800 O.3       1 SER1        0.0000 
      3 O         125.6900   98.2600  148.1100 O.2       2 ALA2        0.0000 
      4 O         125.7400   97.4600  150.0700 O.2       2 ALA2        0.0000 
      5 O         126.1800   98.7500  149.4400 O.2       2 ALA2        0.0000 
      6 O         126.2200   97.9400  151.4000 O.2       2 ALA2        0.0000 
      7 O         126.6700   99.2300  150.7700 O.2       2 ALA2        0.0000 
      8 O         126.7100   98.4300  152.7400 O.2       2 ALA2        0.0000 
      9 N         127.6400  100.2000  153.4400 N.am      2 ALA2        0.0000 
     10 N         127.6800   99.4000  155.4000 N.am      2 ALA2        0.0000 
     11 N         128.1700   99.8800  156.7400 N.am      2 ALA2        0.0000 
     12 N         129.5200   99.2900  156.4600 N.am      2 ALA2        0.0000 
     13 N         129.9600  100.5700  155.8300 N.am      2 ALA2        0.0000 
     14 OD1       125.2500   96.9700  148.7300 O.co2     3 ASP3        0.0000 
     15 OD1       133.5200   98.3000  153.6700 O.co2     3 ASP3        0.0000 
     16 OD1       132.2100   98.0900  155.9100 O.co2     3 ASP3        0.0000 
     17 OD1       132.6600   99.3800  155.2800 O.co2     3 ASP3        0.0000 
     18 OD1       134.0000   98.7800  155.0100 O.co2     3 ASP3        0.0000 
     19 OD1       134.4500  100.0700  154.3800 O.co2     3 ASP3        0.0000 
     20 OD1       134.9300  100.5600  155.7100 O.co2     3 ASP3        0.0000 
     21 CZ        124.8100   95.6800  149.3600 C.ar      4 PHE5        0.0000 
     22 CZ        126.6000   96.3800  148.4600 C.ar      4 PHE5        0.0000 
     23 CZ        127.9500   95.7800  148.1800 C.ar      4 PHE5        0.0000 
     24 CZ        127.0400   97.6600  147.8300 C.ar      4 PHE5        0.0000 
     25 CZ        125.3000   96.1700  150.7000 C.ar      4 PHE5        0.0000 
     26 CZ        127.0900   96.8600  149.7900 C.ar      4 PHE5        0.0000 
     27 CZ        127.5300   98.1500  149.1600 C.ar      4 PHE5        0.0000 
     28 CZ        126.6200  100.0300  148.8100 C.ar      4 PHE5        0.0000 
     29 CZ        128.0600   97.8300  152.4600 C.ar      4 PHE5        0.0000 
     30 CZ        128.5400   98.3200  153.7900 C.ar      4 PHE5        0.0000 
     31 CZ        129.8900   97.7200  153.5200 C.ar      4 PHE5        0.0000 
     32 CZ        131.2400   97.1200  153.2400 C.ar      4 PHE5        0.0000 
     33 CZ        128.5900   97.5100  155.7600 C.ar      4 PHE5        0.0000 
     34 CZ        129.9400   96.9200  155.4800 C.ar      4 PHE5        0.0000 
     35 CZ        130.3800   98.2000  154.8500 C.ar      4 PHE5        0.0000 
     36 CZ        128.1200  100.6900  154.7700 C.ar      4 PHE5        0.0000 
     37 CZ        129.4700  100.0900  154.5000 C.ar      4 PHE5        0.0000 
     38 CZ        130.8200   99.4900  154.2200 C.ar      4 PHE5        0.0000 
     39 CZ        132.1700   98.9000  153.9500 C.ar      4 PHE5        0.0000 
     40 CZ        129.9100  101.3800  153.8700 C.ar      4 PHE5        0.0000 
     41 CZ        133.9600   99.5900  153.0400 C.ar      4 PHE5        0.0000 
     42 CZ        131.7700   96.8000  156.5400 C.ar      4 PHE5        0.0000 
     43 CZ        130.8700   98.6900  156.1900 C.ar      4 PHE5        0.0000 
     44 CZ        131.3100   99.9800  155.5600 C.ar      4 PHE5        0.0000 
     45 CZ        130.4000  101.8600  155.2000 C.ar      4 PHE5        0.0000 
     46 CZ        131.7500  101.2700  154.9300 C.ar      4 PHE5        0.0000 
     47 CZ        133.1000  100.6700  154.6500 C.ar      4 PHE5        0.0000 
     48 CZ        132.1900  102.5500  154.3000 C.ar      4 PHE5        0.0000 
     49 CZ        130.4400  101.0600  157.1700 C.ar      4 PHE5        0.0000 
     50 CZ        133.1400   99.8700  156.6200 C.ar      4 PHE5        0.0000 
     51 CZ        132.2300  101.7500  156.2600 C.ar      4 PHE5        0.0000 
     52 CZ        133.5800  101.1500  155.9900 C.ar      4 PHE5        0.0000 
     53 CA        128.3900   97.0700  147.5600 C.3       5 GLY6        0.0000 
     54 CA        127.2000   98.9100  154.0700 C.3       5 GLY6        0.0000 
     55 CA        131.2900   96.3200  155.2100 C.3       5 GLY6        0.0000 
     56 CA        131.7300   97.6100  154.5800 C.3       5 GLY6        0.0000 
     57 CA        133.5400  101.9600  154.0200 C.3       5 GLY6        0.0000 
     58 CA        134.8900  101.3600  153.7500 C.3       5 GLY6        0.0000 
     59 DU        129.0300   98.8000  155.1300 H         6 CUB7        0.0000 
@<TRIPOS>BOND
@<TRIPOS>SUBSTRUCTURE
     1 SER1        1 GROUP   
     2 ALA2        3 GROUP   
     3 ASP3       14 GROUP   
     4 PHE5       21 GROUP   
     5 GLY6       53 GROUP   
     6 CUB7       59 GROUP   
@<TRIPOS>SET

