#    Name: 6hin_2_SRO_CAVITY_N1_12
#    Modification time : Fri May 22 19:23:55 2020

@<TRIPOS>MOLECULE
6hin_2_SRO_CAVITY_N1_12
   85     0     7     0     0
SMALL
NO_CHARGES


@<TRIPOS>ATOM
      1 OG         98.9800  114.6900  145.1200 O.3       1 SER1        0.0000 
      2 OG        100.3300  114.0900  144.8500 O.3       1 SER1        0.0000 
      3 OG         99.4200  115.9700  144.4900 O.3       1 SER1        0.0000 
      4 OG         99.4700  115.1700  146.4500 O.3       1 SER1        0.0000 
      5 N          99.4000  112.3200  144.1400 N.am      2 ALA2        0.0000 
      6 O          98.6500  115.4500  150.0300 O.2       2 ALA2        0.0000 
      7 O         100.0000  114.8500  149.7500 O.2       2 ALA2        0.0000 
      8 O          99.0900  116.7400  149.4000 O.2       2 ALA2        0.0000 
      9 O          99.1400  115.9300  151.3600 O.2       2 ALA2        0.0000 
     10 N         105.0900  108.7700  155.1700 N.am      2 ALA2        0.0000 
     11 N         102.3600  114.4200  154.1100 N.am      2 ALA2        0.0000 
     12 N         101.9700  112.3300  156.7000 N.am      2 ALA2        0.0000 
     13 N         103.3200  111.7400  156.4200 N.am      2 ALA2        0.0000 
     14 N         101.0600  114.2200  156.3400 N.am      2 ALA2        0.0000 
     15 N         102.4100  113.6200  156.0700 N.am      2 ALA2        0.0000 
     16 N         103.7600  113.0200  155.7900 N.am      2 ALA2        0.0000 
     17 OD1        96.2800  115.8800  145.6700 O.co2     3 ASP3        0.0000 
     18 OD1        97.6300  115.2800  145.4000 O.co2     3 ASP3        0.0000 
     19 OD1        98.0700  116.5700  144.7700 O.co2     3 ASP3        0.0000 
     20 OD1        94.9800  115.6700  147.9100 O.co2     3 ASP3        0.0000 
     21 OD1        96.3300  115.0800  147.6300 O.co2     3 ASP3        0.0000 
     22 OD1        98.1200  115.7700  146.7300 O.co2     3 ASP3        0.0000 
     23 OD1        98.5600  117.0600  146.1000 O.co2     3 ASP3        0.0000 
     24 OD1        95.4700  116.1600  149.2400 O.co2     3 ASP3        0.0000 
     25 OD1        96.8100  115.5600  148.9700 O.co2     3 ASP3        0.0000 
     26 OD1        98.6000  116.2500  148.0600 O.co2     3 ASP3        0.0000 
     27 OD1       102.3200  107.1100  153.4100 O.co2     3 ASP3        0.0000 
     28 OD1       101.4600  108.1900  155.0100 O.co2     3 ASP3        0.0000 
     29 OD1       102.8100  107.5900  154.7400 O.co2     3 ASP3        0.0000 
     30 OD1       104.1600  107.0000  154.4600 O.co2     3 ASP3        0.0000 
     31 OD1       101.9500  108.6700  156.3500 O.co2     3 ASP3        0.0000 
     32 OD1       103.3000  108.0800  156.0700 O.co2     3 ASP3        0.0000 
     33 OD1       104.6400  107.4800  155.8000 O.co2     3 ASP3        0.0000 
     34 NZ         99.9100  116.4600  145.8200 N.4       4 LYS4        0.0000 
     35 NZ         99.9500  115.6600  147.7900 N.4       4 LYS4        0.0000 
     36 CZ         96.7500  112.7100  146.6500 C.ar      5 PHE5        0.0000 
     37 CZ         99.8900  112.8000  145.4700 C.ar      5 PHE5        0.0000 
     38 CZ         94.5400  114.3800  148.5400 C.ar      5 PHE5        0.0000 
     39 CZ         95.8900  113.7900  148.2600 C.ar      5 PHE5        0.0000 
     40 CZ         97.2400  113.1900  147.9900 C.ar      5 PHE5        0.0000 
     41 CZ         97.6800  114.4800  147.3600 C.ar      5 PHE5        0.0000 
     42 CZ        100.3700  113.2900  146.8100 C.ar      5 PHE5        0.0000 
     43 CZ         99.0700  113.0800  149.0500 C.ar      5 PHE5        0.0000 
     44 CZ         98.1600  114.9600  148.6900 C.ar      5 PHE5        0.0000 
     45 CZ         99.5100  114.3700  148.4200 C.ar      5 PHE5        0.0000 
     46 CZ        100.8600  113.7700  148.1400 C.ar      5 PHE5        0.0000 
     47 CZ         99.5600  113.5600  150.3800 C.ar      5 PHE5        0.0000 
     48 CZ         97.3000  116.0500  150.3000 C.ar      5 PHE5        0.0000 
     49 CZ        101.4200  108.9900  153.0500 C.ar      5 PHE5        0.0000 
     50 CZ        102.7700  108.4000  152.7800 C.ar      5 PHE5        0.0000 
     51 CZ         98.6900  114.6500  151.9900 C.ar      5 PHE5        0.0000 
     52 CZ        100.0400  114.0500  151.7100 C.ar      5 PHE5        0.0000 
     53 CZ        101.9000  109.4800  154.3800 C.ar      5 PHE5        0.0000 
     54 CZ        103.2500  108.8800  154.1100 C.ar      5 PHE5        0.0000 
     55 CZ        101.0000  111.3600  154.0300 C.ar      5 PHE5        0.0000 
     56 CZ        102.3400  110.7700  153.7600 C.ar      5 PHE5        0.0000 
     57 CZ        100.0900  113.2500  153.6800 C.ar      5 PHE5        0.0000 
     58 CZ        101.4400  112.6500  153.4000 C.ar      5 PHE5        0.0000 
     59 CZ        101.8800  113.9400  152.7700 C.ar      5 PHE5        0.0000 
     60 CZ        101.0400  110.5600  155.9900 C.ar      5 PHE5        0.0000 
     61 CZ        102.3900  109.9600  155.7200 C.ar      5 PHE5        0.0000 
     62 CZ        103.7400  109.3700  155.4400 C.ar      5 PHE5        0.0000 
     63 CZ        100.1300  112.4400  155.6400 C.ar      5 PHE5        0.0000 
     64 CZ        102.8300  111.2500  155.0900 C.ar      5 PHE5        0.0000 
     65 CZ        104.1800  110.6500  154.8100 C.ar      5 PHE5        0.0000 
     66 CZ        101.9200  113.1400  154.7300 C.ar      5 PHE5        0.0000 
     67 CZ        103.2700  112.5400  154.4600 C.ar      5 PHE5        0.0000 
     68 CZ        104.6200  111.9400  154.1900 C.ar      5 PHE5        0.0000 
     69 CZ        104.6600  111.1400  156.1500 C.ar      5 PHE5        0.0000 
     70 CA         97.6100  111.6300  145.0500 C.3       6 GLY6        0.0000 
     71 CA         98.4900  114.2000  143.7900 C.3       6 GLY6        0.0000 
     72 CA         96.3100  111.4200  147.2800 C.3       6 GLY6        0.0000 
     73 CA         98.1000  112.1100  146.3800 C.3       6 GLY6        0.0000 
     74 CA         98.5800  112.6000  147.7100 C.3       6 GLY6        0.0000 
     75 CA         99.0500  117.5400  147.4300 C.3       6 GLY6        0.0000 
     76 CA         97.7400  117.3300  149.6700 C.3       6 GLY6        0.0000 
     77 CA        104.6000  108.2900  153.8400 C.3       6 GLY6        0.0000 
     78 CA        100.5300  114.5300  153.0500 C.3       6 GLY6        0.0000 
     79 CA        105.5300  110.0600  154.5400 C.3       6 GLY6        0.0000 
     80 CA        100.5700  113.7300  155.0100 C.3       6 GLY6        0.0000 
     81 DU         98.0500  112.9100  144.4200 H         7 CUB7        0.0000 
     82 DU         97.1900  113.9900  146.0200 H         7 CUB7        0.0000 
     83 DU         98.5400  113.4000  145.7500 H         7 CUB7        0.0000 
     84 DU         99.0300  113.8800  147.0800 H         7 CUB7        0.0000 
     85 DU        101.4800  111.8500  155.3600 H         7 CUB7        0.0000 
@<TRIPOS>BOND
@<TRIPOS>SUBSTRUCTURE
     1 SER1        1 GROUP   
     2 ALA2        5 GROUP   
     3 ASP3       17 GROUP   
     4 LYS4       34 GROUP   
     5 PHE5       36 GROUP   
     6 GLY6       70 GROUP   
     7 CUB7       81 GROUP   
@<TRIPOS>SET

