#    Name: 6hin_1_SRO
#    Modification time : Fri May 22 19:23:48 2020

@<TRIPOS>MOLECULE
6hin_1_SRO
   13    14     1     0     0
SMALL
NO_CHARGES


@<TRIPOS>ATOM
      1 OH        133.4200  103.2110  154.6470 O.3       1 SRO506      0.0000 
      2 CZ3       133.2330  101.8300  154.7670 C.ar      1 SRO506      0.0000 
      3 CH2       134.2520  100.9680  154.4280 C.ar      1 SRO506      0.0000 
      4 CZ2       134.0690   99.6100  154.5400 C.ar      1 SRO506      0.0000 
      5 CE2       132.8500   99.1170  155.0020 C.ar      1 SRO506      0.0000 
      6 NE1       132.4250   97.8390  155.2020 N.pl3     1 SRO506      0.0000 
      7 CD1       131.1580   97.8850  155.6580 C.2       1 SRO506      0.0000 
      8 CG        130.7980   99.1990  155.7440 C.2       1 SRO506      0.0000 
      9 CD2       131.8410   99.9630  155.3370 C.ar      1 SRO506      0.0000 
     10 CE3       132.0190  101.3450  155.2230 C.ar      1 SRO506      0.0000 
     11 CB        129.3910   99.4480  156.2410 C.3       1 SRO506      0.0000 
     12 CA        128.4600   98.9150  155.1640 C.3       1 SRO506      0.0000 
     13 NZ        127.1280   98.8110  155.7140 N.4       1 SRO506      0.0000 
@<TRIPOS>BOND
     1    1    2 1    
     2    2    3 ar   
     3    2   10 ar   
     4    3    4 ar   
     5    4    5 ar   
     6    5    6 1    
     7    5    9 ar   
     8    6    7 1    
     9    7    8 2    
    10    8    9 1    
    11    8   11 1    
    12    9   10 ar   
    13   11   12 1    
    14   12   13 1    
@<TRIPOS>SUBSTRUCTURE
     1 SRO506      1 GROUP   
@<TRIPOS>SET

