#    Name: 6hin_5_SRO_CAVITY_N1_12
#    Modification time : Fri May 22 19:24:01 2020

@<TRIPOS>MOLECULE
6hin_5_SRO_CAVITY_N1_12
   94     0     7     0     0
SMALL
NO_CHARGES


@<TRIPOS>ATOM
      1 OG        150.5700  118.0800  145.3300 O.3       1 SER1        0.0000 
      2 OG        151.0100  119.3600  144.7000 O.3       1 SER1        0.0000 
      3 OG        149.2700  117.8700  147.5700 O.3       1 SER1        0.0000 
      4 O         150.6600  116.4700  149.2600 O.2       2 ALA2        0.0000 
      5 O         149.7500  118.3500  148.9000 O.2       2 ALA2        0.0000 
      6 O         151.1500  116.9500  150.5900 O.2       2 ALA2        0.0000 
      7 O         149.8400  116.7500  152.8300 O.2       2 ALA2        0.0000 
      8 O         150.2800  118.0400  152.2000 O.2       2 ALA2        0.0000 
      9 N         148.5600  120.2000  155.4100 N.am      2 ALA2        0.0000 
     10 N         149.4900  121.9700  156.1200 N.am      2 ALA2        0.0000 
     11 N         149.0200  125.1400  155.1400 N.am      2 ALA2        0.0000 
     12 O         149.4600  126.4300  154.5100 O.2       2 ALA2        0.0000 
     13 O         149.9000  127.7200  153.8800 O.2       2 ALA2        0.0000 
     14 N         149.9500  126.9200  155.8400 N.am      2 ALA2        0.0000 
     15 OD1       151.4800  116.1900  145.6800 O.co2     3 ASP3        0.0000 
     16 OD1       150.1700  115.9800  147.9200 O.co2     3 ASP3        0.0000 
     17 OD1       154.2200  114.2000  147.1000 O.co2     3 ASP3        0.0000 
     18 OD1       151.9600  116.6800  147.0200 O.co2     3 ASP3        0.0000 
     19 OD1       153.3100  116.0800  146.7400 O.co2     3 ASP3        0.0000 
     20 OD1       151.5700  114.5900  149.6100 O.co2     3 ASP3        0.0000 
     21 OD1       152.9200  113.9900  149.3300 O.co2     3 ASP3        0.0000 
     22 OD1       152.0100  115.8700  148.9800 O.co2     3 ASP3        0.0000 
     23 OD1       153.3600  115.2800  148.7100 O.co2     3 ASP3        0.0000 
     24 OD1       154.7100  114.6800  148.4300 O.co2     3 ASP3        0.0000 
     25 OD1       152.1600  125.2400  153.9600 O.co2     3 ASP3        0.0000 
     26 OD1       152.2000  124.4400  155.9200 O.co2     3 ASP3        0.0000 
     27 OD1       151.3000  126.3200  155.5600 O.co2     3 ASP3        0.0000 
     28 OD1       151.7400  127.6100  154.9400 O.co2     3 ASP3        0.0000 
     29 NZ        150.1300  116.7900  145.9600 N.4       4 LYS4        0.0000 
     30 CZ        151.0600  118.5600  146.6600 C.ar      5 PHE5        0.0000 
     31 CZ        151.5000  119.8500  146.0300 C.ar      5 PHE5        0.0000 
     32 CZ        151.1000  117.7600  148.6300 C.ar      5 PHE5        0.0000 
     33 CZ        152.4500  117.1600  148.3500 C.ar      5 PHE5        0.0000 
     34 CZ        153.8000  116.5700  148.0800 C.ar      5 PHE5        0.0000 
     35 CZ        150.1900  119.6400  148.2700 C.ar      5 PHE5        0.0000 
     36 CZ        151.5400  119.0500  148.0000 C.ar      5 PHE5        0.0000 
     37 CZ        152.8900  118.4500  147.7200 C.ar      5 PHE5        0.0000 
     38 CZ        154.2400  117.8500  147.4500 C.ar      5 PHE5        0.0000 
     39 CZ        153.4000  114.4700  150.6700 C.ar      5 PHE5        0.0000 
     40 CZ        155.1900  115.1700  149.7600 C.ar      5 PHE5        0.0000 
     41 CZ        151.5900  118.2400  149.9600 C.ar      5 PHE5        0.0000 
     42 CZ        155.6300  116.4500  149.1400 C.ar      5 PHE5        0.0000 
     43 CZ        156.9800  115.8600  148.8600 C.ar      5 PHE5        0.0000 
     44 CZ        151.6300  117.4400  151.9200 C.ar      5 PHE5        0.0000 
     45 CZ        150.7700  118.5200  153.5300 C.ar      5 PHE5        0.0000 
     46 CZ        149.8600  120.4000  153.1800 C.ar      5 PHE5        0.0000 
     47 CZ        151.2100  119.8100  152.9000 C.ar      5 PHE5        0.0000 
     48 CZ        149.0000  121.4900  154.7900 C.ar      5 PHE5        0.0000 
     49 CZ        150.3500  120.8900  154.5100 C.ar      5 PHE5        0.0000 
     50 CZ        151.7000  120.2900  154.2400 C.ar      5 PHE5        0.0000 
     51 CZ        149.4400  122.7700  154.1600 C.ar      5 PHE5        0.0000 
     52 CZ        150.7900  122.1800  153.8800 C.ar      5 PHE5        0.0000 
     53 CZ        152.1400  121.5800  153.6100 C.ar      5 PHE5        0.0000 
     54 CZ        152.5800  122.8700  152.9800 C.ar      5 PHE5        0.0000 
     55 CZ        153.0200  124.1600  152.3500 C.ar      5 PHE5        0.0000 
     56 CZ        150.3900  120.0900  156.4700 C.ar      5 PHE5        0.0000 
     57 CZ        150.8300  121.3700  155.8400 C.ar      5 PHE5        0.0000 
     58 CZ        152.1800  120.7800  155.5700 C.ar      5 PHE5        0.0000 
     59 CZ        148.5800  123.8600  155.7600 C.ar      5 PHE5        0.0000 
     60 CZ        149.9300  123.2600  155.4900 C.ar      5 PHE5        0.0000 
     61 CZ        150.3700  124.5500  154.8600 C.ar      5 PHE5        0.0000 
     62 CZ        151.7200  123.9500  154.5900 C.ar      5 PHE5        0.0000 
     63 CZ        150.8100  125.8400  154.2300 C.ar      5 PHE5        0.0000 
     64 CZ        149.9700  122.4600  157.4500 C.ar      5 PHE5        0.0000 
     65 CZ        151.3200  121.8600  157.1800 C.ar      5 PHE5        0.0000 
     66 CZ        150.4100  123.7400  156.8200 C.ar      5 PHE5        0.0000 
     67 CZ        151.7600  123.1500  156.5500 C.ar      5 PHE5        0.0000 
     68 CZ        153.1100  122.5500  156.2700 C.ar      5 PHE5        0.0000 
     69 CZ        149.5100  125.6300  156.4700 C.ar      5 PHE5        0.0000 
     70 CZ        150.8500  125.0300  156.1900 C.ar      5 PHE5        0.0000 
     71 CA        152.3600  118.7700  144.4300 C.3       6 GLY6        0.0000 
     72 CA        152.8500  119.2500  145.7600 C.3       6 GLY6        0.0000 
     73 CA        154.2600  113.3900  149.0600 C.3       6 GLY6        0.0000 
     74 CA        156.0500  114.0800  148.1600 C.3       6 GLY6        0.0000 
     75 CA        154.6800  119.1400  146.8200 C.3       6 GLY6        0.0000 
     76 CA        150.7000  115.6700  151.2200 C.3       6 GLY6        0.0000 
     77 CA        152.0500  115.0700  150.9400 C.3       6 GLY6        0.0000 
     78 CA        154.7500  113.8800  150.3900 C.3       6 GLY6        0.0000 
     79 CA        151.1900  116.1500  152.5500 C.3       6 GLY6        0.0000 
     80 CA        149.4200  119.1200  153.8100 C.3       6 GLY6        0.0000 
     81 CA        149.9100  119.6000  155.1400 C.3       6 GLY6        0.0000 
     82 CA        151.2600  119.0100  154.8600 C.3       6 GLY6        0.0000 
     83 CA        152.6200  122.0700  154.9400 C.3       6 GLY6        0.0000 
     84 CA        153.0700  123.3500  154.3100 C.3       6 GLY6        0.0000 
     85 CA        153.5100  124.6400  153.6800 C.3       6 GLY6        0.0000 
     86 CA        151.2500  127.1200  153.6000 C.3       6 GLY6        0.0000 
     87 CA        152.6000  126.5300  153.3300 C.3       6 GLY6        0.0000 
     88 CA        153.5500  123.8400  155.6400 C.3       6 GLY6        0.0000 
     89 CA        150.3900  128.2000  155.2100 C.3       6 GLY6        0.0000 
     90 DU        151.9200  117.4800  145.0500 H         7 CUB7        0.0000 
     91 DU        150.6200  117.2700  147.2900 H         7 CUB7        0.0000 
     92 DU        152.4100  117.9600  146.3900 H         7 CUB7        0.0000 
     93 DU        153.7500  117.3700  146.1100 H         7 CUB7        0.0000 
     94 DU        151.2800  122.6600  155.2100 H         7 CUB7        0.0000 
@<TRIPOS>BOND
@<TRIPOS>SUBSTRUCTURE
     1 SER1        1 GROUP   
     2 ALA2        4 GROUP   
     3 ASP3       15 GROUP   
     4 LYS4       29 GROUP   
     5 PHE5       30 GROUP   
     6 GLY6       71 GROUP   
     7 CUB7       90 GROUP   
@<TRIPOS>SET

