#    Name: 6hin_1_SRO_CAVITY_N1_6
#    Modification time : Fri May 22 19:23:49 2020

@<TRIPOS>MOLECULE
6hin_1_SRO_CAVITY_N1_6
   47     0     5     0     0
SMALL
NO_CHARGES


@<TRIPOS>ATOM
      1 O         125.7400   97.4600  150.0700 O.2       1 ALA2        0.0000 
      2 O         126.2200   97.9400  151.4000 O.2       1 ALA2        0.0000 
      3 O         126.6700   99.2300  150.7700 O.2       1 ALA2        0.0000 
      4 O         126.7100   98.4300  152.7400 O.2       1 ALA2        0.0000 
      5 N         127.6400  100.2000  153.4400 N.am      1 ALA2        0.0000 
      6 N         127.6800   99.4000  155.4000 N.am      1 ALA2        0.0000 
      7 N         128.1700   99.8800  156.7400 N.am      1 ALA2        0.0000 
      8 N         129.5200   99.2900  156.4600 N.am      1 ALA2        0.0000 
      9 N         129.9600  100.5700  155.8300 N.am      1 ALA2        0.0000 
     10 OD1       133.5200   98.3000  153.6700 O.co2     2 ASP3        0.0000 
     11 OD1       132.2100   98.0900  155.9100 O.co2     2 ASP3        0.0000 
     12 OD1       132.6600   99.3800  155.2800 O.co2     2 ASP3        0.0000 
     13 OD1       134.0000   98.7800  155.0100 O.co2     2 ASP3        0.0000 
     14 OD1       134.4500  100.0700  154.3800 O.co2     2 ASP3        0.0000 
     15 OD1       134.9300  100.5600  155.7100 O.co2     2 ASP3        0.0000 
     16 CZ        125.3000   96.1700  150.7000 C.ar      3 PHE5        0.0000 
     17 CZ        127.0900   96.8600  149.7900 C.ar      3 PHE5        0.0000 
     18 CZ        128.0600   97.8300  152.4600 C.ar      3 PHE5        0.0000 
     19 CZ        128.5400   98.3200  153.7900 C.ar      3 PHE5        0.0000 
     20 CZ        129.8900   97.7200  153.5200 C.ar      3 PHE5        0.0000 
     21 CZ        131.2400   97.1200  153.2400 C.ar      3 PHE5        0.0000 
     22 CZ        128.5900   97.5100  155.7600 C.ar      3 PHE5        0.0000 
     23 CZ        129.9400   96.9200  155.4800 C.ar      3 PHE5        0.0000 
     24 CZ        130.3800   98.2000  154.8500 C.ar      3 PHE5        0.0000 
     25 CZ        128.1200  100.6900  154.7700 C.ar      3 PHE5        0.0000 
     26 CZ        129.4700  100.0900  154.5000 C.ar      3 PHE5        0.0000 
     27 CZ        130.8200   99.4900  154.2200 C.ar      3 PHE5        0.0000 
     28 CZ        132.1700   98.9000  153.9500 C.ar      3 PHE5        0.0000 
     29 CZ        129.9100  101.3800  153.8700 C.ar      3 PHE5        0.0000 
     30 CZ        133.9600   99.5900  153.0400 C.ar      3 PHE5        0.0000 
     31 CZ        131.7700   96.8000  156.5400 C.ar      3 PHE5        0.0000 
     32 CZ        130.8700   98.6900  156.1900 C.ar      3 PHE5        0.0000 
     33 CZ        131.3100   99.9800  155.5600 C.ar      3 PHE5        0.0000 
     34 CZ        130.4000  101.8600  155.2000 C.ar      3 PHE5        0.0000 
     35 CZ        131.7500  101.2700  154.9300 C.ar      3 PHE5        0.0000 
     36 CZ        133.1000  100.6700  154.6500 C.ar      3 PHE5        0.0000 
     37 CZ        132.1900  102.5500  154.3000 C.ar      3 PHE5        0.0000 
     38 CZ        130.4400  101.0600  157.1700 C.ar      3 PHE5        0.0000 
     39 CZ        133.1400   99.8700  156.6200 C.ar      3 PHE5        0.0000 
     40 CZ        132.2300  101.7500  156.2600 C.ar      3 PHE5        0.0000 
     41 CZ        133.5800  101.1500  155.9900 C.ar      3 PHE5        0.0000 
     42 CA        127.2000   98.9100  154.0700 C.3       4 GLY6        0.0000 
     43 CA        131.2900   96.3200  155.2100 C.3       4 GLY6        0.0000 
     44 CA        131.7300   97.6100  154.5800 C.3       4 GLY6        0.0000 
     45 CA        133.5400  101.9600  154.0200 C.3       4 GLY6        0.0000 
     46 CA        134.8900  101.3600  153.7500 C.3       4 GLY6        0.0000 
     47 DU        129.0300   98.8000  155.1300 H         5 CUB7        0.0000 
@<TRIPOS>BOND
@<TRIPOS>SUBSTRUCTURE
     1 ALA2        1 GROUP   
     2 ASP3       10 GROUP   
     3 PHE5       16 GROUP   
     4 GLY6       42 GROUP   
     5 CUB7       47 GROUP   
@<TRIPOS>SET

