#    Name: 6hin_2_SRO_CAVITY_N1_4
#    Modification time : Fri May 22 19:23:55 2020

@<TRIPOS>MOLECULE
6hin_2_SRO_CAVITY_N1_4
   39     0     5     0     0
SMALL
NO_CHARGES


@<TRIPOS>ATOM
      1 N         105.0900  108.7700  155.1700 N.am      1 ALA2        0.0000 
      2 N         102.3600  114.4200  154.1100 N.am      1 ALA2        0.0000 
      3 N         101.9700  112.3300  156.7000 N.am      1 ALA2        0.0000 
      4 N         103.3200  111.7400  156.4200 N.am      1 ALA2        0.0000 
      5 N         101.0600  114.2200  156.3400 N.am      1 ALA2        0.0000 
      6 N         102.4100  113.6200  156.0700 N.am      1 ALA2        0.0000 
      7 N         103.7600  113.0200  155.7900 N.am      1 ALA2        0.0000 
      8 OD1       102.3200  107.1100  153.4100 O.co2     2 ASP3        0.0000 
      9 OD1       101.4600  108.1900  155.0100 O.co2     2 ASP3        0.0000 
     10 OD1       102.8100  107.5900  154.7400 O.co2     2 ASP3        0.0000 
     11 OD1       104.1600  107.0000  154.4600 O.co2     2 ASP3        0.0000 
     12 OD1       101.9500  108.6700  156.3500 O.co2     2 ASP3        0.0000 
     13 OD1       103.3000  108.0800  156.0700 O.co2     2 ASP3        0.0000 
     14 OD1       104.6400  107.4800  155.8000 O.co2     2 ASP3        0.0000 
     15 CZ        101.4200  108.9900  153.0500 C.ar      3 PHE5        0.0000 
     16 CZ        102.7700  108.4000  152.7800 C.ar      3 PHE5        0.0000 
     17 CZ        100.0400  114.0500  151.7100 C.ar      3 PHE5        0.0000 
     18 CZ        101.9000  109.4800  154.3800 C.ar      3 PHE5        0.0000 
     19 CZ        103.2500  108.8800  154.1100 C.ar      3 PHE5        0.0000 
     20 CZ        101.0000  111.3600  154.0300 C.ar      3 PHE5        0.0000 
     21 CZ        102.3400  110.7700  153.7600 C.ar      3 PHE5        0.0000 
     22 CZ        100.0900  113.2500  153.6800 C.ar      3 PHE5        0.0000 
     23 CZ        101.4400  112.6500  153.4000 C.ar      3 PHE5        0.0000 
     24 CZ        101.8800  113.9400  152.7700 C.ar      3 PHE5        0.0000 
     25 CZ        101.0400  110.5600  155.9900 C.ar      3 PHE5        0.0000 
     26 CZ        102.3900  109.9600  155.7200 C.ar      3 PHE5        0.0000 
     27 CZ        103.7400  109.3700  155.4400 C.ar      3 PHE5        0.0000 
     28 CZ        100.1300  112.4400  155.6400 C.ar      3 PHE5        0.0000 
     29 CZ        102.8300  111.2500  155.0900 C.ar      3 PHE5        0.0000 
     30 CZ        104.1800  110.6500  154.8100 C.ar      3 PHE5        0.0000 
     31 CZ        101.9200  113.1400  154.7300 C.ar      3 PHE5        0.0000 
     32 CZ        103.2700  112.5400  154.4600 C.ar      3 PHE5        0.0000 
     33 CZ        104.6200  111.9400  154.1900 C.ar      3 PHE5        0.0000 
     34 CZ        104.6600  111.1400  156.1500 C.ar      3 PHE5        0.0000 
     35 CA        104.6000  108.2900  153.8400 C.3       4 GLY6        0.0000 
     36 CA        100.5300  114.5300  153.0500 C.3       4 GLY6        0.0000 
     37 CA        105.5300  110.0600  154.5400 C.3       4 GLY6        0.0000 
     38 CA        100.5700  113.7300  155.0100 C.3       4 GLY6        0.0000 
     39 DU        101.4800  111.8500  155.3600 H         5 CUB7        0.0000 
@<TRIPOS>BOND
@<TRIPOS>SUBSTRUCTURE
     1 ALA2        1 GROUP   
     2 ASP3        8 GROUP   
     3 PHE5       15 GROUP   
     4 GLY6       35 GROUP   
     5 CUB7       39 GROUP   
@<TRIPOS>SET

