#    Name: 6gqw_2_GNP
#    Modification time : Fri May 22 19:25:34 2020

@<TRIPOS>MOLECULE
6gqw_2_GNP
   32    34     1     0     1
SMALL
NO_CHARGES


@<TRIPOS>ATOM
      1 PG         31.9820   94.2630   10.2300 P.3       1 GNP202      0.0000 
      2 O1G        31.7350   92.9280    9.5140 O.co2     1 GNP202      0.0000 
      3 O2G        32.5560   93.9950   11.6000 O.co2     1 GNP202      0.0000 
      4 O3G        30.6360   94.9270   10.3680 O.co2     1 GNP202      0.0000 
      5 N3B        32.9750   95.2720    9.4080 N.3       1 GNP202      0.0000 
      6 PB         33.5820   96.6900    9.9810 P.3       1 GNP202      0.0000 
      7 O1B        32.5480   97.7730    9.8430 O.co2     1 GNP202      0.0000 
      8 O2B        34.2400   96.5130   11.3210 O.co2     1 GNP202      0.0000 
      9 O3A        34.8090   97.0020    8.9670 O.3       1 GNP202      0.0000 
     10 PA         36.3640   96.5710    9.0450 P.3       1 GNP202      0.0000 
     11 O1A        36.4630   95.0810    9.1230 O.co2     1 GNP202      0.0000 
     12 O2A        36.9900   97.3960   10.1300 O.co2     1 GNP202      0.0000 
     13 O5'        36.9620   97.0470    7.6420 O.3       1 GNP202      0.0000 
     14 C5'        36.4860   96.4240    6.4250 C.3       1 GNP202      0.0000 
     15 C4'        37.4820   96.6530    5.3140 C.3       1 GNP202      0.0000 
     16 O4'        37.5910   98.0750    5.0180 O.3       1 GNP202      0.0000 
     17 C3'        38.9190   96.2000    5.5900 C.3       1 GNP202      0.0000 
     18 O3'        39.4830   95.7590    4.3730 O.3       1 GNP202      0.0000 
     19 C2'        39.5920   97.4890    6.0700 C.3       1 GNP202      0.0000 
     20 O2'        40.9850   97.5970    5.8740 O.3       1 GNP202      0.0000 
     21 C1'        38.9240   98.5030    5.1670 C.3       1 GNP202      0.0000 
     22 N9         38.9120   99.8250    5.7480 N.pl3     1 GNP202      0.0000 
     23 C8         38.4090  100.1740    6.9680 C.2       1 GNP202      0.0000 
     24 N7         38.5140  101.4560    7.2240 N.2       1 GNP202      0.0000 
     25 C5         39.1270  101.9740    6.0960 C.2       1 GNP202      0.0000 
     26 C6         39.5080  103.2980    5.7990 C.2       1 GNP202      0.0000 
     27 O6         39.3620  104.3080    6.4860 O.2       1 GNP202      0.0000 
     28 N1         40.1070  103.3880    4.5550 N.am      1 GNP202      0.0000 
     29 C2         40.3350  102.3340    3.7100 C.2       1 GNP202      0.0000 
     30 N2         40.9840  102.6100    2.5700 N.pl3     1 GNP202      0.0000 
     31 N3         39.9640  101.0870    3.9740 N.2       1 GNP202      0.0000 
     32 C4         39.3790  100.9810    5.1830 C.2       1 GNP202      0.0000 
@<TRIPOS>BOND
     1    1    2 ar   
     2    1    3 ar   
     3    1    4 ar   
     4    1    5 1    
     5    5    6 1    
     6    6    7 ar   
     7    6    8 ar   
     8    6    9 1    
     9    9   10 1    
    10   10   11 ar   
    11   10   12 ar   
    12   10   13 1    
    13   13   14 1    
    14   14   15 1    
    15   15   16 1    
    16   15   17 1    
    17   16   21 1    
    18   17   18 1    
    19   17   19 1    
    20   19   20 1    
    21   19   21 1    
    22   21   22 1    
    23   22   23 1    
    24   22   32 1    
    25   23   24 2    
    26   24   25 1    
    27   25   26 1    
    28   25   32 2    
    29   26   27 2    
    30   26   28 am   
    31   28   29 1    
    32   29   30 1    
    33   29   31 2    
    34   31   32 1    
@<TRIPOS>SUBSTRUCTURE
     1 GNP202      1 GROUP   
@<TRIPOS>SET
ATOM$ORANGE STATIC     ATOMS   COLORGROUP SYSTEM 
20 14 14 15 15 17 17 19 19 21 21 23 23 25 25 26 26 29 \
29 32 32 

