#    Name: 6gqw_6_GNP
#    Modification time : Fri May 22 19:25:56 2020

@<TRIPOS>MOLECULE
6gqw_6_GNP
   32    34     1     0     1
SMALL
NO_CHARGES


@<TRIPOS>ATOM
      1 PG         61.5640  131.4080   55.9180 P.3       1 GNP202      0.0000 
      2 O1G        61.6180  131.4450   54.3850 O.co2     1 GNP202      0.0000 
      3 O2G        60.2270  131.9920   56.3550 O.co2     1 GNP202      0.0000 
      4 O3G        62.7430  132.2200   56.4470 O.co2     1 GNP202      0.0000 
      5 N3B        61.7560  129.8970   56.5140 N.3       1 GNP202      0.0000 
      6 PB         60.9880  128.6010   55.9440 P.3       1 GNP202      0.0000 
      7 O1B        61.1170  128.5710   54.4450 O.co2     1 GNP202      0.0000 
      8 O2B        59.6320  128.3760   56.5640 O.co2     1 GNP202      0.0000 
      9 O3A        61.9320  127.3870   56.3690 O.3       1 GNP202      0.0000 
     10 PA         62.9650  126.5680   55.4600 P.3       1 GNP202      0.0000 
     11 O1A        62.2400  125.9840   54.2990 O.co2     1 GNP202      0.0000 
     12 O2A        64.0840  127.5250   55.2430 O.co2     1 GNP202      0.0000 
     13 O5'        63.4760  125.3960   56.4190 O.3       1 GNP202      0.0000 
     14 C5'        63.9700  125.8600   57.6880 C.3       1 GNP202      0.0000 
     15 C4'        64.9410  124.8630   58.2550 C.3       1 GNP202      0.0000 
     16 O4'        64.2330  123.6960   58.7470 O.3       1 GNP202      0.0000 
     17 C3'        65.9760  124.3330   57.2680 C.3       1 GNP202      0.0000 
     18 O3'        67.1760  124.1230   57.9970 O.3       1 GNP202      0.0000 
     19 C2'        65.3490  123.0310   56.7840 C.3       1 GNP202      0.0000 
     20 O2'        66.3460  122.1140   56.4140 O.3       1 GNP202      0.0000 
     21 C1'        64.6160  122.5450   58.0290 C.3       1 GNP202      0.0000 
     22 N9         63.4130  121.7720   57.7460 N.pl3     1 GNP202      0.0000 
     23 C8         62.3240  122.1740   57.0120 C.2       1 GNP202      0.0000 
     24 N7         61.3810  121.2640   56.9410 N.2       1 GNP202      0.0000 
     25 C5         61.8750  120.2060   57.6930 C.2       1 GNP202      0.0000 
     26 C6         61.2930  118.9530   57.9950 C.2       1 GNP202      0.0000 
     27 O6         60.1920  118.5200   57.6480 O.2       1 GNP202      0.0000 
     28 N1         62.1160  118.1880   58.8120 N.am      1 GNP202      0.0000 
     29 C2         63.3590  118.5610   59.2640 C.2       1 GNP202      0.0000 
     30 N2         64.0180  117.6790   60.0380 N.pl3     1 GNP202      0.0000 
     31 N3         63.9090  119.7430   58.9870 N.2       1 GNP202      0.0000 
     32 C4         63.1180  120.5090   58.2010 C.2       1 GNP202      0.0000 
@<TRIPOS>BOND
     1    1    2 ar   
     2    1    3 ar   
     3    1    4 ar   
     4    1    5 1    
     5    5    6 1    
     6    6    7 ar   
     7    6    8 ar   
     8    6    9 1    
     9    9   10 1    
    10   10   11 ar   
    11   10   12 ar   
    12   10   13 1    
    13   13   14 1    
    14   14   15 1    
    15   15   16 1    
    16   15   17 1    
    17   16   21 1    
    18   17   18 1    
    19   17   19 1    
    20   19   20 1    
    21   19   21 1    
    22   21   22 1    
    23   22   23 1    
    24   22   32 1    
    25   23   24 2    
    26   24   25 1    
    27   25   26 1    
    28   25   32 2    
    29   26   27 2    
    30   26   28 am   
    31   28   29 1    
    32   29   30 1    
    33   29   31 2    
    34   31   32 1    
@<TRIPOS>SUBSTRUCTURE
     1 GNP202      1 GROUP   
@<TRIPOS>SET
ATOM$ORANGE STATIC     ATOMS   COLORGROUP SYSTEM 
20 14 14 15 15 17 17 19 19 21 21 23 23 25 25 26 26 29 \
29 32 32 

