#    Name: 6gqw_1_GNP
#    Modification time : Fri May 22 19:25:28 2020

@<TRIPOS>MOLECULE
6gqw_1_GNP
   32    34     1     0     1
SMALL
NO_CHARGES


@<TRIPOS>ATOM
      1 PG         69.7880  107.9260    2.1420 P.3       1 GNP202      0.0000 
      2 O1G        70.7800  108.4870    1.1280 O.co2     1 GNP202      0.0000 
      3 O2G        70.1440  108.1780    3.5960 O.co2     1 GNP202      0.0000 
      4 O3G        69.6900  106.4400    1.9720 O.co2     1 GNP202      0.0000 
      5 N3B        68.3240  108.5640    1.8440 N.3       1 GNP202      0.0000 
      6 PB         67.0490  108.2450    2.8000 P.3       1 GNP202      0.0000 
      7 O1B        66.5230  106.8780    2.4630 O.co2     1 GNP202      0.0000 
      8 O2B        67.3530  108.5000    4.2490 O.co2     1 GNP202      0.0000 
      9 O3A        66.0250  109.3940    2.2970 O.3       1 GNP202      0.0000 
     10 PA         65.6860  110.7820    3.0470 P.3       1 GNP202      0.0000 
     11 O1A        66.9340  111.6120    3.0230 O.co2     1 GNP202      0.0000 
     12 O2A        65.0890  110.5140    4.3920 O.co2     1 GNP202      0.0000 
     13 O5'        64.5800  111.4580    2.1170 O.3       1 GNP202      0.0000 
     14 C5'        64.9090  111.6900    0.7260 C.3       1 GNP202      0.0000 
     15 C4'        64.1240  112.8700    0.2010 C.3       1 GNP202      0.0000 
     16 O4'        62.7620  112.4440   -0.0160 O.3       1 GNP202      0.0000 
     17 C3'        64.0350  114.1050    1.1120 C.3       1 GNP202      0.0000 
     18 O3'        64.1030  115.3030    0.3640 O.3       1 GNP202      0.0000 
     19 C2'        62.6600  114.0100    1.7740 C.3       1 GNP202      0.0000 
     20 O2'        61.9650  115.2300    1.9110 O.3       1 GNP202      0.0000 
     21 C1'        61.8640  113.1830    0.7810 C.3       1 GNP202      0.0000 
     22 N9         60.9260  112.2780    1.4400 N.pl3     1 GNP202      0.0000 
     23 C8         61.1810  111.2950    2.3670 C.2       1 GNP202      0.0000 
     24 N7         60.0980  110.6580    2.7600 N.2       1 GNP202      0.0000 
     25 C5         59.0760  111.2670    2.0480 C.2       1 GNP202      0.0000 
     26 C6         57.6890  111.0120    2.0560 C.2       1 GNP202      0.0000 
     27 O6         57.0700  110.1640    2.7130 O.2       1 GNP202      0.0000 
     28 N1         57.0140  111.8830    1.1930 N.am      1 GNP202      0.0000 
     29 C2         57.5890  112.8600    0.4140 C.2       1 GNP202      0.0000 
     30 N2         56.7720  113.6000   -0.3510 N.pl3     1 GNP202      0.0000 
     31 N3         58.8970  113.0890    0.3980 N.2       1 GNP202      0.0000 
     32 C4         59.5660  112.2710    1.2440 C.2       1 GNP202      0.0000 
@<TRIPOS>BOND
     1    1    2 ar   
     2    1    3 ar   
     3    1    4 ar   
     4    1    5 1    
     5    5    6 1    
     6    6    7 ar   
     7    6    8 ar   
     8    6    9 1    
     9    9   10 1    
    10   10   11 ar   
    11   10   12 ar   
    12   10   13 1    
    13   13   14 1    
    14   14   15 1    
    15   15   16 1    
    16   15   17 1    
    17   16   21 1    
    18   17   18 1    
    19   17   19 1    
    20   19   20 1    
    21   19   21 1    
    22   21   22 1    
    23   22   23 1    
    24   22   32 1    
    25   23   24 2    
    26   24   25 1    
    27   25   26 1    
    28   25   32 2    
    29   26   27 2    
    30   26   28 am   
    31   28   29 1    
    32   29   30 1    
    33   29   31 2    
    34   31   32 1    
@<TRIPOS>SUBSTRUCTURE
     1 GNP202      1 GROUP   
@<TRIPOS>SET
ATOM$ORANGE STATIC     ATOMS   COLORGROUP SYSTEM 
20 14 14 15 15 17 17 19 19 21 21 23 23 25 25 26 26 29 \
29 32 32 

