#    Name: 6gqw_3_GNP
#    Modification time : Fri May 22 19:25:40 2020

@<TRIPOS>MOLECULE
6gqw_3_GNP
   32    34     1     0     1
SMALL
NO_CHARGES


@<TRIPOS>ATOM
      1 PG         76.8160   94.1340   48.8230 P.3       1 GNP202      0.0000 
      2 O1G        76.3480   94.3870   47.4040 O.co2     1 GNP202      0.0000 
      3 O2G        78.0730   94.9540   48.9960 O.co2     1 GNP202      0.0000 
      4 O3G        77.1450   92.6640   48.9580 O.co2     1 GNP202      0.0000 
      5 N3B        75.6520   94.5220   49.8990 N.3       1 GNP202      0.0000 
      6 PB         74.6160   95.7490   49.6520 P.3       1 GNP202      0.0000 
      7 O1B        73.8970   95.5160   48.3460 O.co2     1 GNP202      0.0000 
      8 O2B        75.3180   97.0580   49.8870 O.co2     1 GNP202      0.0000 
      9 O3A        73.3900   95.5880   50.6670 O.3       1 GNP202      0.0000 
     10 PA         71.9470   94.9780   50.3390 P.3       1 GNP202      0.0000 
     11 O1A        71.2760   95.8700   49.3540 O.co2     1 GNP202      0.0000 
     12 O2A        72.1540   93.5320   50.0200 O.co2     1 GNP202      0.0000 
     13 O5'        71.1960   95.1410   51.7370 O.3       1 GNP202      0.0000 
     14 C5'        71.8750   94.7030   52.9400 C.3       1 GNP202      0.0000 
     15 C4'        70.8500   94.2850   53.9620 C.3       1 GNP202      0.0000 
     16 O4'        70.4140   95.4700   54.6680 O.3       1 GNP202      0.0000 
     17 C3'        69.5770   93.6180   53.4200 C.3       1 GNP202      0.0000 
     18 O3'        69.1200   92.5920   54.2860 O.3       1 GNP202      0.0000 
     19 C2'        68.5460   94.7480   53.3970 C.3       1 GNP202      0.0000 
     20 O2'        67.2400   94.3000   53.6990 O.3       1 GNP202      0.0000 
     21 C1'        69.0300   95.6500   54.5210 C.3       1 GNP202      0.0000 
     22 N9         68.8140   97.0620   54.2710 N.pl3     1 GNP202      0.0000 
     23 C8         69.3520   97.8280   53.2720 C.2       1 GNP202      0.0000 
     24 N7         68.9820   99.0850   53.3360 N.2       1 GNP202      0.0000 
     25 C5         68.1580   99.1440   54.4550 C.2       1 GNP202      0.0000 
     26 C6         67.4650  100.2370   55.0250 C.2       1 GNP202      0.0000 
     27 O6         67.4580  101.4190   54.6560 O.2       1 GNP202      0.0000 
     28 N1         66.7520   99.8470   56.1560 N.am      1 GNP202      0.0000 
     29 C2         66.6970   98.5720   56.6700 C.2       1 GNP202      0.0000 
     30 N2         65.9450   98.3850   57.7670 N.pl3     1 GNP202      0.0000 
     31 N3         67.3420   97.5420   56.1340 N.2       1 GNP202      0.0000 
     32 C4         68.0500   97.9030   55.0380 C.2       1 GNP202      0.0000 
@<TRIPOS>BOND
     1    1    2 ar   
     2    1    3 ar   
     3    1    4 ar   
     4    1    5 1    
     5    5    6 1    
     6    6    7 ar   
     7    6    8 ar   
     8    6    9 1    
     9    9   10 1    
    10   10   11 ar   
    11   10   12 ar   
    12   10   13 1    
    13   13   14 1    
    14   14   15 1    
    15   15   16 1    
    16   15   17 1    
    17   16   21 1    
    18   17   18 1    
    19   17   19 1    
    20   19   20 1    
    21   19   21 1    
    22   21   22 1    
    23   22   23 1    
    24   22   32 1    
    25   23   24 2    
    26   24   25 1    
    27   25   26 1    
    28   25   32 2    
    29   26   27 2    
    30   26   28 am   
    31   28   29 1    
    32   29   30 1    
    33   29   31 2    
    34   31   32 1    
@<TRIPOS>SUBSTRUCTURE
     1 GNP202      1 GROUP   
@<TRIPOS>SET
ATOM$ORANGE STATIC     ATOMS   COLORGROUP SYSTEM 
20 14 14 15 15 17 17 19 19 21 21 23 23 25 25 26 26 29 \
29 32 32 

