#    Name: 6gqw_5_GNP
#    Modification time : Fri May 22 19:25:50 2020

@<TRIPOS>MOLECULE
6gqw_5_GNP
   32    34     1     0     1
SMALL
NO_CHARGES


@<TRIPOS>ATOM
      1 PG         36.8330   98.5250   58.5610 P.3       1 GNP202      0.0000 
      2 O1G        36.5320   98.8590   57.1050 O.co2     1 GNP202      0.0000 
      3 O2G        36.9410   97.0120   58.6790 O.co2     1 GNP202      0.0000 
      4 O3G        35.6460   99.0550   59.3720 O.co2     1 GNP202      0.0000 
      5 N3B        38.2350   99.2010   59.0840 N.3       1 GNP202      0.0000 
      6 PB         39.5800   99.4550   58.2050 P.3       1 GNP202      0.0000 
      7 O1B        39.1500  100.0950   56.9140 O.co2     1 GNP202      0.0000 
      8 O2B        40.4350   98.2240   58.1520 O.co2     1 GNP202      0.0000 
      9 O3A        40.4070  100.6520   58.9140 O.3       1 GNP202      0.0000 
     10 PA         40.5370  102.2240   58.5470 P.3       1 GNP202      0.0000 
     11 O1A        41.1430  102.4070   57.1960 O.co2     1 GNP202      0.0000 
     12 O2A        39.2230  102.8920   58.8030 O.co2     1 GNP202      0.0000 
     13 O5'        41.5920  102.7020   59.6370 O.3       1 GNP202      0.0000 
     14 C5'        41.2530  102.4860   61.0250 C.3       1 GNP202      0.0000 
     15 C4'        41.8510  103.5990   61.8470 C.3       1 GNP202      0.0000 
     16 O4'        43.2800  103.3760   61.9690 O.3       1 GNP202      0.0000 
     17 C3'        41.6900  105.0140   61.2780 C.3       1 GNP202      0.0000 
     18 O3'        41.3910  105.8980   62.3480 O.3       1 GNP202      0.0000 
     19 C2'        43.0490  105.3250   60.6430 C.3       1 GNP202      0.0000 
     20 O2'        43.4420  106.6680   60.7980 O.3       1 GNP202      0.0000 
     21 C1'        44.0160  104.4580   61.4440 C.3       1 GNP202      0.0000 
     22 N9         45.1030  103.9180   60.6370 N.pl3     1 GNP202      0.0000 
     23 C8         44.9870  103.1250   59.5180 C.2       1 GNP202      0.0000 
     24 N7         46.1390  102.7910   58.9930 N.2       1 GNP202      0.0000 
     25 C5         47.0690  103.3870   59.8300 C.2       1 GNP202      0.0000 
     26 C6         48.4780  103.3550   59.7760 C.2       1 GNP202      0.0000 
     27 O6         49.1950  102.7810   58.9480 O.2       1 GNP202      0.0000 
     28 N1         49.0400  104.0740   60.8300 N.am      1 GNP202      0.0000 
     29 C2         48.3410  104.7280   61.8150 C.2       1 GNP202      0.0000 
     30 N2         49.0650  105.3680   62.7370 N.pl3     1 GNP202      0.0000 
     31 N3         47.0120  104.7750   61.8670 N.2       1 GNP202      0.0000 
     32 C4         46.4470  104.0820   60.8480 C.2       1 GNP202      0.0000 
@<TRIPOS>BOND
     1    1    2 ar   
     2    1    3 ar   
     3    1    4 ar   
     4    1    5 1    
     5    5    6 1    
     6    6    7 ar   
     7    6    8 ar   
     8    6    9 1    
     9    9   10 1    
    10   10   11 ar   
    11   10   12 ar   
    12   10   13 1    
    13   13   14 1    
    14   14   15 1    
    15   15   16 1    
    16   15   17 1    
    17   16   21 1    
    18   17   18 1    
    19   17   19 1    
    20   19   20 1    
    21   19   21 1    
    22   21   22 1    
    23   22   23 1    
    24   22   32 1    
    25   23   24 2    
    26   24   25 1    
    27   25   26 1    
    28   25   32 2    
    29   26   27 2    
    30   26   28 am   
    31   28   29 1    
    32   29   30 1    
    33   29   31 2    
    34   31   32 1    
@<TRIPOS>SUBSTRUCTURE
     1 GNP202      1 GROUP   
@<TRIPOS>SET
ATOM$ORANGE STATIC     ATOMS   COLORGROUP SYSTEM 
20 14 14 15 15 17 17 19 19 21 21 23 23 25 25 26 26 29 \
29 32 32 

