#    Name: 6gqw_1_GNP_CAVITY_N1_8
#    Modification time : Fri May 22 19:25:31 2020

@<TRIPOS>MOLECULE
6gqw_1_GNP_CAVITY_N1_8
   71     0     6     0     0
SMALL
NO_CHARGES


@<TRIPOS>ATOM
      1 O          57.6900  112.0800    2.2400 O.2       1 ALA2        0.0000 
      2 N          64.9300  109.8900    1.1000 N.am      1 ALA2        0.0000 
      3 N          64.3500  111.2300    0.7500 N.am      1 ALA2        0.0000 
      4 N          61.4000  114.9300    0.5400 N.am      1 ALA2        0.0000 
      5 N          62.6000  115.2300   -0.3100 N.am      1 ALA2        0.0000 
      6 N          63.8000  115.5300   -1.1600 N.am      1 ALA2        0.0000 
      7 N          62.0100  116.5700   -0.6600 N.am      1 ALA2        0.0000 
      8 N          63.2500  112.8700    2.4300 N.am      1 ALA2        0.0000 
      9 N          64.4500  113.1700    1.5800 N.am      1 ALA2        0.0000 
     10 N          62.6600  114.2100    2.0800 N.am      1 ALA2        0.0000 
     11 N          63.8600  114.5100    1.2300 N.am      1 ALA2        0.0000 
     12 N          62.0800  115.5400    1.7200 N.am      1 ALA2        0.0000 
     13 N          65.7100  112.4500    3.1200 N.am      1 ALA2        0.0000 
     14 N          63.9300  113.4800    3.6200 N.am      1 ALA2        0.0000 
     15 N          65.1300  113.7900    2.7700 N.am      1 ALA2        0.0000 
     16 N          66.4000  113.0600    4.3100 N.am      1 ALA2        0.0000 
     17 O          67.6000  113.3600    3.4700 O.2       1 ALA2        0.0000 
     18 OD1        61.8200  112.6700   -2.3300 O.co2     2 ASP3        0.0000 
     19 OD1        61.8800  111.6500    0.0500 O.co2     2 ASP3        0.0000 
     20 OD1        63.0800  111.9500   -0.7900 O.co2     2 ASP3        0.0000 
     21 OD1        64.2800  112.2500   -1.6400 O.co2     2 ASP3        0.0000 
     22 OD1        61.3000  112.9800   -0.3000 O.co2     2 ASP3        0.0000 
     23 OD1        62.5600  112.2600    1.2400 O.co2     2 ASP3        0.0000 
     24 NZ         57.0100  111.4700    1.0500 N.4       3 LYS4        0.0000 
     25 NZ         56.4300  112.8000    0.7000 N.4       3 LYS4        0.0000 
     26 NZ         57.6300  113.1000   -0.1500 N.4       3 LYS4        0.0000 
     27 NZ         57.0400  114.4400   -0.5000 N.4       3 LYS4        0.0000 
     28 NZ         60.8100  116.2700    0.1800 N.4       3 LYS4        0.0000 
     29 CZ         58.8900  112.3800    1.3900 C.ar      4 PHE5        0.0000 
     30 CZ         58.3100  113.7200    1.0400 C.ar      4 PHE5        0.0000 
     31 CZ         59.5100  114.0200    0.1900 C.ar      4 PHE5        0.0000 
     32 CZ         57.7300  115.0500    0.6900 C.ar      4 PHE5        0.0000 
     33 CZ         58.9300  115.3500   -0.1600 C.ar      4 PHE5        0.0000 
     34 CZ         65.5500  111.5300   -0.1000 C.ar      4 PHE5        0.0000 
     35 CZ         64.9700  112.8600   -0.4500 C.ar      4 PHE5        0.0000 
     36 CZ         60.7800  113.2900    1.7300 C.ar      4 PHE5        0.0000 
     37 CZ         66.8200  110.8000    1.4400 C.ar      4 PHE5        0.0000 
     38 CZ         66.2300  112.1400    1.0900 C.ar      4 PHE5        0.0000 
     39 CZ         61.4600  113.9100    2.9200 C.ar      4 PHE5        0.0000 
     40 CZ         67.5000  111.4200    2.6300 C.ar      4 PHE5        0.0000 
     41 CA         56.9500  112.4900   -1.3400 C.3       5 GLY6        0.0000 
     42 CA         58.1500  112.7900   -2.1800 C.3       5 GLY6        0.0000 
     43 CA         57.5600  114.1300   -2.5300 C.3       5 GLY6        0.0000 
     44 CA         58.2100  111.7700    0.2000 C.3       5 GLY6        0.0000 
     45 CA         59.4100  112.0700   -0.6400 C.3       5 GLY6        0.0000 
     46 CA         58.2500  114.7400   -1.3500 C.3       5 GLY6        0.0000 
     47 CA         56.4600  115.7800   -0.8500 C.3       5 GLY6        0.0000 
     48 CA         59.4800  111.0400    1.7500 C.3       5 GLY6        0.0000 
     49 CA         60.6800  111.3500    0.9000 C.3       5 GLY6        0.0000 
     50 CA         60.1000  112.6800    0.5500 C.3       5 GLY6        0.0000 
     51 CA         57.1100  113.4200    1.8800 C.3       5 GLY6        0.0000 
     52 CA         57.1400  116.3900    0.3300 C.3       5 GLY6        0.0000 
     53 CA         61.9500  110.6200    2.4400 C.3       5 GLY6        0.0000 
     54 CA         63.1500  110.9200    1.5900 C.3       5 GLY6        0.0000 
     55 CA         60.1600  111.6600    2.9300 C.3       5 GLY6        0.0000 
     56 CA         61.3600  111.9600    2.0900 C.3       5 GLY6        0.0000 
     57 CA         64.3800  114.2000   -0.8000 C.3       5 GLY6        0.0000 
     58 CA         65.6100  110.5000    2.2900 C.3       5 GLY6        0.0000 
     59 CA         63.8300  111.5400    2.7800 C.3       5 GLY6        0.0000 
     60 CA         62.0400  112.5700    3.2700 C.3       5 GLY6        0.0000 
     61 CA         65.6500  113.4800    0.7400 C.3       5 GLY6        0.0000 
     62 CA         65.0700  114.8100    0.3800 C.3       5 GLY6        0.0000 
     63 CA         66.3000  111.1100    3.4800 C.3       5 GLY6        0.0000 
     64 CA         64.5100  112.1500    3.9700 C.3       5 GLY6        0.0000 
     65 CA         66.9100  112.7500    2.2800 C.3       5 GLY6        0.0000 
     66 DU         58.8300  113.4100   -0.9900 H         6 CUB7        0.0000 
     67 DU         60.7100  114.3200   -0.6500 H         6 CUB7        0.0000 
     68 DU         63.7700  112.5600    0.4000 H         6 CUB7        0.0000 
     69 DU         61.9800  113.6000    0.8900 H         6 CUB7        0.0000 
     70 DU         63.1800  113.9000    0.0400 H         6 CUB7        0.0000 
     71 DU         65.0300  111.8400    1.9400 H         6 CUB7        0.0000 
@<TRIPOS>BOND
@<TRIPOS>SUBSTRUCTURE
     1 ALA2        1 GROUP   
     2 ASP3       18 GROUP   
     3 LYS4       24 GROUP   
     4 PHE5       29 GROUP   
     5 GLY6       41 GROUP   
     6 CUB7       66 GROUP   
@<TRIPOS>SET

