#    Name: 6gqw_4_GNP
#    Modification time : Fri May 22 19:25:45 2020

@<TRIPOS>MOLECULE
6gqw_4_GNP
   32    34     1     0     1
SMALL
NO_CHARGES


@<TRIPOS>ATOM
      1 PG         40.0840  134.7530   11.5810 P.3       1 GNP202      0.0000 
      2 O1G        41.2130  135.6600   11.1420 O.co2     1 GNP202      0.0000 
      3 O2G        40.4400  134.4880   13.0350 O.co2     1 GNP202      0.0000 
      4 O3G        38.7330  135.4610   11.5360 O.co2     1 GNP202      0.0000 
      5 N3B        40.0260  133.3500   10.7200 N.3       1 GNP202      0.0000 
      6 PB         41.0480  132.1220   11.0090 P.3       1 GNP202      0.0000 
      7 O1B        42.3780  132.2800   10.3210 O.co2     1 GNP202      0.0000 
      8 O2B        41.0180  131.8300   12.4850 O.co2     1 GNP202      0.0000 
      9 O3A        40.4000  130.8020   10.3750 O.3       1 GNP202      0.0000 
     10 PA         39.4740  129.6730   11.0260 P.3       1 GNP202      0.0000 
     11 O1A        38.2040  130.3110   11.4850 O.co2     1 GNP202      0.0000 
     12 O2A        40.2270  128.9050   12.0480 O.co2     1 GNP202      0.0000 
     13 O5'        39.1960  128.7160    9.7800 O.3       1 GNP202      0.0000 
     14 C5'        38.6560  129.2840    8.5670 C.3       1 GNP202      0.0000 
     15 C4'        37.8990  128.2050    7.8400 C.3       1 GNP202      0.0000 
     16 O4'        38.8550  127.3710    7.1410 O.3       1 GNP202      0.0000 
     17 C3'        37.0890  127.2650    8.7400 C.3       1 GNP202      0.0000 
     18 O3'        35.8200  127.0060    8.1570 O.3       1 GNP202      0.0000 
     19 C2'        37.9640  126.0110    8.8380 C.3       1 GNP202      0.0000 
     20 O2'        37.2320  124.8100    8.9550 O.3       1 GNP202      0.0000 
     21 C1'        38.6900  126.0210    7.5000 C.3       1 GNP202      0.0000 
     22 N9         40.0130  125.4230    7.5560 N.pl3     1 GNP202      0.0000 
     23 C8         41.0350  125.8520    8.3580 C.2       1 GNP202      0.0000 
     24 N7         42.1420  125.1620    8.2090 N.2       1 GNP202      0.0000 
     25 C5         41.8220  124.2280    7.2360 C.2       1 GNP202      0.0000 
     26 C6         42.6310  123.2260    6.6570 C.2       1 GNP202      0.0000 
     27 O6         43.8230  122.9780    6.8650 O.2       1 GNP202      0.0000 
     28 N1         41.9260  122.5020    5.7060 N.am      1 GNP202      0.0000 
     29 C2         40.6210  122.7120    5.3520 C.2       1 GNP202      0.0000 
     30 N2         40.1410  121.8940    4.4090 N.pl3     1 GNP202      0.0000 
     31 N3         39.8560  123.6590    5.8900 N.2       1 GNP202      0.0000 
     32 C4         40.5180  124.3770    6.8220 C.2       1 GNP202      0.0000 
@<TRIPOS>BOND
     1    1    2 ar   
     2    1    3 ar   
     3    1    4 ar   
     4    1    5 1    
     5    5    6 1    
     6    6    7 ar   
     7    6    8 ar   
     8    6    9 1    
     9    9   10 1    
    10   10   11 ar   
    11   10   12 ar   
    12   10   13 1    
    13   13   14 1    
    14   14   15 1    
    15   15   16 1    
    16   15   17 1    
    17   16   21 1    
    18   17   18 1    
    19   17   19 1    
    20   19   20 1    
    21   19   21 1    
    22   21   22 1    
    23   22   23 1    
    24   22   32 1    
    25   23   24 2    
    26   24   25 1    
    27   25   26 1    
    28   25   32 2    
    29   26   27 2    
    30   26   28 am   
    31   28   29 1    
    32   29   30 1    
    33   29   31 2    
    34   31   32 1    
@<TRIPOS>SUBSTRUCTURE
     1 GNP202      1 GROUP   
@<TRIPOS>SET
ATOM$ORANGE STATIC     ATOMS   COLORGROUP SYSTEM 
20 14 14 15 15 17 17 19 19 21 21 23 23 25 25 26 26 29 \
29 32 32 

