#    Name: 5yqb_1_GMC
#    Modification time : Fri May 22 19:16:35 2020

@<TRIPOS>MOLECULE
5yqb_1_GMC
   21    23     1     0     0
SMALL
NO_CHARGES


@<TRIPOS>ATOM
      1 C10        42.0900  -40.0950  -31.6410 C.3       1 GMC903      0.0000 
      2 N6         41.3020  -41.3080  -31.4770 N.3       1 GMC903      0.0000 
      3 C9         41.3190  -42.0370  -30.2690 C.3       1 GMC903      0.0000 
      4 C6         40.1230  -41.5200  -32.2340 C.ar      1 GMC903      0.0000 
      5 C5         39.7440  -40.6450  -33.2400 C.ar      1 GMC903      0.0000 
      6 C4         38.5580  -41.0200  -33.8690 C.ar      1 GMC903      0.0000 
      7 N3         37.7980  -42.1270  -33.6190 N.ar      1 GMC903      0.0000 
      8 C2         38.2370  -42.9040  -32.6010 C.ar      1 GMC903      0.0000 
      9 N1         39.3780  -42.6280  -31.9220 N.ar      1 GMC903      0.0000 
     10 N7         40.2880  -39.4720  -33.7730 N.2       1 GMC903      0.0000 
     11 C8         39.4200  -39.1580  -34.7350 C.2       1 GMC903      0.0000 
     12 N9         38.4070  -40.1020  -34.8720 N.pl3     1 GMC903      0.0000 
     13 C1'        37.2690  -40.1800  -35.7840 C.3       1 GMC903      0.0000 
     14 O4'        37.1870  -38.9630  -36.5590 O.3       1 GMC903      0.0000 
     15 C4'        36.0680  -38.4970  -36.0710 C.3       1 GMC903      0.0000 
     16 C5'        35.9630  -37.2220  -35.2830 C.3       1 GMC903      0.0000 
     17 O5'        34.5640  -37.1900  -34.8720 O.3       1 GMC903      0.0000 
     18 C2'        36.0650  -40.5040  -34.8920 C.3       1 GMC903      0.0000 
     19 O2'        35.4460  -41.8150  -34.9360 O.3       1 GMC903      0.0000 
     20 C3'        35.2120  -39.3790  -35.1770 C.3       1 GMC903      0.0000 
     21 N3'        34.1500  -39.9650  -35.9250 N.4       1 GMC903      0.0000 
@<TRIPOS>BOND
     1    1    2 1    
     2    2    3 1    
     3    2    4 1    
     4    4    5 ar   
     5    4    9 ar   
     6    5    6 ar   
     7    5   10 1    
     8    6    7 ar   
     9    6   12 1    
    10    7    8 ar   
    11    8    9 ar   
    12   10   11 2    
    13   11   12 1    
    14   12   13 1    
    15   13   14 1    
    16   13   18 1    
    17   14   15 1    
    18   15   16 1    
    19   15   20 1    
    20   16   17 1    
    21   18   19 1    
    22   18   20 1    
    23   20   21 1    
@<TRIPOS>SUBSTRUCTURE
     1 GMC903      1 GROUP   
@<TRIPOS>SET

