#    Name: 6mjf_2_SAH_CAVITY_N1_6
#    Modification time : Fri May 22 19:25:57 2020

@<TRIPOS>MOLECULE
6mjf_2_SAH_CAVITY_N1_6
   88     0     5     0     0
SMALL
NO_CHARGES


@<TRIPOS>ATOM
      1 OG        -51.7200   34.2200   14.5600 O.3       1 SER1        0.0000 
      2 OG        -49.8100   33.3700   14.9000 O.3       1 SER1        0.0000 
      3 OG        -49.5300   33.4200   13.4300 O.3       1 SER1        0.0000 
      4 OG        -49.2500   33.4800   11.9500 O.3       1 SER1        0.0000 
      5 OG        -48.4400   33.9100   15.1800 O.3       1 SER1        0.0000 
      6 OG        -48.7000   35.3600   13.6500 O.3       1 SER1        0.0000 
      7 OG        -47.8800   34.0200   12.2300 O.3       1 SER1        0.0000 
      8 OG        -47.0700   34.4600   15.4600 O.3       1 SER1        0.0000 
      9 OG        -46.5100   34.5600   12.5200 O.3       1 SER1        0.0000 
     10 OG        -45.7000   35.0000   15.7400 O.3       1 SER1        0.0000 
     11 OG        -45.1600   33.6000   15.8000 O.3       1 SER1        0.0000 
     12 OG        -44.6100   32.2100   15.8500 O.3       1 SER1        0.0000 
     13 OG        -45.4200   35.0500   14.2700 O.3       1 SER1        0.0000 
     14 OG        -44.5900   33.7100   12.8500 O.3       1 SER1        0.0000 
     15 OG        -43.5100   34.2000   14.6000 O.3       1 SER1        0.0000 
     16 OG        -42.4200   34.6900   16.3600 O.3       1 SER1        0.0000 
     17 OG        -42.6800   36.1400   14.8300 O.3       1 SER1        0.0000 
     18 OG        -42.1400   34.7400   14.8900 O.3       1 SER1        0.0000 
     19 OG        -42.9400   37.5900   13.3100 O.3       1 SER1        0.0000 
     20 OG        -42.4000   36.1900   13.3600 O.3       1 SER1        0.0000 
     21 OG        -41.8600   34.8000   13.4100 O.3       1 SER1        0.0000 
     22 OG        -41.3100   33.4000   13.4700 O.3       1 SER1        0.0000 
     23 OG        -42.6600   37.6400   11.8300 O.3       1 SER1        0.0000 
     24 OG        -42.1200   36.2500   11.8900 O.3       1 SER1        0.0000 
     25 OG        -41.5700   34.8500   11.9400 O.3       1 SER1        0.0000 
     26 OG        -41.0300   33.4500   11.9900 O.3       1 SER1        0.0000 
     27 N         -51.1800   32.8300   14.6200 N.am      2 ALA2        0.0000 
     28 N         -50.9000   36.1600   14.7900 N.am      2 ALA2        0.0000 
     29 N         -50.3500   34.7700   14.8400 N.am      2 ALA2        0.0000 
     30 N         -48.9600   33.5300   10.4800 N.am      2 ALA2        0.0000 
     31 N         -48.9800   35.3100   15.1300 N.am      2 ALA2        0.0000 
     32 N         -47.6000   34.0700   10.7600 N.am      2 ALA2        0.0000 
     33 N         -46.8100   33.0100   16.9900 N.am      2 ALA2        0.0000 
     34 N         -47.6100   35.8500   15.4100 N.am      2 ALA2        0.0000 
     35 N         -47.3300   35.9100   13.9300 N.am      2 ALA2        0.0000 
     36 N         -47.0500   35.9600   12.4600 N.am      2 ALA2        0.0000 
     37 N         -46.2300   34.6200   11.0400 N.am      2 ALA2        0.0000 
     38 N         -45.7200   33.5000   18.7400 N.am      2 ALA2        0.0000 
     39 N         -45.9800   34.9500   17.2100 N.am      2 ALA2        0.0000 
     40 N         -45.4400   33.5500   17.2700 N.am      2 ALA2        0.0000 
     41 N         -46.2400   36.4000   15.6900 N.am      2 ALA2        0.0000 
     42 N         -45.6800   36.5000   12.7400 N.am      2 ALA2        0.0000 
     43 N         -45.1400   35.1100   12.8000 N.am      2 ALA2        0.0000 
     44 N         -44.8700   36.9400   15.9700 N.am      2 ALA2        0.0000 
     45 N         -44.0500   35.6000   14.5500 N.am      2 ALA2        0.0000 
     46 N         -44.3100   37.0500   13.0300 N.am      2 ALA2        0.0000 
     47 N         -43.7700   35.6500   13.0800 N.am      2 ALA2        0.0000 
     48 N         -43.4900   35.7000   11.6100 N.am      2 ALA2        0.0000 
     49 N         -42.9400   34.3100   11.6600 N.am      2 ALA2        0.0000 
     50 N         -43.2200   37.5400   14.7800 N.am      2 ALA2        0.0000 
     51 N         -42.3800   37.7000   10.3600 N.am      2 ALA2        0.0000 
     52 CZ        -50.3300   32.9900   10.2000 C.ar      3 PHE5        0.0000 
     53 CZ        -50.6100   36.2200   13.3200 C.ar      3 PHE5        0.0000 
     54 CZ        -50.0700   34.8200   13.3700 C.ar      3 PHE5        0.0000 
     55 CZ        -49.7900   34.8700   11.9000 C.ar      3 PHE5        0.0000 
     56 CZ        -48.7000   32.0800   12.0100 C.ar      3 PHE5        0.0000 
     57 CZ        -49.5100   34.9300   10.4300 C.ar      3 PHE5        0.0000 
     58 CZ        -48.4200   32.1300   10.5300 C.ar      3 PHE5        0.0000 
     59 CZ        -48.9600   36.8100   12.1300 C.ar      3 PHE5        0.0000 
     60 CZ        -48.4200   35.4200   12.1800 C.ar      3 PHE5        0.0000 
     61 CZ        -47.0500   32.6800   10.8200 C.ar      3 PHE5        0.0000 
     62 CZ        -44.6100   35.4900   17.5000 C.ar      3 PHE5        0.0000 
     63 CZ        -44.0700   34.0900   17.5500 C.ar      3 PHE5        0.0000 
     64 CZ        -42.9600   32.8000   14.6600 C.ar      3 PHE5        0.0000 
     65 CZ        -42.6800   32.8600   13.1900 C.ar      3 PHE5        0.0000 
     66 CZ        -42.1400   31.4600   13.2400 C.ar      3 PHE5        0.0000 
     67 CZ        -43.5000   37.4800   16.2500 C.ar      3 PHE5        0.0000 
     68 CZ        -42.9600   36.0900   16.3000 C.ar      3 PHE5        0.0000 
     69 CA        -51.4400   34.2800   13.0900 C.3       4 GLY6        0.0000 
     70 CA        -50.9000   32.8800   13.1400 C.3       4 GLY6        0.0000 
     71 CA        -50.6200   32.9300   11.6700 C.3       4 GLY6        0.0000 
     72 CA        -50.0700   31.5400   11.7300 C.3       4 GLY6        0.0000 
     73 CA        -49.7900   31.5900   10.2500 C.3       4 GLY6        0.0000 
     74 CA        -49.2400   36.7600   13.6000 C.3       4 GLY6        0.0000 
     75 CA        -48.1400   35.4700   10.7100 C.3       4 GLY6        0.0000 
     76 CA        -47.0900   32.9500   18.4600 C.3       4 GLY6        0.0000 
     77 CA        -46.5500   31.5600   18.5100 C.3       4 GLY6        0.0000 
     78 CA        -48.1600   37.2500   15.3500 C.3       4 GLY6        0.0000 
     79 CA        -44.9000   32.1500   17.3200 C.3       4 GLY6        0.0000 
     80 CA        -44.3100   33.7600   11.3800 C.3       4 GLY6        0.0000 
     81 CA        -43.2400   32.7500   16.1300 C.3       4 GLY6        0.0000 
     82 CA        -42.6600   34.3600   10.1900 C.3       4 GLY6        0.0000 
     83 CA        -41.8400   36.3000   10.4200 C.3       4 GLY6        0.0000 
     84 CA        -41.2900   34.9000   10.4700 C.3       4 GLY6        0.0000 
     85 DU        -44.3300   35.5400   16.0200 H         5 CUB7        0.0000 
     86 DU        -43.7900   34.1500   16.0800 H         5 CUB7        0.0000 
     87 DU        -43.2200   34.2500   13.1300 H         5 CUB7        0.0000 
     88 DU        -42.4000   32.9100   11.7100 H         5 CUB7        0.0000 
@<TRIPOS>BOND
@<TRIPOS>SUBSTRUCTURE
     1 SER1        1 GROUP   
     2 ALA2       27 GROUP   
     3 PHE5       52 GROUP   
     4 GLY6       69 GROUP   
     5 CUB7       85 GROUP   
@<TRIPOS>SET

