#    Name: 6mjf_2_SAH
#    Modification time : Fri May 22 19:25:55 2020

@<TRIPOS>MOLECULE
6mjf_2_SAH
   26    28     1     0     0
SMALL
NO_CHARGES


@<TRIPOS>ATOM
      1 N         -46.9260   32.3860    8.6920 N.4       1 SAH500      0.0000 
      2 CA        -47.9940   32.3620    9.6860 C.3       1 SAH500      0.0000 
      3 CB        -48.0410   33.6750   10.4620 C.3       1 SAH500      0.0000 
      4 CG        -46.8770   33.8870   11.4230 C.3       1 SAH500      0.0000 
      5 SD        -46.7430   35.6050   11.9810 S.3       1 SAH500      0.0000 
      6 C         -49.3480   32.0910    9.0430 C.2       1 SAH500      0.0000 
      7 O         -49.4310   31.5150    7.9570 O.co2     1 SAH500      0.0000 
      8 OXT       -50.3890   32.4340    9.6040 O.co2     1 SAH500      0.0000 
      9 C5'       -47.5340   35.1960   13.5560 C.3       1 SAH500      0.0000 
     10 C4'       -48.9750   35.6870   13.5880 C.3       1 SAH500      0.0000 
     11 O4'       -49.8270   34.7680   12.9250 O.3       1 SAH500      0.0000 
     12 C3'       -49.5100   35.8290   15.0030 C.3       1 SAH500      0.0000 
     13 O3'       -49.3000   37.1240   15.5060 O.3       1 SAH500      0.0000 
     14 C2'       -50.9830   35.5440   14.8510 C.3       1 SAH500      0.0000 
     15 O2'       -51.6850   36.7320   14.5690 O.3       1 SAH500      0.0000 
     16 C1'       -51.0420   34.6410   13.6380 C.3       1 SAH500      0.0000 
     17 N9        -51.1800   33.2690   14.1440 N.pl3     1 SAH500      0.0000 
     18 C8        -50.1830   32.3420   14.2930 C.2       1 SAH500      0.0000 
     19 N7        -50.7250   31.2150   14.8070 N.2       1 SAH500      0.0000 
     20 C5        -52.0460   31.4210   15.0020 C.ar      1 SAH500      0.0000 
     21 C6        -53.0580   30.6160   15.5000 C.ar      1 SAH500      0.0000 
     22 N6        -52.7980   29.3740   15.8990 N.pl3     1 SAH500      0.0000 
     23 N1        -54.3380   31.1170   15.5790 N.ar      1 SAH500      0.0000 
     24 C2        -54.6160   32.4040   15.1690 C.ar      1 SAH500      0.0000 
     25 N3        -53.6050   33.1980   14.6760 N.ar      1 SAH500      0.0000 
     26 C4        -52.3440   32.7110   14.5930 C.ar      1 SAH500      0.0000 
@<TRIPOS>BOND
     1    1    2 1    
     2    2    3 1    
     3    2    6 1    
     4    3    4 1    
     5    4    5 1    
     6    5    9 1    
     7    6    7 ar   
     8    6    8 ar   
     9    9   10 1    
    10   10   11 1    
    11   10   12 1    
    12   11   16 1    
    13   12   13 1    
    14   12   14 1    
    15   14   15 1    
    16   14   16 1    
    17   16   17 1    
    18   17   18 1    
    19   17   26 1    
    20   18   19 2    
    21   19   20 1    
    22   20   21 ar   
    23   20   26 ar   
    24   21   22 1    
    25   21   23 ar   
    26   23   24 ar   
    27   24   25 ar   
    28   25   26 ar   
@<TRIPOS>SUBSTRUCTURE
     1 SAH500      1 GROUP   
@<TRIPOS>SET

