#    Name: 6mjf_1_SAH
#    Modification time : Fri May 22 19:25:47 2020

@<TRIPOS>MOLECULE
6mjf_1_SAH
   26    28     1     0     0
SMALL
NO_CHARGES


@<TRIPOS>ATOM
      1 N         -62.1540   28.1470   -3.5890 N.4       1 SAH500      0.0000 
      2 CA        -61.2060   28.6460   -4.5790 C.3       1 SAH500      0.0000 
      3 CB        -61.8390   29.7450   -5.4250 C.3       1 SAH500      0.0000 
      4 CG        -63.0540   29.3080   -6.2370 C.3       1 SAH500      0.0000 
      5 SD        -64.0530   30.7080   -6.8040 S.3       1 SAH500      0.0000 
      6 C         -59.9350   29.1630   -3.9180 C.2       1 SAH500      0.0000 
      7 O         -59.2660   30.0550   -4.4400 O.co2     1 SAH500      0.0000 
      8 OXT       -59.5460   28.6910   -2.8500 O.co2     1 SAH500      0.0000 
      9 C5'       -63.1620   30.7760   -8.3800 C.3       1 SAH500      0.0000 
     10 C4'       -62.2050   31.9620   -8.4390 C.3       1 SAH500      0.0000 
     11 O4'       -60.9960   31.6510   -7.7680 O.3       1 SAH500      0.0000 
     12 C3'       -61.8140   32.3350   -9.8600 C.3       1 SAH500      0.0000 
     13 O3'       -62.6800   33.2980  -10.4090 O.3       1 SAH500      0.0000 
     14 C2'       -60.4180   32.8880   -9.7060 C.3       1 SAH500      0.0000 
     15 O2'       -60.4660   34.2660   -9.4190 O.3       1 SAH500      0.0000 
     16 C1'       -59.8900   32.1610   -8.4890 C.3       1 SAH500      0.0000 
     17 N9        -59.0530   31.0520   -8.9720 N.pl3     1 SAH500      0.0000 
     18 C8        -59.4440   29.7510   -9.1540 C.2       1 SAH500      0.0000 
     19 N7        -58.3890   29.0490   -9.6270 N.2       1 SAH500      0.0000 
     20 C5        -57.3390   29.8890   -9.7610 C.ar      1 SAH500      0.0000 
     21 C6        -56.0380   29.6980  -10.2010 C.ar      1 SAH500      0.0000 
     22 N6        -55.6290   28.4950  -10.5930 N.pl3     1 SAH500      0.0000 
     23 N1        -55.1710   30.7690  -10.2280 N.ar      1 SAH500      0.0000 
     24 C2        -55.5920   32.0180   -9.8240 C.ar      1 SAH500      0.0000 
     25 N3        -56.8870   32.2000   -9.3900 N.ar      1 SAH500      0.0000 
     26 C4        -57.7440   31.1520   -9.3570 C.ar      1 SAH500      0.0000 
@<TRIPOS>BOND
     1    1    2 1    
     2    2    3 1    
     3    2    6 1    
     4    3    4 1    
     5    4    5 1    
     6    5    9 1    
     7    6    7 ar   
     8    6    8 ar   
     9    9   10 1    
    10   10   11 1    
    11   10   12 1    
    12   11   16 1    
    13   12   13 1    
    14   12   14 1    
    15   14   15 1    
    16   14   16 1    
    17   16   17 1    
    18   17   18 1    
    19   17   26 1    
    20   18   19 2    
    21   19   20 1    
    22   20   21 ar   
    23   20   26 ar   
    24   21   22 1    
    25   21   23 ar   
    26   23   24 ar   
    27   24   25 ar   
    28   25   26 ar   
@<TRIPOS>SUBSTRUCTURE
     1 SAH500      1 GROUP   
@<TRIPOS>SET

