#    Name: 6mjf_4_SAH_CAVITY_N1_4
#    Modification time : Fri May 22 19:26:05 2020

@<TRIPOS>MOLECULE
6mjf_4_SAH_CAVITY_N1_4
   71     0     5     0     0
SMALL
NO_CHARGES


@<TRIPOS>ATOM
      1 OG         -3.6600    9.4200  -27.5700 O.3       1 SER1        0.0000 
      2 OG         -2.0300    5.2300  -27.4100 O.3       1 SER1        0.0000 
      3 OG         -2.8300    8.0800  -28.9900 O.3       1 SER1        0.0000 
      4 OG         -2.3100    8.4700  -24.2900 O.3       1 SER1        0.0000 
      5 OG         -1.7600    7.0700  -24.2300 O.3       1 SER1        0.0000 
      6 OG         -1.2200    5.6700  -24.1800 O.3       1 SER1        0.0000 
      7 OG         -2.5700    9.9200  -25.8100 O.3       1 SER1        0.0000 
      8 OG         -0.9400    5.7200  -25.6500 O.3       1 SER1        0.0000 
      9 OG         -2.2900    9.9700  -27.2900 O.3       1 SER1        0.0000 
     10 OG         -0.6600    5.7800  -27.1300 O.3       1 SER1        0.0000 
     11 OG          0.4300    2.9800  -27.0200 O.3       1 SER1        0.0000 
     12 OG         -0.1100    7.6600  -25.4300 O.3       1 SER1        0.0000 
     13 O          -1.7700    0.5000  -27.5300 O.2       2 ALA2        0.0000 
     14 N          -3.1500    5.0200  -21.5200 N.am      2 ALA2        0.0000 
     15 N          -0.9400    2.4400  -27.3000 N.am      2 ALA2        0.0000 
     16 N          -0.4000    1.0400  -27.2500 N.am      2 ALA2        0.0000 
     17 N          -1.7800    5.5700  -21.2400 N.am      2 ALA2        0.0000 
     18 O          -1.2400    4.1700  -21.1800 O.2       2 ALA2        0.0000 
     19 N          -2.0500    7.0200  -22.7600 N.am      2 ALA2        0.0000 
     20 N          -1.5000    5.6200  -22.7100 N.am      2 ALA2        0.0000 
     21 N          -3.3900   11.2600  -24.4000 N.am      2 ALA2        0.0000 
     22 N          -2.8500    9.8600  -24.3400 N.am      2 ALA2        0.0000 
     23 N          -2.0100   10.0200  -28.7600 N.am      2 ALA2        0.0000 
     24 N          -1.4600    8.6200  -28.7100 N.am      2 ALA2        0.0000 
     25 N          -0.6800    7.5600  -22.4800 N.am      2 ALA2        0.0000 
     26 N          -2.0200   11.8000  -24.1100 N.am      2 ALA2        0.0000 
     27 N          -0.9400    9.0100  -24.0100 N.am      2 ALA2        0.0000 
     28 O          -1.7400   11.8600  -25.5900 O.2       2 ALA2        0.0000 
     29 O          -1.2000   10.4600  -25.5300 O.2       2 ALA2        0.0000 
     30 O          -0.6600    9.0600  -25.4800 O.2       2 ALA2        0.0000 
     31 O          -0.9200   10.5100  -27.0100 O.2       2 ALA2        0.0000 
     32 O          -0.3800    9.1100  -26.9500 O.2       2 ALA2        0.0000 
     33 N           0.1700    7.7200  -26.9000 N.am      2 ALA2        0.0000 
     34 N           0.7100    6.3200  -26.8400 N.am      2 ALA2        0.0000 
     35 N          -0.6400   10.5600  -28.4800 N.am      2 ALA2        0.0000 
     36 N          -0.0900    9.1700  -28.4200 N.am      2 ALA2        0.0000 
     37 O           2.0800    6.8600  -26.5600 O.2       2 ALA2        0.0000 
     38 O           0.7300   11.1100  -28.2000 O.2       2 ALA2        0.0000 
     39 CZ         -3.1400    3.2400  -26.1600 C.ar      3 PHE5        0.0000 
     40 CZ         -3.4200    6.4700  -23.0400 C.ar      3 PHE5        0.0000 
     41 CZ         -2.8700    5.0700  -22.9900 C.ar      3 PHE5        0.0000 
     42 CZ         -4.2200    9.3200  -24.6200 C.ar      3 PHE5        0.0000 
     43 CZ         -2.5900    5.1300  -24.4600 C.ar      3 PHE5        0.0000 
     44 CZ         -0.1300    6.1600  -22.4300 C.ar      3 PHE5        0.0000 
     45 CZ          0.1500    6.2100  -23.9000 C.ar      3 PHE5        0.0000 
     46 CZ          0.4300    6.2700  -25.3700 C.ar      3 PHE5        0.0000 
     47 CZ          0.9700    4.8700  -25.3200 C.ar      3 PHE5        0.0000 
     48 CZ          1.8000    6.8100  -25.0900 C.ar      3 PHE5        0.0000 
     49 CA         -3.6800    1.3500  -27.8600 C.3       4 GLY6        0.0000 
     50 CA         -2.5900    1.8400  -26.1100 C.3       4 GLY6        0.0000 
     51 CA         -2.0500    0.4500  -26.0500 C.3       4 GLY6        0.0000 
     52 CA         -2.8500    3.2900  -27.6300 C.3       4 GLY6        0.0000 
     53 CA         -2.3100    1.9000  -27.5800 C.3       4 GLY6        0.0000 
     54 CA         -2.3300    3.6800  -22.9400 C.3       4 GLY6        0.0000 
     55 CA         -2.0500    3.7300  -24.4100 C.3       4 GLY6        0.0000 
     56 CA         -1.7700    3.7800  -25.8800 C.3       4 GLY6        0.0000 
     57 CA         -1.2200    2.3900  -25.8300 C.3       4 GLY6        0.0000 
     58 CA         -1.4800    3.8400  -27.3500 C.3       4 GLY6        0.0000 
     59 CA         -3.6800   11.2100  -22.9200 C.3       4 GLY6        0.0000 
     60 CA         -3.1300    9.8100  -22.8700 C.3       4 GLY6        0.0000 
     61 CA         -2.5900    8.4100  -22.8200 C.3       4 GLY6        0.0000 
     62 CA         -0.9600    4.2200  -22.6500 C.3       4 GLY6        0.0000 
     63 CA         -0.6800    4.2700  -24.1300 C.3       4 GLY6        0.0000 
     64 CA         -0.4000    4.3300  -25.6000 C.3       4 GLY6        0.0000 
     65 CA         -0.1100    4.3800  -27.0700 C.3       4 GLY6        0.0000 
     66 CA         -0.3900    7.6100  -23.9500 C.3       4 GLY6        0.0000 
     67 CA          0.9700    8.1500  -23.6700 C.3       4 GLY6        0.0000 
     68 CA          1.2600    8.2100  -25.1400 C.3       4 GLY6        0.0000 
     69 CA          1.5400    8.2600  -26.6200 C.3       4 GLY6        0.0000 
     70 CA          1.2800    9.7100  -28.1400 C.3       4 GLY6        0.0000 
     71 DU         -3.1100   11.3100  -25.8700 H         5 CUB7        0.0000 
@<TRIPOS>BOND
@<TRIPOS>SUBSTRUCTURE
     1 SER1        1 GROUP   
     2 ALA2       13 GROUP   
     3 PHE5       39 GROUP   
     4 GLY6       49 GROUP   
     5 CUB7       71 GROUP   
@<TRIPOS>SET

