#    Name: 6mjf_5_SAH
#    Modification time : Fri May 22 19:26:11 2020

@<TRIPOS>MOLECULE
6mjf_5_SAH
   26    28     1     0     0
SMALL
NO_CHARGES


@<TRIPOS>ATOM
      1 N        -118.6360   60.6730   28.4980 N.4       1 SAH500      0.0000 
      2 CA       -117.6400   60.7100   29.5630 C.3       1 SAH500      0.0000 
      3 CB       -117.7060   59.4330   30.3930 C.3       1 SAH500      0.0000 
      4 CG       -119.0760   59.1830   31.0130 C.3       1 SAH500      0.0000 
      5 SD       -119.3510   57.4510   31.4580 S.3       1 SAH500      0.0000 
      6 C        -116.2350   60.9130   29.0100 C.2       1 SAH500      0.0000 
      7 O        -116.0620   61.2460   27.8370 O.co2     1 SAH500      0.0000 
      8 OXT      -115.2450   60.7590   29.7250 O.co2     1 SAH500      0.0000 
      9 C5'      -118.8520   57.7770   33.1670 C.3       1 SAH500      0.0000 
     10 C4'      -117.4990   57.1550   33.4850 C.3       1 SAH500      0.0000 
     11 O4'      -116.4440   57.9690   33.0050 O.3       1 SAH500      0.0000 
     12 C3'      -117.2770   57.0080   34.9800 C.3       1 SAH500      0.0000 
     13 O3'      -117.7180   55.7600   35.4520 O.3       1 SAH500      0.0000 
     14 C2'      -115.7830   57.1420   35.1350 C.3       1 SAH500      0.0000 
     15 O2'      -115.1680   55.8780   35.0510 O.3       1 SAH500      0.0000 
     16 C1'      -115.3790   57.9740   33.9370 C.3       1 SAH500      0.0000 
     17 N9       -115.1510   59.3360   34.4370 N.pl3     1 SAH500      0.0000 
     18 C8       -116.0710   60.3490   34.5120 C.2       1 SAH500      0.0000 
     19 N7       -115.4660   61.4330   35.0490 N.2       1 SAH500      0.0000 
     20 C5       -114.1830   61.1150   35.3300 C.ar      1 SAH500      0.0000 
     21 C6       -113.1380   61.8370   35.8850 C.ar      1 SAH500      0.0000 
     22 N6       -113.3130   63.1030   36.2530 N.pl3     1 SAH500      0.0000 
     23 N1       -111.9130   61.2260   36.0500 N.ar      1 SAH500      0.0000 
     24 C2       -111.7230   59.9150   35.6730 C.ar      1 SAH500      0.0000 
     25 N3       -112.7680   59.2060   35.1230 N.ar      1 SAH500      0.0000 
     26 C4       -113.9730   59.7980   34.9540 C.ar      1 SAH500      0.0000 
@<TRIPOS>BOND
     1    1    2 1    
     2    2    3 1    
     3    2    6 1    
     4    3    4 1    
     5    4    5 1    
     6    5    9 1    
     7    6    7 ar   
     8    6    8 ar   
     9    9   10 1    
    10   10   11 1    
    11   10   12 1    
    12   11   16 1    
    13   12   13 1    
    14   12   14 1    
    15   14   15 1    
    16   14   16 1    
    17   16   17 1    
    18   17   18 1    
    19   17   26 1    
    20   18   19 2    
    21   19   20 1    
    22   20   21 ar   
    23   20   26 ar   
    24   21   22 1    
    25   21   23 ar   
    26   23   24 ar   
    27   24   25 ar   
    28   25   26 ar   
@<TRIPOS>SUBSTRUCTURE
     1 SAH500      1 GROUP   
@<TRIPOS>SET

