#    Name: 6mjf_1_SAH_CAVITY_N1_6
#    Modification time : Fri May 22 19:25:49 2020

@<TRIPOS>MOLECULE
6mjf_1_SAH_CAVITY_N1_6
   48     0     6     0     0
SMALL
NO_CHARGES


@<TRIPOS>ATOM
      1 OG        -69.4300   31.3900   -5.7300 O.3       1 SER1        0.0000 
      2 OG        -69.1500   31.4400   -7.2000 O.3       1 SER1        0.0000 
      3 OG        -68.6000   30.0500   -7.1500 O.3       1 SER1        0.0000 
      4 OG        -68.0600   28.6500   -7.1000 O.3       1 SER1        0.0000 
      5 OG        -67.5200   27.2500   -7.0400 O.3       1 SER1        0.0000 
      6 OG        -66.9700   25.8600   -6.9900 O.3       1 SER1        0.0000 
      7 OG        -68.8700   31.5000   -8.6800 O.3       1 SER1        0.0000 
      8 OG        -68.3200   30.1000   -8.6200 O.3       1 SER1        0.0000 
      9 OG        -67.7800   28.7000   -8.5700 O.3       1 SER1        0.0000 
     10 OG        -67.2400   27.3100   -8.5200 O.3       1 SER1        0.0000 
     11 OG        -66.6900   25.9100   -8.4600 O.3       1 SER1        0.0000 
     12 OG        -68.0400   30.1500  -10.1000 O.3       1 SER1        0.0000 
     13 OG        -67.5000   28.7600  -10.0400 O.3       1 SER1        0.0000 
     14 OG        -66.9600   27.3600   -9.9900 O.3       1 SER1        0.0000 
     15 OG        -65.8700   27.8500   -8.2300 O.3       1 SER1        0.0000 
     16 N         -68.8900   29.9900   -5.6800 N.am      2 ALA2        0.0000 
     17 N         -68.3400   28.6000   -5.6200 N.am      2 ALA2        0.0000 
     18 N         -66.4300   24.4600   -6.9400 N.am      2 ALA2        0.0000 
     19 N         -68.6000   33.3300   -5.5000 N.am      2 ALA2        0.0000 
     20 N         -68.0600   31.9300   -5.4500 N.am      2 ALA2        0.0000 
     21 N         -67.2400   30.5900   -6.8700 N.am      2 ALA2        0.0000 
     22 N         -66.6900   29.1900   -6.8200 N.am      2 ALA2        0.0000 
     23 N         -66.1500   27.8000   -6.7600 N.am      2 ALA2        0.0000 
     24 N         -66.9500   30.6400   -8.3400 N.am      2 ALA2        0.0000 
     25 N         -66.4100   29.2500   -8.2900 N.am      2 ALA2        0.0000 
     26 N         -66.6700   30.7000   -9.8100 N.am      2 ALA2        0.0000 
     27 N         -66.9300   32.1500  -11.3400 N.am      2 ALA2        0.0000 
     28 N         -64.7800   28.3400   -6.4800 N.am      2 ALA2        0.0000 
     29 N         -65.5600   32.6900  -11.0600 N.am      2 ALA2        0.0000 
     30 N         -65.0200   31.2900  -11.0100 N.am      2 ALA2        0.0000 
     31 N         -63.3700   28.6000  -13.8400 N.am      2 ALA2        0.0000 
     32 OD1       -68.5900   31.5500  -10.1500 O.co2     3 ASP3        0.0000 
     33 OD1       -68.3000   31.6000  -11.6200 O.co2     3 ASP3        0.0000 
     34 CZ        -67.2600   25.8000   -5.5200 C.ar      4 PHE5        0.0000 
     35 CZ        -67.7600   30.2100  -11.5700 C.ar      4 PHE5        0.0000 
     36 CZ        -67.2200   28.8100  -11.5100 C.ar      4 PHE5        0.0000 
     37 CZ        -65.6100   26.4000   -6.7100 C.ar      4 PHE5        0.0000 
     38 CZ        -65.3200   26.4500   -8.1800 C.ar      4 PHE5        0.0000 
     39 CZ        -66.3900   30.7500  -11.2900 C.ar      4 PHE5        0.0000 
     40 CZ        -66.1100   30.8000  -12.7600 C.ar      4 PHE5        0.0000 
     41 CZ        -65.5700   29.4000  -12.7100 C.ar      4 PHE5        0.0000 
     42 CZ        -65.2800   29.4600  -14.1800 C.ar      4 PHE5        0.0000 
     43 CZ        -67.2300   33.8700   -5.2200 C.ar      4 PHE5        0.0000 
     44 CA        -67.8000   27.2000   -5.5700 C.3       5 GLY6        0.0000 
     45 CA        -68.3400   31.8800   -3.9800 C.3       5 GLY6        0.0000 
     46 CA        -66.4300   27.7400   -5.2900 C.3       5 GLY6        0.0000 
     47 CA        -67.5200   33.8200   -3.7500 C.3       5 GLY6        0.0000 
     48 DU        -66.1300   29.3000   -9.7600 H         6 CUB7        0.0000 
@<TRIPOS>BOND
@<TRIPOS>SUBSTRUCTURE
     1 SER1        1 GROUP   
     2 ALA2       16 GROUP   
     3 ASP3       32 GROUP   
     4 PHE5       34 GROUP   
     5 GLY6       44 GROUP   
     6 CUB7       48 GROUP   
@<TRIPOS>SET

