#    Name: 6mjf_1_SAH_CAVITY_N1_8
#    Modification time : Fri May 22 19:25:49 2020

@<TRIPOS>MOLECULE
6mjf_1_SAH_CAVITY_N1_8
   95     0     7     0     0
SMALL
NO_CHARGES


@<TRIPOS>ATOM
      1 OG        -71.0600   32.3000   -7.5400 O.3       1 SER1        0.0000 
      2 OG        -68.3400   25.3100   -7.2700 O.3       1 SER1        0.0000 
      3 OG        -69.4100   29.6100  -10.3800 O.3       1 SER1        0.0000 
      4 OG        -68.8700   28.2100  -10.3200 O.3       1 SER1        0.0000 
      5 OG        -68.5900   28.2600  -11.8000 O.3       1 SER1        0.0000 
      6 OG        -68.0400   26.8700  -11.7400 O.3       1 SER1        0.0000 
      7 OG        -69.4300   31.3900   -5.7300 O.3       1 SER1        0.0000 
      8 OG        -69.1500   31.4400   -7.2000 O.3       1 SER1        0.0000 
      9 OG        -68.6000   30.0500   -7.1500 O.3       1 SER1        0.0000 
     10 OG        -68.0600   28.6500   -7.1000 O.3       1 SER1        0.0000 
     11 OG        -67.5200   27.2500   -7.0400 O.3       1 SER1        0.0000 
     12 OG        -66.9700   25.8600   -6.9900 O.3       1 SER1        0.0000 
     13 OG        -68.8700   31.5000   -8.6800 O.3       1 SER1        0.0000 
     14 OG        -68.3200   30.1000   -8.6200 O.3       1 SER1        0.0000 
     15 OG        -67.7800   28.7000   -8.5700 O.3       1 SER1        0.0000 
     16 OG        -67.2400   27.3100   -8.5200 O.3       1 SER1        0.0000 
     17 OG        -66.6900   25.9100   -8.4600 O.3       1 SER1        0.0000 
     18 OG        -68.0400   30.1500  -10.1000 O.3       1 SER1        0.0000 
     19 OG        -67.5000   28.7600  -10.0400 O.3       1 SER1        0.0000 
     20 OG        -66.9600   27.3600   -9.9900 O.3       1 SER1        0.0000 
     21 OG        -66.4100   25.9600   -9.9300 O.3       1 SER1        0.0000 
     22 OG        -65.5700   26.1200  -14.3500 O.3       1 SER1        0.0000 
     23 OG        -65.8700   27.8500   -8.2300 O.3       1 SER1        0.0000 
     24 O         -69.7100   31.3400   -4.2600 O.2       2 ALA2        0.0000 
     25 N         -68.8900   29.9900   -5.6800 N.am      2 ALA2        0.0000 
     26 N         -68.3400   28.6000   -5.6200 N.am      2 ALA2        0.0000 
     27 O         -70.2300   34.2400   -7.3100 O.2       2 ALA2        0.0000 
     28 N         -69.6900   32.8400   -7.2600 N.am      2 ALA2        0.0000 
     29 N         -66.4300   24.4600   -6.9400 N.am      2 ALA2        0.0000 
     30 N         -66.1500   24.5100   -8.4100 N.am      2 ALA2        0.0000 
     31 O         -69.1500   34.7300   -5.5600 O.2       2 ALA2        0.0000 
     32 N         -68.6000   33.3300   -5.5000 N.am      2 ALA2        0.0000 
     33 N         -68.0600   31.9300   -5.4500 N.am      2 ALA2        0.0000 
     34 N         -67.2400   30.5900   -6.8700 N.am      2 ALA2        0.0000 
     35 N         -66.6900   29.1900   -6.8200 N.am      2 ALA2        0.0000 
     36 N         -66.1500   27.8000   -6.7600 N.am      2 ALA2        0.0000 
     37 N         -66.9500   30.6400   -8.3400 N.am      2 ALA2        0.0000 
     38 N         -66.4100   29.2500   -8.2900 N.am      2 ALA2        0.0000 
     39 N         -66.6700   30.7000   -9.8100 N.am      2 ALA2        0.0000 
     40 N         -66.9300   32.1500  -11.3400 N.am      2 ALA2        0.0000 
     41 O         -67.7800   35.2700   -5.2800 O.2       2 ALA2        0.0000 
     42 N         -64.7800   28.3400   -6.4800 N.am      2 ALA2        0.0000 
     43 N         -65.5600   32.6900  -11.0600 N.am      2 ALA2        0.0000 
     44 N         -65.0200   31.2900  -11.0100 N.am      2 ALA2        0.0000 
     45 N         -63.3700   28.6000  -13.8400 N.am      2 ALA2        0.0000 
     46 OD1       -68.5900   31.5500  -10.1500 O.co2     3 ASP3        0.0000 
     47 OD1       -68.3000   31.6000  -11.6200 O.co2     3 ASP3        0.0000 
     48 NZ        -69.1700   33.2300   -2.5600 N.4       4 LYS4        0.0000 
     49 CZ        -71.3400   32.2400   -6.0700 C.ar      5 PHE5        0.0000 
     50 CZ        -67.5000   25.4700  -11.6900 C.ar      5 PHE5        0.0000 
     51 CZ        -68.3100   28.3200  -13.2700 C.ar      5 PHE5        0.0000 
     52 CZ        -67.7600   26.9200  -13.2100 C.ar      5 PHE5        0.0000 
     53 CZ        -67.2600   25.8000   -5.5200 C.ar      5 PHE5        0.0000 
     54 CZ        -67.7600   30.2100  -11.5700 C.ar      5 PHE5        0.0000 
     55 CZ        -67.2200   28.8100  -11.5100 C.ar      5 PHE5        0.0000 
     56 CZ        -66.9400   28.8600  -12.9900 C.ar      5 PHE5        0.0000 
     57 CZ        -65.8500   26.0700  -12.8800 C.ar      5 PHE5        0.0000 
     58 CZ        -66.1100   27.5200  -14.4100 C.ar      5 PHE5        0.0000 
     59 CZ        -65.6100   26.4000   -6.7100 C.ar      5 PHE5        0.0000 
     60 CZ        -65.3200   26.4500   -8.1800 C.ar      5 PHE5        0.0000 
     61 CZ        -66.3900   30.7500  -11.2900 C.ar      5 PHE5        0.0000 
     62 CZ        -66.1100   30.8000  -12.7600 C.ar      5 PHE5        0.0000 
     63 CZ        -65.5700   29.4000  -12.7100 C.ar      5 PHE5        0.0000 
     64 CZ        -65.2800   29.4600  -14.1800 C.ar      5 PHE5        0.0000 
     65 CZ        -64.7400   28.0600  -14.1200 C.ar      5 PHE5        0.0000 
     66 CZ        -64.4600   28.1100  -15.6000 C.ar      5 PHE5        0.0000 
     67 CZ        -67.2300   33.8700   -5.2200 C.ar      5 PHE5        0.0000 
     68 CA        -69.1300   29.6600  -11.8500 C.3       6 GLY6        0.0000 
     69 CA        -70.5400   32.6800   -2.8400 C.3       6 GLY6        0.0000 
     70 CA        -70.2500   32.7300   -4.3100 C.3       6 GLY6        0.0000 
     71 CA        -67.8000   27.2000   -5.5700 C.3       6 GLY6        0.0000 
     72 CA        -66.1300   26.0100  -11.4100 C.3       6 GLY6        0.0000 
     73 CA        -65.3100   24.6700  -12.8300 C.3       6 GLY6        0.0000 
     74 CA        -68.8800   33.2800   -4.0300 C.3       6 GLY6        0.0000 
     75 CA        -68.3400   31.8800   -3.9800 C.3       6 GLY6        0.0000 
     76 CA        -69.6900   36.1300   -5.6100 C.3       6 GLY6        0.0000 
     77 CA        -66.4300   27.7400   -5.2900 C.3       6 GLY6        0.0000 
     78 CA        -63.6500   25.2700  -14.0200 C.3       6 GLY6        0.0000 
     79 CA        -68.0600   35.2200   -3.8000 C.3       6 GLY6        0.0000 
     80 CA        -67.5200   33.8200   -3.7500 C.3       6 GLY6        0.0000 
     81 CA        -62.8300   27.2100  -13.7900 C.3       6 GLY6        0.0000 
     82 CA        -62.2900   25.8100  -13.7400 C.3       6 GLY6        0.0000 
     83 CA        -63.0900   28.6600  -15.3200 C.3       6 GLY6        0.0000 
     84 CA        -62.5500   27.2600  -15.2600 C.3       6 GLY6        0.0000 
     85 CA        -62.0000   25.8600  -15.2100 C.3       6 GLY6        0.0000 
     86 CA        -61.4600   24.4600  -15.1500 C.3       6 GLY6        0.0000 
     87 CA        -60.6300   26.4100  -14.9300 C.3       6 GLY6        0.0000 
     88 CA        -60.9000   27.8600  -16.4500 C.3       6 GLY6        0.0000 
     89 DU        -70.8000   34.1300   -4.3700 H         7 CUB7        0.0000 
     90 DU        -70.5200   34.1800   -5.8400 H         7 CUB7        0.0000 
     91 DU        -69.9700   32.7900   -5.7900 H         7 CUB7        0.0000 
     92 DU        -66.3900   27.4600  -12.9300 H         7 CUB7        0.0000 
     93 DU        -69.4300   34.6800   -4.0900 H         7 CUB7        0.0000 
     94 DU        -66.1300   29.3000   -9.7600 H         7 CUB7        0.0000 
     95 DU        -64.2000   26.6600  -14.0700 H         7 CUB7        0.0000 
@<TRIPOS>BOND
@<TRIPOS>SUBSTRUCTURE
     1 SER1        1 GROUP   
     2 ALA2       24 GROUP   
     3 ASP3       46 GROUP   
     4 LYS4       48 GROUP   
     5 PHE5       49 GROUP   
     6 GLY6       68 GROUP   
     7 CUB7       89 GROUP   
@<TRIPOS>SET

