#    Name: 6mjf_4_SAH
#    Modification time : Fri May 22 19:26:03 2020

@<TRIPOS>MOLECULE
6mjf_4_SAH
   26    28     1     0     0
SMALL
NO_CHARGES


@<TRIPOS>ATOM
      1 N          -3.1840    7.1910  -21.0730 N.4       1 SAH500      0.0000 
      2 CA         -2.6960    6.2150  -22.0410 C.3       1 SAH500      0.0000 
      3 CB         -1.5310    6.7870  -22.8420 C.3       1 SAH500      0.0000 
      4 CG         -1.9230    7.9010  -23.8080 C.3       1 SAH500      0.0000 
      5 SD         -0.5050    8.8740  -24.3740 S.3       1 SAH500      0.0000 
      6 C          -2.2770    4.9200  -21.3550 C.2       1 SAH500      0.0000 
      7 O          -1.5360    4.1170  -21.9220 O.co2     1 SAH500      0.0000 
      8 OXT        -2.6780    4.6460  -20.2240 O.co2     1 SAH500      0.0000 
      9 C5'        -0.4590    7.9630  -25.9370 C.3       1 SAH500      0.0000 
     10 C4'         0.7010    6.9770  -25.9780 C.3       1 SAH500      0.0000 
     11 O4'         0.3660    5.7830  -25.2920 O.3       1 SAH500      0.0000 
     12 C3'         1.0600    6.5670  -27.3970 C.3       1 SAH500      0.0000 
     13 O3'         2.0310    7.4140  -27.9580 O.3       1 SAH500      0.0000 
     14 C2'         1.6010    5.1690  -27.2240 C.3       1 SAH500      0.0000 
     15 O2'         2.9800    5.2100  -26.9430 O.3       1 SAH500      0.0000 
     16 C1'         0.8660    4.6650  -26.0010 C.3       1 SAH500      0.0000 
     17 N9         -0.2510    3.8530  -26.5010 N.pl3     1 SAH500      0.0000 
     18 C8         -1.5570    4.2470  -26.6370 C.2       1 SAH500      0.0000 
     19 N7         -2.2620    3.2140  -27.1500 N.2       1 SAH500      0.0000 
     20 C5         -1.4190    2.1780  -27.3570 C.ar      1 SAH500      0.0000 
     21 C6         -1.6110    0.9000  -27.8600 C.ar      1 SAH500      0.0000 
     22 N6         -2.8180    0.5020  -28.2490 N.pl3     1 SAH500      0.0000 
     23 N1         -0.5350    0.0460  -27.9540 N.ar      1 SAH500      0.0000 
     24 C2          0.7200    0.4510  -27.5520 C.ar      1 SAH500      0.0000 
     25 N3          0.9020    1.7230  -27.0550 N.ar      1 SAH500      0.0000 
     26 C4         -0.1510    2.5680  -26.9570 C.ar      1 SAH500      0.0000 
@<TRIPOS>BOND
     1    1    2 1    
     2    2    3 1    
     3    2    6 1    
     4    3    4 1    
     5    4    5 1    
     6    5    9 1    
     7    6    7 ar   
     8    6    8 ar   
     9    9   10 1    
    10   10   11 1    
    11   10   12 1    
    12   11   16 1    
    13   12   13 1    
    14   12   14 1    
    15   14   15 1    
    16   14   16 1    
    17   16   17 1    
    18   17   18 1    
    19   17   26 1    
    20   18   19 2    
    21   19   20 1    
    22   20   21 ar   
    23   20   26 ar   
    24   21   22 1    
    25   21   23 ar   
    26   23   24 ar   
    27   24   25 ar   
    28   25   26 ar   
@<TRIPOS>SUBSTRUCTURE
     1 SAH500      1 GROUP   
@<TRIPOS>SET

