#    Name: 6mjf_5_SAH_CAVITY_N1_4
#    Modification time : Fri May 22 19:26:13 2020

@<TRIPOS>MOLECULE
6mjf_5_SAH_CAVITY_N1_4
   67     0     5     0     0
SMALL
NO_CHARGES


@<TRIPOS>ATOM
      1 OG       -121.5800   59.3500   34.2000 O.3       1 SER1        0.0000 
      2 OG       -121.0400   57.9500   34.2600 O.3       1 SER1        0.0000 
      3 OG       -120.7600   58.0000   32.7800 O.3       1 SER1        0.0000 
      4 OG       -121.0200   59.4500   31.2600 O.3       1 SER1        0.0000 
      5 OG       -120.4900   59.8400   35.9600 O.3       1 SER1        0.0000 
      6 OG       -119.6700   58.4900   34.5400 O.3       1 SER1        0.0000 
      7 OG       -119.3900   58.5500   33.0700 O.3       1 SER1        0.0000 
      8 OG       -119.1100   58.6000   31.5900 O.3       1 SER1        0.0000 
      9 OG       -118.3000   59.0400   34.8200 O.3       1 SER1        0.0000 
     10 OG       -117.4700   57.6900   33.4000 O.3       1 SER1        0.0000 
     11 OG       -117.7400   59.1400   31.8700 O.3       1 SER1        0.0000 
     12 OG       -116.9300   59.5800   35.1000 O.3       1 SER1        0.0000 
     13 OG       -116.6500   59.6300   33.6300 O.3       1 SER1        0.0000 
     14 OG       -116.3700   59.6900   32.1600 O.3       1 SER1        0.0000 
     15 OG       -114.7300   58.7800   33.9600 O.3       1 SER1        0.0000 
     16 N        -123.2100   56.9700   30.7500 N.am      2 ALA2        0.0000 
     17 O        -121.8600   56.0100   34.0300 O.2       2 ALA2        0.0000 
     18 O        -122.1300   57.4600   32.5000 O.2       2 ALA2        0.0000 
     19 N        -122.3900   58.9100   30.9800 N.am      2 ALA2        0.0000 
     20 N        -121.8400   57.5100   31.0300 N.am      2 ALA2        0.0000 
     21 N        -121.0600   56.4500   37.2600 N.am      2 ALA2        0.0000 
     22 N        -121.3200   57.9000   35.7300 N.am      2 ALA2        0.0000 
     23 N        -120.7800   56.5000   35.7800 N.am      2 ALA2        0.0000 
     24 O        -120.4900   56.5500   34.3100 O.2       2 ALA2        0.0000 
     25 N        -120.4700   58.0600   31.3100 N.am      2 ALA2        0.0000 
     26 N        -119.9300   56.6600   31.3700 N.am      2 ALA2        0.0000 
     27 N        -118.8600   55.6500   36.1200 N.am      2 ALA2        0.0000 
     28 N        -119.1200   57.1000   34.5900 N.am      2 ALA2        0.0000 
     29 O        -118.8400   57.1500   33.1200 O.2       2 ALA2        0.0000 
     30 N        -118.8200   58.6500   30.1200 N.am      2 ALA2        0.0000 
     31 N        -117.7600   57.6400   34.8700 N.am      2 ALA2        0.0000 
     32 O        -117.2100   56.2400   34.9300 O.2       2 ALA2        0.0000 
     33 N        -117.4500   59.2000   30.4000 N.am      2 ALA2        0.0000 
     34 N        -116.3900   58.1800   35.1500 N.am      2 ALA2        0.0000 
     35 N        -115.8400   56.7900   35.2100 N.am      2 ALA2        0.0000 
     36 N        -114.1900   60.6700   35.6600 N.am      2 ALA2        0.0000 
     37 N        -113.6500   59.2700   35.7200 N.am      2 ALA2        0.0000 
     38 O        -113.3600   62.6100   35.8900 O.2       2 ALA2        0.0000 
     39 N        -112.8200   61.2100   35.9400 N.am      2 ALA2        0.0000 
     40 N        -112.2800   59.8100   36.0000 N.am      2 ALA2        0.0000 
     41 CZ       -116.9300   56.3000   33.4500 C.ar      3 PHE5        0.0000 
     42 CZ       -117.1900   57.7500   31.9300 C.ar      3 PHE5        0.0000 
     43 CZ       -118.0000   60.5900   30.3500 C.ar      3 PHE5        0.0000 
     44 CZ       -116.9100   57.8000   30.4600 C.ar      3 PHE5        0.0000 
     45 CZ       -116.1000   58.2400   33.6800 C.ar      3 PHE5        0.0000 
     46 CZ       -115.5600   56.8400   33.7400 C.ar      3 PHE5        0.0000 
     47 CZ       -115.8200   58.2900   32.2100 C.ar      3 PHE5        0.0000 
     48 CZ       -116.6300   61.1400   30.6300 C.ar      3 PHE5        0.0000 
     49 CZ       -116.0800   59.7400   30.6800 C.ar      3 PHE5        0.0000 
     50 CZ       -115.8200   61.5700   33.8600 C.ar      3 PHE5        0.0000 
     51 CA       -120.2300   55.1000   35.8400 C.3       4 GLY6        0.0000 
     52 CA       -118.3000   55.7500   33.1700 C.3       4 GLY6        0.0000 
     53 CA       -118.5600   57.2000   31.6500 C.3       4 GLY6        0.0000 
     54 CA       -116.1000   61.5200   35.3300 C.3       4 GLY6        0.0000 
     55 CA       -115.5600   60.1200   35.3800 C.3       4 GLY6        0.0000 
     56 CA       -115.0200   58.7300   35.4400 C.3       4 GLY6        0.0000 
     57 CA       -115.2800   60.1800   33.9100 C.3       4 GLY6        0.0000 
     58 CA       -115.2800   63.4600   35.5600 C.3       4 GLY6        0.0000 
     59 CA       -114.7300   62.0600   35.6100 C.3       4 GLY6        0.0000 
     60 CA       -114.4500   62.1200   34.1400 C.3       4 GLY6        0.0000 
     61 CA       -113.9100   60.7200   34.1900 C.3       4 GLY6        0.0000 
     62 CA       -113.3700   59.3200   34.2400 C.3       4 GLY6        0.0000 
     63 CA       -113.0800   62.6600   34.4200 C.3       4 GLY6        0.0000 
     64 CA       -112.5400   61.2600   34.4700 C.3       4 GLY6        0.0000 
     65 CA       -112.0000   59.8700   34.5300 C.3       4 GLY6        0.0000 
     66 DU       -122.4100   57.4100   33.9800 H         5 CUB7        0.0000 
     67 DU       -122.6700   58.8600   32.4500 H         5 CUB7        0.0000 
@<TRIPOS>BOND
@<TRIPOS>SUBSTRUCTURE
     1 SER1        1 GROUP   
     2 ALA2       16 GROUP   
     3 PHE5       41 GROUP   
     4 GLY6       51 GROUP   
     5 CUB7       66 GROUP   
@<TRIPOS>SET

