#    Name: 6mjf_5_SAH_CAVITY_N1_6
#    Modification time : Fri May 22 19:26:13 2020

@<TRIPOS>MOLECULE
6mjf_5_SAH_CAVITY_N1_6
  104     0     6     0     0
SMALL
NO_CHARGES


@<TRIPOS>ATOM
      1 OG       -124.3200   58.2600   33.6400 O.3       1 SER1        0.0000 
      2 OG       -123.7800   56.8600   33.6900 O.3       1 SER1        0.0000 
      3 OG       -123.2300   55.4700   33.7500 O.3       1 SER1        0.0000 
      4 OG       -124.5800   59.7100   32.1100 O.3       1 SER1        0.0000 
      5 OG       -124.0400   58.3100   32.1700 O.3       1 SER1        0.0000 
      6 OG       -123.5000   56.9200   32.2200 O.3       1 SER1        0.0000 
      7 OG       -124.3000   59.7600   30.6400 O.3       1 SER1        0.0000 
      8 OG       -123.7600   58.3700   30.7000 O.3       1 SER1        0.0000 
      9 OG       -123.7800   60.1500   35.3400 O.3       1 SER1        0.0000 
     10 OG       -123.4900   60.2000   33.8700 O.3       1 SER1        0.0000 
     11 OG       -122.9500   58.8000   33.9200 O.3       1 SER1        0.0000 
     12 OG       -122.4100   60.6900   35.6200 O.3       1 SER1        0.0000 
     13 OG       -121.8600   59.3000   35.6800 O.3       1 SER1        0.0000 
     14 OG       -121.5800   59.3500   34.2000 O.3       1 SER1        0.0000 
     15 OG       -121.0400   57.9500   34.2600 O.3       1 SER1        0.0000 
     16 OG       -120.7600   58.0000   32.7800 O.3       1 SER1        0.0000 
     17 OG       -121.0200   59.4500   31.2600 O.3       1 SER1        0.0000 
     18 OG       -121.0400   61.2400   35.9000 O.3       1 SER1        0.0000 
     19 OG       -120.4900   59.8400   35.9600 O.3       1 SER1        0.0000 
     20 OG       -119.6700   58.4900   34.5400 O.3       1 SER1        0.0000 
     21 OG       -119.3900   58.5500   33.0700 O.3       1 SER1        0.0000 
     22 OG       -119.1100   58.6000   31.5900 O.3       1 SER1        0.0000 
     23 OG       -118.3000   59.0400   34.8200 O.3       1 SER1        0.0000 
     24 OG       -117.4700   57.6900   33.4000 O.3       1 SER1        0.0000 
     25 OG       -117.7400   59.1400   31.8700 O.3       1 SER1        0.0000 
     26 OG       -116.9300   59.5800   35.1000 O.3       1 SER1        0.0000 
     27 OG       -116.6500   59.6300   33.6300 O.3       1 SER1        0.0000 
     28 OG       -116.3700   59.6900   32.1600 O.3       1 SER1        0.0000 
     29 OG       -114.7300   58.7800   33.9600 O.3       1 SER1        0.0000 
     30 N        -123.2100   56.9700   30.7500 N.am      2 ALA2        0.0000 
     31 N        -121.8800   54.5100   37.0300 N.am      2 ALA2        0.0000 
     32 O        -122.1500   55.9600   35.5000 O.2       2 ALA2        0.0000 
     33 N        -121.6000   54.5600   35.5600 N.am      2 ALA2        0.0000 
     34 O        -121.8600   56.0100   34.0300 O.2       2 ALA2        0.0000 
     35 O        -122.1300   57.4600   32.5000 O.2       2 ALA2        0.0000 
     36 N        -122.3900   58.9100   30.9800 N.am      2 ALA2        0.0000 
     37 N        -121.8400   57.5100   31.0300 N.am      2 ALA2        0.0000 
     38 N        -121.6000   57.8500   37.2000 N.am      2 ALA2        0.0000 
     39 N        -121.0600   56.4500   37.2600 N.am      2 ALA2        0.0000 
     40 N        -121.3200   57.9000   35.7300 N.am      2 ALA2        0.0000 
     41 N        -120.7800   56.5000   35.7800 N.am      2 ALA2        0.0000 
     42 O        -120.4900   56.5500   34.3100 O.2       2 ALA2        0.0000 
     43 N        -120.4700   58.0600   31.3100 N.am      2 ALA2        0.0000 
     44 N        -119.9300   56.6600   31.3700 N.am      2 ALA2        0.0000 
     45 N        -120.7700   59.7900   37.4300 N.am      2 ALA2        0.0000 
     46 N        -118.8600   55.6500   36.1200 N.am      2 ALA2        0.0000 
     47 N        -119.1200   57.1000   34.5900 N.am      2 ALA2        0.0000 
     48 O        -118.8400   57.1500   33.1200 O.2       2 ALA2        0.0000 
     49 N        -118.8200   58.6500   30.1200 N.am      2 ALA2        0.0000 
     50 N        -117.7600   57.6400   34.8700 N.am      2 ALA2        0.0000 
     51 O        -117.2100   56.2400   34.9300 O.2       2 ALA2        0.0000 
     52 N        -117.4500   59.2000   30.4000 N.am      2 ALA2        0.0000 
     53 N        -116.3900   58.1800   35.1500 N.am      2 ALA2        0.0000 
     54 N        -115.8400   56.7900   35.2100 N.am      2 ALA2        0.0000 
     55 N        -114.1900   60.6700   35.6600 N.am      2 ALA2        0.0000 
     56 N        -113.6500   59.2700   35.7200 N.am      2 ALA2        0.0000 
     57 O        -113.3600   62.6100   35.8900 O.2       2 ALA2        0.0000 
     58 N        -112.8200   61.2100   35.9400 N.am      2 ALA2        0.0000 
     59 N        -112.2800   59.8100   36.0000 N.am      2 ALA2        0.0000 
     60 OD1      -123.5200   55.4100   35.2200 O.co2     3 ASP3        0.0000 
     61 OD1      -122.9700   54.0200   35.2700 O.co2     3 ASP3        0.0000 
     62 CZ       -125.1300   57.8200   30.4100 C.ar      4 PHE5        0.0000 
     63 CZ       -122.9700   57.3000   36.9200 C.ar      4 PHE5        0.0000 
     64 CZ       -122.4300   55.9000   36.9700 C.ar      4 PHE5        0.0000 
     65 CZ       -123.7600   61.6500   32.3400 C.ar      4 PHE5        0.0000 
     66 CZ       -123.2100   60.2500   32.4000 C.ar      4 PHE5        0.0000 
     67 CZ       -123.4700   61.7000   30.8700 C.ar      4 PHE5        0.0000 
     68 CZ       -122.9300   60.3100   30.9200 C.ar      4 PHE5        0.0000 
     69 CZ       -121.8800   57.7900   38.6700 C.ar      4 PHE5        0.0000 
     70 CZ       -122.1200   60.7500   34.1500 C.ar      4 PHE5        0.0000 
     71 CZ       -116.9300   56.3000   33.4500 C.ar      4 PHE5        0.0000 
     72 CZ       -117.1900   57.7500   31.9300 C.ar      4 PHE5        0.0000 
     73 CZ       -118.0000   60.5900   30.3500 C.ar      4 PHE5        0.0000 
     74 CZ       -116.9100   57.8000   30.4600 C.ar      4 PHE5        0.0000 
     75 CZ       -116.1000   58.2400   33.6800 C.ar      4 PHE5        0.0000 
     76 CZ       -115.5600   56.8400   33.7400 C.ar      4 PHE5        0.0000 
     77 CZ       -115.8200   58.2900   32.2100 C.ar      4 PHE5        0.0000 
     78 CZ       -116.6300   61.1400   30.6300 C.ar      4 PHE5        0.0000 
     79 CZ       -116.0800   59.7400   30.6800 C.ar      4 PHE5        0.0000 
     80 CZ       -115.8200   61.5700   33.8600 C.ar      4 PHE5        0.0000 
     81 CA       -124.0600   56.8100   35.1700 C.3       5 GLY6        0.0000 
     82 CA       -124.0200   59.8200   29.1700 C.3       5 GLY6        0.0000 
     83 CA       -123.4800   58.4200   29.2200 C.3       5 GLY6        0.0000 
     84 CA       -120.2300   55.1000   35.8400 C.3       5 GLY6        0.0000 
     85 CA       -121.3200   61.1800   37.3800 C.3       5 GLY6        0.0000 
     86 CA       -118.3000   55.7500   33.1700 C.3       5 GLY6        0.0000 
     87 CA       -118.5600   57.2000   31.6500 C.3       5 GLY6        0.0000 
     88 CA       -116.1000   61.5200   35.3300 C.3       5 GLY6        0.0000 
     89 CA       -115.5600   60.1200   35.3800 C.3       5 GLY6        0.0000 
     90 CA       -115.0200   58.7300   35.4400 C.3       5 GLY6        0.0000 
     91 CA       -115.2800   60.1800   33.9100 C.3       5 GLY6        0.0000 
     92 CA       -115.2800   63.4600   35.5600 C.3       5 GLY6        0.0000 
     93 CA       -114.7300   62.0600   35.6100 C.3       5 GLY6        0.0000 
     94 CA       -114.4500   62.1200   34.1400 C.3       5 GLY6        0.0000 
     95 CA       -113.9100   60.7200   34.1900 C.3       5 GLY6        0.0000 
     96 CA       -113.3700   59.3200   34.2400 C.3       5 GLY6        0.0000 
     97 CA       -113.0800   62.6600   34.4200 C.3       5 GLY6        0.0000 
     98 CA       -112.5400   61.2600   34.4700 C.3       5 GLY6        0.0000 
     99 CA       -112.0000   59.8700   34.5300 C.3       5 GLY6        0.0000 
    100 DU       -123.2300   58.7500   35.3900 H         6 CUB7        0.0000 
    101 DU       -122.6900   57.3500   35.4500 H         6 CUB7        0.0000 
    102 DU       -122.4100   57.4100   33.9800 H         6 CUB7        0.0000 
    103 DU       -122.6700   58.8600   32.4500 H         6 CUB7        0.0000 
    104 DU       -122.1400   59.2400   37.1500 H         6 CUB7        0.0000 
@<TRIPOS>BOND
@<TRIPOS>SUBSTRUCTURE
     1 SER1        1 GROUP   
     2 ALA2       30 GROUP   
     3 ASP3       60 GROUP   
     4 PHE5       62 GROUP   
     5 GLY6       81 GROUP   
     6 CUB7      100 GROUP   
@<TRIPOS>SET

