#    Name: 6mjf_4_SAH_CAVITY_N1_6
#    Modification time : Fri May 22 19:26:05 2020

@<TRIPOS>MOLECULE
6mjf_4_SAH_CAVITY_N1_6
  109     0     6     0     0
SMALL
NO_CHARGES


@<TRIPOS>ATOM
      1 OG         -5.3100   12.1100  -24.7300 O.3       1 SER1        0.0000 
      2 OG         -5.0300   12.1700  -26.2000 O.3       1 SER1        0.0000 
      3 OG         -4.2000   10.8200  -27.6200 O.3       1 SER1        0.0000 
      4 OG         -3.6600    9.4200  -27.5700 O.3       1 SER1        0.0000 
      5 OG         -2.0300    5.2300  -27.4100 O.3       1 SER1        0.0000 
      6 OG         -3.3800    9.4800  -29.0400 O.3       1 SER1        0.0000 
      7 OG         -2.8300    8.0800  -28.9900 O.3       1 SER1        0.0000 
      8 OG         -3.9400   12.6600  -24.4500 O.3       1 SER1        0.0000 
      9 OG         -2.3100    8.4700  -24.2900 O.3       1 SER1        0.0000 
     10 OG         -1.7600    7.0700  -24.2300 O.3       1 SER1        0.0000 
     11 OG         -1.2200    5.6700  -24.1800 O.3       1 SER1        0.0000 
     12 OG         -3.6600   12.7100  -25.9200 O.3       1 SER1        0.0000 
     13 OG         -2.5700    9.9200  -25.8100 O.3       1 SER1        0.0000 
     14 OG         -0.9400    5.7200  -25.6500 O.3       1 SER1        0.0000 
     15 OG         -3.3700   12.7600  -27.3900 O.3       1 SER1        0.0000 
     16 OG         -2.2900    9.9700  -27.2900 O.3       1 SER1        0.0000 
     17 OG         -0.6600    5.7800  -27.1300 O.3       1 SER1        0.0000 
     18 OG          0.4300    2.9800  -27.0200 O.3       1 SER1        0.0000 
     19 OG         -2.5700   13.2000  -24.1700 O.3       1 SER1        0.0000 
     20 OG         -2.2900   13.2500  -25.6400 O.3       1 SER1        0.0000 
     21 OG         -0.1100    7.6600  -25.4300 O.3       1 SER1        0.0000 
     22 OG         -2.0100   13.3100  -27.1100 O.3       1 SER1        0.0000 
     23 OG         -1.2000   13.7400  -23.8900 O.3       1 SER1        0.0000 
     24 OG         -0.9200   13.8000  -25.3600 O.3       1 SER1        0.0000 
     25 OG         -0.6400   13.8500  -26.8300 O.3       1 SER1        0.0000 
     26 OG          0.4500   14.3400  -25.0800 O.3       1 SER1        0.0000 
     27 O          -1.7700    0.5000  -27.5300 O.2       2 ALA2        0.0000 
     28 N          -3.1500    5.0200  -21.5200 N.am      2 ALA2        0.0000 
     29 N          -0.9400    2.4400  -27.3000 N.am      2 ALA2        0.0000 
     30 N          -0.4000    1.0400  -27.2500 N.am      2 ALA2        0.0000 
     31 N          -3.0900    9.5300  -30.5100 N.am      2 ALA2        0.0000 
     32 N          -2.5500    8.1300  -30.4600 N.am      2 ALA2        0.0000 
     33 N          -1.7800    5.5700  -21.2400 N.am      2 ALA2        0.0000 
     34 O          -1.2400    4.1700  -21.1800 O.2       2 ALA2        0.0000 
     35 N          -2.0500    7.0200  -22.7600 N.am      2 ALA2        0.0000 
     36 N          -1.5000    5.6200  -22.7100 N.am      2 ALA2        0.0000 
     37 N          -3.3900   11.2600  -24.4000 N.am      2 ALA2        0.0000 
     38 N          -2.8500    9.8600  -24.3400 N.am      2 ALA2        0.0000 
     39 N          -2.0100   10.0200  -28.7600 N.am      2 ALA2        0.0000 
     40 N          -1.4600    8.6200  -28.7100 N.am      2 ALA2        0.0000 
     41 N          -1.7300   10.0700  -30.2300 N.am      2 ALA2        0.0000 
     42 N          -0.6800    7.5600  -22.4800 N.am      2 ALA2        0.0000 
     43 N          -2.0200   11.8000  -24.1100 N.am      2 ALA2        0.0000 
     44 N          -0.9400    9.0100  -24.0100 N.am      2 ALA2        0.0000 
     45 O          -1.7400   11.8600  -25.5900 O.2       2 ALA2        0.0000 
     46 O          -1.2000   10.4600  -25.5300 O.2       2 ALA2        0.0000 
     47 O          -0.6600    9.0600  -25.4800 O.2       2 ALA2        0.0000 
     48 O          -1.4600   11.9100  -27.0600 O.2       2 ALA2        0.0000 
     49 O          -0.9200   10.5100  -27.0100 O.2       2 ALA2        0.0000 
     50 O          -0.3800    9.1100  -26.9500 O.2       2 ALA2        0.0000 
     51 N           0.1700    7.7200  -26.9000 N.am      2 ALA2        0.0000 
     52 N           0.7100    6.3200  -26.8400 N.am      2 ALA2        0.0000 
     53 N          -0.6400   10.5600  -28.4800 N.am      2 ALA2        0.0000 
     54 N          -0.0900    9.1700  -28.4200 N.am      2 ALA2        0.0000 
     55 O          -0.0900   12.4500  -26.7800 O.2       2 ALA2        0.0000 
     56 O           2.0800    6.8600  -26.5600 O.2       2 ALA2        0.0000 
     57 O           0.1900   12.5000  -28.2500 O.2       2 ALA2        0.0000 
     58 O           0.7300   11.1100  -28.2000 O.2       2 ALA2        0.0000 
     59 OD1         1.5600   13.0500  -27.9700 O.co2     3 ASP3        0.0000 
     60 CZ         -5.8500   10.2300  -26.4300 C.ar      4 PHE5        0.0000 
     61 CZ         -3.1400    3.2400  -26.1600 C.ar      4 PHE5        0.0000 
     62 CZ         -5.0300    8.8800  -27.8500 C.ar      4 PHE5        0.0000 
     63 CZ         -5.5900   12.0600  -23.2600 C.ar      4 PHE5        0.0000 
     64 CZ         -3.4200    6.4700  -23.0400 C.ar      4 PHE5        0.0000 
     65 CZ         -2.8700    5.0700  -22.9900 C.ar      4 PHE5        0.0000 
     66 CZ         -4.7600   10.7200  -24.6800 C.ar      4 PHE5        0.0000 
     67 CZ         -4.2200    9.3200  -24.6200 C.ar      4 PHE5        0.0000 
     68 CZ         -2.5900    5.1300  -24.4600 C.ar      4 PHE5        0.0000 
     69 CZ         -4.4800   10.7700  -26.1500 C.ar      4 PHE5        0.0000 
     70 CZ         -2.2700   11.4700  -30.2900 C.ar      4 PHE5        0.0000 
     71 CZ         -0.1300    6.1600  -22.4300 C.ar      4 PHE5        0.0000 
     72 CZ          0.1500    6.2100  -23.9000 C.ar      4 PHE5        0.0000 
     73 CZ          0.4300    6.2700  -25.3700 C.ar      4 PHE5        0.0000 
     74 CZ          0.9700    4.8700  -25.3200 C.ar      4 PHE5        0.0000 
     75 CZ         -1.1800   11.9600  -28.5300 C.ar      4 PHE5        0.0000 
     76 CZ         -0.3600   10.6200  -29.9500 C.ar      4 PHE5        0.0000 
     77 CZ          1.8000    6.8100  -25.0900 C.ar      4 PHE5        0.0000 
     78 CA         -3.6800    1.3500  -27.8600 C.3       5 GLY6        0.0000 
     79 CA         -2.5900    1.8400  -26.1100 C.3       5 GLY6        0.0000 
     80 CA         -2.0500    0.4500  -26.0500 C.3       5 GLY6        0.0000 
     81 CA         -5.5700   10.2800  -27.9000 C.3       5 GLY6        0.0000 
     82 CA         -2.8500    3.2900  -27.6300 C.3       5 GLY6        0.0000 
     83 CA         -2.3100    1.9000  -27.5800 C.3       5 GLY6        0.0000 
     84 CA         -4.7500    8.9300  -29.3200 C.3       5 GLY6        0.0000 
     85 CA         -3.9200    7.5900  -30.7400 C.3       5 GLY6        0.0000 
     86 CA         -2.3300    3.6800  -22.9400 C.3       5 GLY6        0.0000 
     87 CA         -2.0500    3.7300  -24.4100 C.3       5 GLY6        0.0000 
     88 CA         -1.7700    3.7800  -25.8800 C.3       5 GLY6        0.0000 
     89 CA         -1.2200    2.3900  -25.8300 C.3       5 GLY6        0.0000 
     90 CA         -1.4800    3.8400  -27.3500 C.3       5 GLY6        0.0000 
     91 CA         -2.2700    8.1900  -31.9300 C.3       5 GLY6        0.0000 
     92 CA         -4.2200   12.6000  -22.9800 C.3       5 GLY6        0.0000 
     93 CA         -3.6800   11.2100  -22.9200 C.3       5 GLY6        0.0000 
     94 CA         -3.1300    9.8100  -22.8700 C.3       5 GLY6        0.0000 
     95 CA         -2.5900    8.4100  -22.8200 C.3       5 GLY6        0.0000 
     96 CA         -0.9600    4.2200  -22.6500 C.3       5 GLY6        0.0000 
     97 CA         -0.6800    4.2700  -24.1300 C.3       5 GLY6        0.0000 
     98 CA         -0.4000    4.3300  -25.6000 C.3       5 GLY6        0.0000 
     99 CA         -0.1100    4.3800  -27.0700 C.3       5 GLY6        0.0000 
    100 CA         -2.8500   13.1500  -22.7000 C.3       5 GLY6        0.0000 
    101 CA         -0.3900    7.6100  -23.9500 C.3       5 GLY6        0.0000 
    102 CA          0.9700    8.1500  -23.6700 C.3       5 GLY6        0.0000 
    103 CA          1.2600    8.2100  -25.1400 C.3       5 GLY6        0.0000 
    104 CA          1.5400    8.2600  -26.6200 C.3       5 GLY6        0.0000 
    105 CA          1.2800    9.7100  -28.1400 C.3       5 GLY6        0.0000 
    106 DU         -3.9200   10.8700  -29.0900 H         6 CUB7        0.0000 
    107 DU         -3.1100   11.3100  -25.8700 H         6 CUB7        0.0000 
    108 DU         -2.8300   11.3700  -27.3400 H         6 CUB7        0.0000 
    109 DU         -2.5500   11.4200  -28.8100 H         6 CUB7        0.0000 
@<TRIPOS>BOND
@<TRIPOS>SUBSTRUCTURE
     1 SER1        1 GROUP   
     2 ALA2       27 GROUP   
     3 ASP3       59 GROUP   
     4 PHE5       60 GROUP   
     5 GLY6       78 GROUP   
     6 CUB7      106 GROUP   
@<TRIPOS>SET

