#    Name: 6qmm_1_MTA
#    Modification time : Fri May 22 19:29:53 2020

@<TRIPOS>MOLECULE
6qmm_1_MTA
   20    22     1     0     0
SMALL
NO_CHARGES


@<TRIPOS>ATOM
      1 CS         10.4520   -0.8220   65.1620 C.3       1 MTA302      0.0000 
      2 S5'        10.9260   -1.8630   63.8140 S.3       1 MTA302      0.0000 
      3 C5'         9.8040   -3.4420   63.7230 C.3       1 MTA302      0.0000 
      4 C4'         9.8390   -3.8570   62.2150 C.3       1 MTA302      0.0000 
      5 O4'         9.3850   -5.1270   61.6110 O.3       1 MTA302      0.0000 
      6 C2'         8.1740   -3.4530   60.3310 C.3       1 MTA302      0.0000 
      7 O2'         7.6800   -2.7220   59.1310 O.3       1 MTA302      0.0000 
      8 C3'         9.1630   -2.7450   61.3680 C.3       1 MTA302      0.0000 
      9 O3'        10.3800   -2.0250   60.9560 O.3       1 MTA302      0.0000 
     10 C1'         9.0200   -4.7900   60.1350 C.3       1 MTA302      0.0000 
     11 N9          8.4450   -5.9250   59.2620 N.pl3     1 MTA302      0.0000 
     12 C8          7.2530   -6.5660   59.5510 C.2       1 MTA302      0.0000 
     13 N7          6.9720   -7.6020   58.6510 N.2       1 MTA302      0.0000 
     14 C5          8.0080   -7.6920   57.7610 C.ar      1 MTA302      0.0000 
     15 C6          8.2600   -8.5740   56.5770 C.ar      1 MTA302      0.0000 
     16 N6          7.3310   -9.5600   56.2140 N.pl3     1 MTA302      0.0000 
     17 N1          9.3690   -8.2890   55.8570 N.ar      1 MTA302      0.0000 
     18 C2         10.2220   -7.2890   56.2550 C.ar      1 MTA302      0.0000 
     19 N3          9.9980   -6.4440   57.3460 N.ar      1 MTA302      0.0000 
     20 C4          8.9540   -6.5770   58.1430 C.ar      1 MTA302      0.0000 
@<TRIPOS>BOND
     1    1    2 1    
     2    2    3 1    
     3    3    4 1    
     4    4    5 1    
     5    4    8 1    
     6    5   10 1    
     7    6    7 1    
     8    6    8 1    
     9    6   10 1    
    10    8    9 1    
    11   10   11 1    
    12   11   12 1    
    13   11   20 1    
    14   12   13 2    
    15   13   14 1    
    16   14   15 ar   
    17   14   20 ar   
    18   15   16 1    
    19   15   17 ar   
    20   17   18 ar   
    21   18   19 ar   
    22   19   20 ar   
@<TRIPOS>SUBSTRUCTURE
     1 MTA302      1 GROUP   
@<TRIPOS>SET

