#    Name: 6bsj_1_EFZ
#    Modification time : Fri May 22 19:35:22 2020

@<TRIPOS>MOLECULE
6bsj_1_EFZ
   21    23     1     0     0
SMALL
NO_CHARGES


@<TRIPOS>ATOM
      1 CL        -70.0860  -35.0470  -19.5940 Cl        1 EFZ601      0.0000 
      2 F1        -64.7160  -37.3440  -17.6580 F         1 EFZ601      0.0000 
      3 F2        -65.2020  -38.0250  -15.6690 F         1 EFZ601      0.0000 
      4 F3        -66.7850  -37.9660  -17.1770 F         1 EFZ601      0.0000 
      5 O1        -63.1690  -33.8900  -15.9730 O.2       1 EFZ601      0.0000 
      6 O2        -64.9840  -35.2060  -16.0410 O.3       1 EFZ601      0.0000 
      7 N         -64.5520  -33.6450  -17.6470 N.am      1 EFZ601      0.0000 
      8 C1        -65.8350  -33.8550  -18.1950 C.ar      1 EFZ601      0.0000 
      9 C2        -66.7330  -33.2520  -19.2540 C.ar      1 EFZ601      0.0000 
     10 C3        -68.0120  -33.7380  -19.5540 C.ar      1 EFZ601      0.0000 
     11 C4        -68.5070  -34.7100  -18.9660 C.ar      1 EFZ601      0.0000 
     12 C5        -67.9910  -35.3750  -18.0390 C.ar      1 EFZ601      0.0000 
     13 C6        -66.7180  -35.0740  -17.5900 C.ar      1 EFZ601      0.0000 
     14 C7        -66.0860  -35.9310  -16.3960 C.3       1 EFZ601      0.0000 
     15 C8        -67.0610  -36.1280  -15.2110 C.1       1 EFZ601      0.0000 
     16 C9        -67.8420  -36.2220  -14.2880 C.1       1 EFZ601      0.0000 
     17 C10       -68.9050  -36.2550  -13.0170 C.3       1 EFZ601      0.0000 
     18 C11       -70.0560  -36.9060  -13.2930 C.3       1 EFZ601      0.0000 
     19 C12       -69.6100  -35.1000  -12.8480 C.3       1 EFZ601      0.0000 
     20 C13       -65.6910  -37.3470  -16.7320 C.3       1 EFZ601      0.0000 
     21 C14       -64.1950  -34.2480  -16.5250 C.2       1 EFZ601      0.0000 
@<TRIPOS>BOND
     1    1   11 1    
     2    2   20 1    
     3    3   20 1    
     4    4   20 1    
     5    5   21 2    
     6    6   14 1    
     7    6   21 1    
     8    7    8 1    
     9    7   21 am   
    10    8    9 ar   
    11    8   13 ar   
    12    9   10 ar   
    13   10   11 ar   
    14   11   12 ar   
    15   12   13 ar   
    16   13   14 1    
    17   14   15 1    
    18   14   20 1    
    19   15   16 3    
    20   16   17 1    
    21   17   18 1    
    22   17   19 1    
    23   18   19 1    
@<TRIPOS>SUBSTRUCTURE
     1 EFZ601      1 GROUP   
@<TRIPOS>SET

