#    Name: 6s6y_1_MFN
#    Modification time : Fri May 22 19:39:03 2020

@<TRIPOS>MOLECULE
6s6y_1_MFN
   21    22     1     0     0
SMALL
NO_CHARGES


@<TRIPOS>ATOM
      1 C1         -7.0790   49.4020  -27.7830 C.3       1 MFN602      0.0000 
      2 O1         -7.2420   46.8970  -27.3340 O.3       1 MFN602      0.0000 
      3 C2         -7.6300   48.1870  -27.0900 C.2       1 MFN602      0.0000 
      4 O2         -9.3400   45.2070  -24.0270 O.3       1 MFN602      0.0000 
      5 C3         -8.6020   48.1740  -26.0990 C.2       1 MFN602      0.0000 
      6 O3         -9.1970   44.6470  -15.2360 O.2       1 MFN602      0.0000 
      7 C4         -8.8000   46.8510  -25.7380 C.2       1 MFN602      0.0000 
      8 C5         -7.9620   46.0570  -26.5080 C.2       1 MFN602      0.0000 
      9 C6        -10.0400   45.0440  -19.9620 C.ar      1 MFN602      0.0000 
     10 C16        -9.7190   43.5730  -15.5050 C.2       1 MFN602      0.0000 
     11 C17        -9.9130   42.5020  -14.4520 C.3       1 MFN602      0.0000 
     12 N2        -10.1710   43.2570  -16.7240 N.am      1 MFN602      0.0000 
     13 C15        -9.5630   43.7400  -17.9470 C.3       1 MFN602      0.0000 
     14 C12       -10.3030   44.9680  -18.4740 C.3       1 MFN602      0.0000 
     15 C11        -8.7670   45.3900  -20.4280 C.ar      1 MFN602      0.0000 
     16 C10        -8.5290   45.4420  -21.7950 C.ar      1 MFN602      0.0000 
     17 C7        -11.0740   44.7540  -20.8500 C.ar      1 MFN602      0.0000 
     18 C8        -10.8360   44.8120  -22.2180 C.ar      1 MFN602      0.0000 
     19 C9         -9.5650   45.1440  -22.6820 C.ar      1 MFN602      0.0000 
     20 C13        -9.7900   46.3770  -24.7030 C.3       1 MFN602      0.0000 
     21 N1         -6.2190   48.9640  -28.8860 N.am      1 MFN602      0.0000 
@<TRIPOS>BOND
     1    1    3 1    
     2    1   21 1    
     3    2    3 1    
     4    2    8 1    
     5    3    5 2    
     6    4   19 1    
     7    4   20 1    
     8    5    7 1    
     9    6   10 2    
    10    7    8 2    
    11    7   20 1    
    12    9   14 1    
    13    9   15 ar   
    14    9   17 ar   
    15   10   11 1    
    16   10   12 am   
    17   12   13 1    
    18   13   14 1    
    19   15   16 ar   
    20   16   19 ar   
    21   17   18 ar   
    22   18   19 ar   
@<TRIPOS>SUBSTRUCTURE
     1 MFN602      1 GROUP   
@<TRIPOS>SET

