#    Name: 6ihi_3_NAP
#    Modification time : Fri May 22 19:27:51 2020

@<TRIPOS>MOLECULE
6ihi_3_NAP
   48    52     1     0     1
SMALL
NO_CHARGES


@<TRIPOS>ATOM
      1 PA         -9.8380  -39.7820   39.3850 P.3       1 NAP301      0.0000 
      2 O1A       -11.2480  -39.7940   39.9150 O.co2     1 NAP301      0.0000 
      3 O2A        -8.6770  -39.6790   40.3380 O.co2     1 NAP301      0.0000 
      4 O5B        -9.6680  -41.0870   38.4620 O.3       1 NAP301      0.0000 
      5 C5B       -10.7740  -41.6140   37.7230 C.3       1 NAP301      0.0000 
      6 C4B       -11.8180  -42.2400   38.6430 C.3       1 NAP301      0.0000 
      7 O4B       -12.7840  -42.9540   37.8680 O.3       1 NAP301      0.0000 
      8 C3B       -11.1980  -43.2510   39.5940 C.3       1 NAP301      0.0000 
      9 O3B       -11.8740  -43.1690   40.8500 O.3       1 NAP301      0.0000 
     10 C2B       -11.4960  -44.5900   38.9610 C.3       1 NAP301      0.0000 
     11 O2B       -11.6180  -45.6330   39.9260 O.3       1 NAP301      0.0000 
     12 C1B       -12.8200  -44.3270   38.2710 C.3       1 NAP301      0.0000 
     13 N9A       -12.9930  -45.2370   37.1150 N.pl3     1 NAP301      0.0000 
     14 C8A       -12.2690  -45.2310   35.9830 C.2       1 NAP301      0.0000 
     15 N7A       -12.6930  -46.1970   35.1320 N.2       1 NAP301      0.0000 
     16 C5A       -13.7080  -46.8450   35.7290 C.ar      1 NAP301      0.0000 
     17 C6A       -14.6060  -47.9680   35.3860 C.ar      1 NAP301      0.0000 
     18 N6A       -14.4910  -48.6060   34.2000 N.pl3     1 NAP301      0.0000 
     19 N1A       -15.5410  -48.3310   36.2930 N.ar      1 NAP301      0.0000 
     20 C2A       -15.6620  -47.7030   37.4740 C.ar      1 NAP301      0.0000 
     21 N3A       -14.8830  -46.6730   37.8500 N.ar      1 NAP301      0.0000 
     22 C4A       -13.9040  -46.2070   37.0370 C.ar      1 NAP301      0.0000 
     23 O3         -9.7150  -38.5730   38.3330 O.3       1 NAP301      0.0000 
     24 PN        -10.7800  -37.3670   38.3390 P.3       1 NAP301      0.0000 
     25 O1N       -11.3340  -37.2050   39.7270 O.co2     1 NAP301      0.0000 
     26 O2N       -10.1380  -36.1860   37.6620 O.co2     1 NAP301      0.0000 
     27 O5D       -11.9460  -37.9240   37.3860 O.3       1 NAP301      0.0000 
     28 C5D       -13.2890  -37.4960   37.5800 C.3       1 NAP301      0.0000 
     29 C4D       -13.8990  -37.0720   36.2510 C.3       1 NAP301      0.0000 
     30 O4D       -13.5950  -35.7010   35.9770 O.3       1 NAP301      0.0000 
     31 C3D       -13.3660  -37.8790   35.0790 C.3       1 NAP301      0.0000 
     32 O3D       -14.4700  -38.2820   34.2650 O.3       1 NAP301      0.0000 
     33 C2D       -12.5060  -36.9000   34.3080 C.3       1 NAP301      0.0000 
     34 O2D       -12.4870  -37.1900   32.9070 O.3       1 NAP301      0.0000 
     35 C1D       -13.1970  -35.5850   34.6110 C.3       1 NAP301      0.0000 
     36 N1N       -12.3310  -34.4260   34.3920 N.pl3     1 NAP301      0.0000 
     37 C2N       -11.3200  -34.1750   35.2300 C.ar      1 NAP301      0.0000 
     38 C3N       -10.4980  -33.0730   35.0300 C.ar      1 NAP301      0.0000 
     39 C7N        -9.3640  -32.8020   35.9730 C.2       1 NAP301      0.0000 
     40 O7N        -8.6680  -31.8170   35.8010 O.2       1 NAP301      0.0000 
     41 N7N        -9.1500  -33.6480   36.9780 N.am      1 NAP301      0.0000 
     42 C4N       -10.7310  -32.2280   33.9550 C.ar      1 NAP301      0.0000 
     43 C5N       -11.7880  -32.5100   33.1000 C.ar      1 NAP301      0.0000 
     44 C6N       -12.5840  -33.6230   33.3500 C.ar      1 NAP301      0.0000 
     45 P2B       -11.2020  -47.1500   39.5640 P.3       1 NAP301      0.0000 
     46 O1X       -10.0420  -46.9980   38.6170 O.co2     1 NAP301      0.0000 
     47 O2X       -10.8430  -47.7500   40.8970 O.co2     1 NAP301      0.0000 
     48 O3X       -12.4350  -47.7360   38.9360 O.co2     1 NAP301      0.0000 
@<TRIPOS>BOND
     1    1    2 ar   
     2    1    3 ar   
     3    1    4 1    
     4    1   23 1    
     5    4    5 1    
     6    5    6 1    
     7    6    7 1    
     8    6    8 1    
     9    7   12 1    
    10    8    9 1    
    11    8   10 1    
    12   10   11 1    
    13   10   12 1    
    14   11   45 1    
    15   12   13 1    
    16   13   14 1    
    17   13   22 1    
    18   14   15 2    
    19   15   16 1    
    20   16   17 ar   
    21   16   22 ar   
    22   17   18 1    
    23   17   19 ar   
    24   19   20 ar   
    25   20   21 ar   
    26   21   22 ar   
    27   23   24 1    
    28   24   25 ar   
    29   24   26 ar   
    30   24   27 1    
    31   27   28 1    
    32   28   29 1    
    33   29   30 1    
    34   29   31 1    
    35   30   35 1    
    36   31   32 1    
    37   31   33 1    
    38   33   34 1    
    39   33   35 1    
    40   35   36 1    
    41   36   37 ar   
    42   36   44 ar   
    43   37   38 ar   
    44   38   39 1    
    45   38   42 ar   
    46   39   40 2    
    47   39   41 am   
    48   42   43 ar   
    49   43   44 ar   
    50   45   46 ar   
    51   45   47 ar   
    52   45   48 ar   
@<TRIPOS>SUBSTRUCTURE
     1 NAP301      1 GROUP   
@<TRIPOS>SET
ATOM$ORANGE STATIC     ATOMS   COLORGROUP SYSTEM 
42 5 5 6 6 8 8 10 10 12 12 14 14 16 16 17 17 20 \
20 22 22 28 28 29 29 31 31 33 33 35 35 37 37 38 38 39 \
39 42 42 43 43 44 44 

