#    Name: 6ihi_2_NAP
#    Modification time : Fri May 22 19:27:46 2020

@<TRIPOS>MOLECULE
6ihi_2_NAP
   48    52     1     0     1
SMALL
NO_CHARGES


@<TRIPOS>ATOM
      1 PA        -38.8820   -6.4540   37.9990 P.3       1 NAP301      0.0000 
      2 O1A       -39.6970   -6.8450   39.2110 O.co2     1 NAP301      0.0000 
      3 O2A       -39.6140   -5.4010   37.2050 O.co2     1 NAP301      0.0000 
      4 O5B       -37.4120   -5.8840   38.4890 O.3       1 NAP301      0.0000 
      5 C5B       -36.9300   -4.6730   37.9760 C.3       1 NAP301      0.0000 
      6 C4B       -35.9940   -4.0270   39.0400 C.3       1 NAP301      0.0000 
      7 O4B       -35.1230   -3.2270   38.4890 O.3       1 NAP301      0.0000 
      8 C3B       -36.8570   -3.1520   39.9810 C.3       1 NAP301      0.0000 
      9 O3B       -36.4540   -3.3220   41.2630 O.3       1 NAP301      0.0000 
     10 C2B       -36.5770   -1.7070   39.4900 C.3       1 NAP301      0.0000 
     11 O2B       -36.8070   -0.7810   40.6310 O.3       1 NAP301      0.0000 
     12 C1B       -35.3280   -1.7570   39.1430 C.3       1 NAP301      0.0000 
     13 N9A       -35.0140   -0.7840   38.1290 N.pl3     1 NAP301      0.0000 
     14 C8A       -35.4590   -0.6680   36.8760 C.2       1 NAP301      0.0000 
     15 N7A       -34.8750    0.4000   36.3300 N.2       1 NAP301      0.0000 
     16 C5A       -34.0640    0.9410   37.2470 C.ar      1 NAP301      0.0000 
     17 C6A       -33.2420    2.0420   37.1940 C.ar      1 NAP301      0.0000 
     18 N6A       -32.9170    3.0350   36.1830 N.pl3     1 NAP301      0.0000 
     19 N1A       -32.5240    2.3850   38.2530 N.ar      1 NAP301      0.0000 
     20 C2A       -32.6000    1.6460   39.3870 C.ar      1 NAP301      0.0000 
     21 N3A       -33.4100    0.5620   39.4420 N.ar      1 NAP301      0.0000 
     22 C4A       -34.1410    0.2120   38.3630 C.ar      1 NAP301      0.0000 
     23 O3        -38.6410   -7.8020   37.0810 O.3       1 NAP301      0.0000 
     24 PN        -37.3170   -8.7750   37.2520 P.3       1 NAP301      0.0000 
     25 O1N       -37.5690  -10.0670   36.5130 O.co2     1 NAP301      0.0000 
     26 O2N       -37.1010   -9.0700   38.7170 O.co2     1 NAP301      0.0000 
     27 O5D       -36.0080   -8.0100   36.5860 O.3       1 NAP301      0.0000 
     28 C5D       -34.7730   -7.9670   37.2510 C.3       1 NAP301      0.0000 
     29 C4D       -33.6150   -8.3270   36.2740 C.3       1 NAP301      0.0000 
     30 O4D       -33.7900   -9.5630   35.8250 O.3       1 NAP301      0.0000 
     31 C3D       -33.5930   -7.4180   35.0060 C.3       1 NAP301      0.0000 
     32 O3D       -32.3140   -7.1660   34.6510 O.3       1 NAP301      0.0000 
     33 C2D       -34.3520   -8.3130   33.9780 C.3       1 NAP301      0.0000 
     34 O2D       -34.1300   -7.8070   32.6060 O.3       1 NAP301      0.0000 
     35 C1D       -33.8050   -9.4950   34.1920 C.3       1 NAP301      0.0000 
     36 N1N       -34.4840  -10.6170   33.6080 N.pl3     1 NAP301      0.0000 
     37 C2N       -35.7180  -11.0170   33.9850 C.ar      1 NAP301      0.0000 
     38 C3N       -36.3150  -12.1110   33.3630 C.ar      1 NAP301      0.0000 
     39 C7N       -37.7200  -12.5890   33.7630 C.2       1 NAP301      0.0000 
     40 O7N       -38.2360  -13.4820   33.1760 O.2       1 NAP301      0.0000 
     41 N7N       -38.4250  -11.9710   34.8740 N.am      1 NAP301      0.0000 
     42 C4N       -35.6460  -12.7760   32.3890 C.ar      1 NAP301      0.0000 
     43 C5N       -34.4060  -12.3820   32.0230 C.ar      1 NAP301      0.0000 
     44 C6N       -33.8200  -11.2910   32.6400 C.ar      1 NAP301      0.0000 
     45 P2B       -37.2880    0.7690   40.3480 P.3       1 NAP301      0.0000 
     46 O1X       -38.2040    0.8380   39.1460 O.co2     1 NAP301      0.0000 
     47 O2X       -38.0160    1.2700   41.5720 O.co2     1 NAP301      0.0000 
     48 O3X       -36.0570    1.6120   40.1170 O.co2     1 NAP301      0.0000 
@<TRIPOS>BOND
     1    1    2 ar   
     2    1    3 ar   
     3    1    4 1    
     4    1   23 1    
     5    4    5 1    
     6    5    6 1    
     7    6    7 1    
     8    6    8 1    
     9    7   12 1    
    10    8    9 1    
    11    8   10 1    
    12   10   11 1    
    13   10   12 1    
    14   11   45 1    
    15   12   13 1    
    16   13   14 1    
    17   13   22 1    
    18   14   15 2    
    19   15   16 1    
    20   16   17 ar   
    21   16   22 ar   
    22   17   18 1    
    23   17   19 ar   
    24   19   20 ar   
    25   20   21 ar   
    26   21   22 ar   
    27   23   24 1    
    28   24   25 ar   
    29   24   26 ar   
    30   24   27 1    
    31   27   28 1    
    32   28   29 1    
    33   29   30 1    
    34   29   31 1    
    35   30   35 1    
    36   31   32 1    
    37   31   33 1    
    38   33   34 1    
    39   33   35 1    
    40   35   36 1    
    41   36   37 ar   
    42   36   44 ar   
    43   37   38 ar   
    44   38   39 1    
    45   38   42 ar   
    46   39   40 2    
    47   39   41 am   
    48   42   43 ar   
    49   43   44 ar   
    50   45   46 ar   
    51   45   47 ar   
    52   45   48 ar   
@<TRIPOS>SUBSTRUCTURE
     1 NAP301      1 GROUP   
@<TRIPOS>SET
ATOM$ORANGE STATIC     ATOMS   COLORGROUP SYSTEM 
42 5 5 6 6 8 8 10 10 12 12 14 14 16 16 17 17 20 \
20 22 22 28 28 29 29 31 31 33 33 35 35 37 37 38 38 39 \
39 42 42 43 43 44 44 

