#    Name: 6ihi_1_NAP
#    Modification time : Fri May 22 19:27:40 2020

@<TRIPOS>MOLECULE
6ihi_1_NAP
   48    52     1     0     1
SMALL
NO_CHARGES


@<TRIPOS>ATOM
      1 PA        -11.5030    0.3190    8.9020 P.3       1 NAP301      0.0000 
      2 O1A       -12.5410   -0.0650    7.8780 O.co2     1 NAP301      0.0000 
      3 O2A       -10.2680    0.8190    8.2030 O.co2     1 NAP301      0.0000 
      4 O5B       -12.1280    1.5070    9.8700 O.3       1 NAP301      0.0000 
      5 C5B       -13.5060    1.5410   10.1570 C.3       1 NAP301      0.0000 
      6 C4B       -14.3900    1.6590    8.8750 C.3       1 NAP301      0.0000 
      7 O4B       -15.6250    1.9360    9.2140 O.3       1 NAP301      0.0000 
      8 C3B       -13.9610    2.8350    7.9790 C.3       1 NAP301      0.0000 
      9 O3B       -14.2480    2.5640    6.6820 O.3       1 NAP301      0.0000 
     10 C2B       -14.8250    4.0080    8.4680 C.3       1 NAP301      0.0000 
     11 O2B       -14.9750    5.0270    7.3860 O.3       1 NAP301      0.0000 
     12 C1B       -15.9690    3.4430    8.7330 C.3       1 NAP301      0.0000 
     13 N9A       -16.6450    4.1720    9.7800 N.pl3     1 NAP301      0.0000 
     14 C8A       -16.3040    4.3960   11.0510 C.2       1 NAP301      0.0000 
     15 N7A       -17.2630    5.1360   11.6110 N.2       1 NAP301      0.0000 
     16 C5A       -18.1980    5.3690   10.6830 C.ar      1 NAP301      0.0000 
     17 C6A       -19.3820    6.0680   10.7250 C.ar      1 NAP301      0.0000 
     18 N6A       -20.1100    6.8190   11.7330 N.pl3     1 NAP301      0.0000 
     19 N1A       -20.1470    6.1550    9.6510 N.ar      1 NAP301      0.0000 
     20 C2A       -19.7620    5.5530    8.5030 C.ar      1 NAP301      0.0000 
     21 N3A       -18.5970    4.8640    8.4570 N.ar      1 NAP301      0.0000 
     22 C4A       -17.8180    4.7760    9.5500 C.ar      1 NAP301      0.0000 
     23 O3        -11.0930   -1.0160    9.7680 O.3       1 NAP301      0.0000 
     24 PN        -11.8540   -2.4550    9.5420 P.3       1 NAP301      0.0000 
     25 O1N       -11.1070   -3.5330   10.2840 O.co2     1 NAP301      0.0000 
     26 O2N       -11.9010   -2.7830    8.0780 O.co2     1 NAP301      0.0000 
     27 O5D       -13.3860   -2.3180   10.1400 O.3       1 NAP301      0.0000 
     28 C5D       -14.4430   -2.9640    9.4870 C.3       1 NAP301      0.0000 
     29 C4D       -15.3290   -3.7110   10.5230 C.3       1 NAP301      0.0000 
     30 O4D       -14.7610   -4.8380   10.8720 O.3       1 NAP301      0.0000 
     31 C3D       -15.4670   -2.8930   11.8250 C.3       1 NAP301      0.0000 
     32 O3D       -16.7510   -2.9130   12.2670 O.3       1 NAP301      0.0000 
     33 C2D       -14.5570   -3.6360   12.8200 C.3       1 NAP301      0.0000 
     34 O2D       -14.9720   -3.3500   14.2250 O.3       1 NAP301      0.0000 
     35 C1D       -14.7790   -4.8750   12.4890 C.3       1 NAP301      0.0000 
     36 N1N       -13.7670   -5.7650   13.0080 N.pl3     1 NAP301      0.0000 
     37 C2N       -12.4910   -5.6880   12.5670 C.ar      1 NAP301      0.0000 
     38 C3N       -11.5240   -6.5490   13.0700 C.ar      1 NAP301      0.0000 
     39 C7N       -10.0820   -6.4520   12.5670 C.2       1 NAP301      0.0000 
     40 O7N        -9.8080   -5.6790   11.7110 O.2       1 NAP301      0.0000 
     41 N7N        -9.0440   -7.2950   13.1270 N.am      1 NAP301      0.0000 
     42 C4N       -11.8600   -7.4690   14.0080 C.ar      1 NAP301      0.0000 
     43 C5N       -13.1370   -7.5470   14.4500 C.ar      1 NAP301      0.0000 
     44 C6N       -14.1020   -6.6870   13.9400 C.ar      1 NAP301      0.0000 
     45 P2B       -14.9510    6.6380    7.7410 P.3       1 NAP301      0.0000 
     46 O1X       -16.3480    7.1030    8.0410 O.co2     1 NAP301      0.0000 
     47 O2X       -14.4260    7.3920    6.5470 O.co2     1 NAP301      0.0000 
     48 O3X       -14.0710    6.9110    8.9310 O.co2     1 NAP301      0.0000 
@<TRIPOS>BOND
     1    1    2 ar   
     2    1    3 ar   
     3    1    4 1    
     4    1   23 1    
     5    4    5 1    
     6    5    6 1    
     7    6    7 1    
     8    6    8 1    
     9    7   12 1    
    10    8    9 1    
    11    8   10 1    
    12   10   11 1    
    13   10   12 1    
    14   11   45 1    
    15   12   13 1    
    16   13   14 1    
    17   13   22 1    
    18   14   15 2    
    19   15   16 1    
    20   16   17 ar   
    21   16   22 ar   
    22   17   18 1    
    23   17   19 ar   
    24   19   20 ar   
    25   20   21 ar   
    26   21   22 ar   
    27   23   24 1    
    28   24   25 ar   
    29   24   26 ar   
    30   24   27 1    
    31   27   28 1    
    32   28   29 1    
    33   29   30 1    
    34   29   31 1    
    35   30   35 1    
    36   31   32 1    
    37   31   33 1    
    38   33   34 1    
    39   33   35 1    
    40   35   36 1    
    41   36   37 ar   
    42   36   44 ar   
    43   37   38 ar   
    44   38   39 1    
    45   38   42 ar   
    46   39   40 2    
    47   39   41 am   
    48   42   43 ar   
    49   43   44 ar   
    50   45   46 ar   
    51   45   47 ar   
    52   45   48 ar   
@<TRIPOS>SUBSTRUCTURE
     1 NAP301      1 GROUP   
@<TRIPOS>SET
ATOM$ORANGE STATIC     ATOMS   COLORGROUP SYSTEM 
42 5 5 6 6 8 8 10 10 12 12 14 14 16 16 17 17 20 \
20 22 22 28 28 29 29 31 31 33 33 35 35 37 37 38 38 39 \
39 42 42 43 43 44 44 

