#    Name: 6rd1_2_SI3_CAVITY_N1_12
#    Modification time : Fri May 22 19:31:27 2020

@<TRIPOS>MOLECULE
6rd1_2_SI3_CAVITY_N1_12
  104     0     6     0     0
SMALL
NO_CHARGES


@<TRIPOS>ATOM
      1 OG        -48.3300    4.6000   15.6100 O.3       1 SER1        0.0000 
      2 OG        -46.9200    4.1100   15.4500 O.3       1 SER1        0.0000 
      3 OG        -44.1600    3.9000   12.2400 O.3       1 SER1        0.0000 
      4 OG        -44.1300    3.5100   13.6800 O.3       1 SER1        0.0000 
      5 OG        -44.1100    3.1100   15.1300 O.3       1 SER1        0.0000 
      6 OG        -49.2200    6.4600   16.1300 O.3       1 SER1        0.0000 
      7 OG        -47.8400    6.3500   14.5200 O.3       1 SER1        0.0000 
      8 OG        -46.4300    5.8600   14.3600 O.3       1 SER1        0.0000 
      9 OG        -43.6400    5.2600   12.6000 O.3       1 SER1        0.0000 
     10 OG        -43.5900    4.4700   15.4900 O.3       1 SER1        0.0000 
     11 OG        -43.5700    4.0800   16.9400 O.3       1 SER1        0.0000 
     12 OG        -42.1600    3.5900   16.7800 O.3       1 SER1        0.0000 
     13 OG        -48.7000    7.8200   16.4900 O.3       1 SER1        0.0000 
     14 OG        -43.0700    5.8300   15.8600 O.3       1 SER1        0.0000 
     15 OG        -41.6700    5.3400   15.7000 O.3       1 SER1        0.0000 
     16 N         -53.1200    5.5100   12.8200 N.am      2 ALA2        0.0000 
     17 N         -53.1000    5.1200   14.2700 N.am      2 ALA2        0.0000 
     18 N         -47.4900    3.5300   12.1900 N.am      2 ALA2        0.0000 
     19 N         -47.4700    3.1400   13.6400 N.am      2 ALA2        0.0000 
     20 O         -47.4400    2.7500   15.0900 O.2       2 ALA2        0.0000 
     21 N         -46.0600    2.6400   13.4800 N.am      2 ALA2        0.0000 
     22 N         -52.6000    6.8700   13.1800 N.am      2 ALA2        0.0000 
     23 N         -45.5700    4.4000   12.4000 N.am      2 ALA2        0.0000 
     24 O         -45.5200    3.6100   15.2900 O.2       2 ALA2        0.0000 
     25 N         -53.4600    8.3400   15.1500 N.am      2 ALA2        0.0000 
     26 O         -47.9100    7.5400   10.1800 O.2       2 ALA2        0.0000 
     27 O         -47.3900    8.9000   10.5400 O.2       2 ALA2        0.0000 
     28 O         -45.9800    8.4000   10.3800 O.2       2 ALA2        0.0000 
     29 N         -52.4500   11.4500   14.4300 N.am      2 ALA2        0.0000 
     30 O         -50.9900   10.1700   17.1600 O.2       2 ALA2        0.0000 
     31 N         -51.9100   12.4200   16.2400 N.am      2 ALA2        0.0000 
     32 N         -50.5200   12.3100   14.6300 N.am      2 ALA2        0.0000 
     33 O         -50.4800   11.5300   17.5300 O.2       2 ALA2        0.0000 
     34 NZ        -53.6400    4.1600   12.4600 N.4       3 LYS4        0.0000 
     35 NZ        -50.8200    3.1600   12.1500 N.4       3 LYS4        0.0000 
     36 NZ        -49.4200    2.6700   11.9900 N.4       3 LYS4        0.0000 
     37 NZ        -49.3900    2.2700   13.4300 N.4       3 LYS4        0.0000 
     38 NZ        -49.3700    1.8800   14.8800 N.4       3 LYS4        0.0000 
     39 NZ        -47.9900    1.7800   13.2800 N.4       3 LYS4        0.0000 
     40 NZ        -53.1400    5.9100   11.3800 N.4       3 LYS4        0.0000 
     41 NZ        -51.7400    5.4100   11.2200 N.4       3 LYS4        0.0000 
     42 NZ        -51.7100    5.0200   12.6700 N.4       3 LYS4        0.0000 
     43 NZ        -50.3100    4.5200   12.5100 N.4       3 LYS4        0.0000 
     44 CZ        -50.1100    8.3100   16.6400 C.ar      4 PHE5        0.0000 
     45 CZ        -48.7200    8.2100   15.0400 C.ar      4 PHE5        0.0000 
     46 CZ        -47.3200    7.7100   14.8800 C.ar      4 PHE5        0.0000 
     47 CZ        -49.6400   10.4600   14.1100 C.ar      4 PHE5        0.0000 
     48 CZ        -49.6100   10.0700   15.5600 C.ar      4 PHE5        0.0000 
     49 CZ        -49.5900    9.6700   17.0100 C.ar      4 PHE5        0.0000 
     50 CZ        -48.2300    9.9600   13.9500 C.ar      4 PHE5        0.0000 
     51 CZ        -48.2000    9.5700   15.4000 C.ar      4 PHE5        0.0000 
     52 CZ        -50.5000   11.9200   16.0800 C.ar      4 PHE5        0.0000 
     53 CA        -52.2100    3.2700   13.7500 C.3       5 GLY6        0.0000 
     54 CA        -50.8000    2.7700   13.5900 C.3       5 GLY6        0.0000 
     55 CA        -51.6900    4.6300   14.1100 C.3       5 GLY6        0.0000 
     56 CA        -50.2600    3.7400   15.4000 C.3       5 GLY6        0.0000 
     57 CA        -48.8500    3.2400   15.2400 C.3       5 GLY6        0.0000 
     58 CA        -44.6300    1.7500   14.7700 C.3       5 GLY6        0.0000 
     59 CA        -52.5800    6.4800   14.6300 C.3       5 GLY6        0.0000 
     60 CA        -51.1700    5.9900   14.4700 C.3       5 GLY6        0.0000 
     61 CA        -49.7400    5.1000   15.7600 C.3       5 GLY6        0.0000 
     62 CA        -52.0300    7.4500   16.4400 C.3       5 GLY6        0.0000 
     63 CA        -50.6300    6.9500   16.2800 C.3       5 GLY6        0.0000 
     64 CA        -45.0500    5.7600   12.7600 C.3       5 GLY6        0.0000 
     65 CA        -45.0200    5.3600   14.2000 C.3       5 GLY6        0.0000 
     66 CA        -43.6200    4.8700   14.0500 C.3       5 GLY6        0.0000 
     67 CA        -47.3600    8.5000   11.9900 C.3       5 GLY6        0.0000 
     68 CA        -47.3400    8.1100   13.4300 C.3       5 GLY6        0.0000 
     69 CA        -45.9600    8.0100   11.8300 C.3       5 GLY6        0.0000 
     70 CA        -45.9300    7.6100   13.2800 C.3       5 GLY6        0.0000 
     71 CA        -44.5000    6.7200   14.5700 C.3       5 GLY6        0.0000 
     72 CA        -43.1000    6.2300   14.4100 C.3       5 GLY6        0.0000 
     73 CA        -48.2800   10.7500   11.0600 C.3       5 GLY6        0.0000 
     74 CA        -48.2500   10.3600   12.5100 C.3       5 GLY6        0.0000 
     75 CA        -46.8400    9.8600   12.3500 C.3       5 GLY6        0.0000 
     76 CA        -49.1400   12.2100   13.0300 C.3       5 GLY6        0.0000 
     77 DU        -50.2800    4.1300   13.9500 H         6 CUB7        0.0000 
     78 DU        -48.9000    4.0300   12.3500 H         6 CUB7        0.0000 
     79 DU        -48.8700    3.6300   13.8000 H         6 CUB7        0.0000 
     80 DU        -51.1900    6.3800   13.0300 H         6 CUB7        0.0000 
     81 DU        -49.7900    5.8800   12.8700 H         6 CUB7        0.0000 
     82 DU        -49.7600    5.4900   14.3200 H         6 CUB7        0.0000 
     83 DU        -48.3600    4.9900   14.1600 H         6 CUB7        0.0000 
     84 DU        -46.9700    4.8900   12.5500 H         6 CUB7        0.0000 
     85 DU        -46.9500    4.5000   14.0000 H         6 CUB7        0.0000 
     86 DU        -45.5400    4.0000   13.8400 H         6 CUB7        0.0000 
     87 DU        -52.0800    8.2300   13.5500 H         6 CUB7        0.0000 
     88 DU        -52.0600    7.8400   14.9900 H         6 CUB7        0.0000 
     89 DU        -50.6500    7.3500   14.8400 H         6 CUB7        0.0000 
     90 DU        -49.2400    6.8500   14.6800 H         6 CUB7        0.0000 
     91 DU        -47.8800    7.1400   11.6300 H         6 CUB7        0.0000 
     92 DU        -47.8600    6.7500   13.0700 H         6 CUB7        0.0000 
     93 DU        -46.4800    6.6500   11.4700 H         6 CUB7        0.0000 
     94 DU        -46.4500    6.2500   12.9200 H         6 CUB7        0.0000 
     95 DU        -52.9400    9.7000   15.5100 H         6 CUB7        0.0000 
     96 DU        -51.5100    8.8100   16.8000 H         6 CUB7        0.0000 
     97 DU        -50.1800    9.4900   12.3000 H         6 CUB7        0.0000 
     98 DU        -50.1500    9.1000   13.7500 H         6 CUB7        0.0000 
     99 DU        -50.1300    8.7100   15.2000 H         6 CUB7        0.0000 
    100 DU        -48.7700    9.0000   12.1500 H         6 CUB7        0.0000 
    101 DU        -48.7500    8.6000   13.5900 H         6 CUB7        0.0000 
    102 DU        -52.4300   11.0600   15.8700 H         6 CUB7        0.0000 
    103 DU        -51.0400   10.9500   14.2700 H         6 CUB7        0.0000 
    104 DU        -51.0200   10.5600   15.7200 H         6 CUB7        0.0000 
@<TRIPOS>BOND
@<TRIPOS>SUBSTRUCTURE
     1 SER1        1 GROUP   
     2 ALA2       16 GROUP   
     3 LYS4       34 GROUP   
     4 PHE5       44 GROUP   
     5 GLY6       53 GROUP   
     6 CUB7       77 GROUP   
@<TRIPOS>SET

