#    Name: 6rd1_2_SI3
#    Modification time : Fri May 22 19:31:26 2020

@<TRIPOS>MOLECULE
6rd1_2_SI3
   21    20     1     0     0
SMALL
NO_CHARGES


@<TRIPOS>ATOM
      1 O1A       -42.4770    4.5220   18.2400 O.co2     1 SI3401      0.0000 
      2 C1        -42.4830    4.7200   16.9530 C.2       1 SI3401      0.0000 
      3 O1B       -41.6360    5.3820   16.3820 O.co2     1 SI3401      0.0000 
      4 C2        -43.6190    4.0590   16.1820 C.2       1 SI3401      0.0000 
      5 O2        -44.1200    3.0210   16.5940 O.2       1 SI3401      0.0000 
      6 C3        -44.0890    4.7110   14.9010 C.3       1 SI3401      0.0000 
      7 C4        -44.6960    3.7210   13.9090 C.3       1 SI3401      0.0000 
      8 O4        -43.8690    3.5840   12.7520 O.3       1 SI3401      0.0000 
      9 C5        -46.1590    4.0210   13.5410 C.3       1 SI3401      0.0000 
     10 N5        -46.2410    5.1160   12.5820 N.am      1 SI3401      0.0000 
     11 C10       -46.3690    6.4180   12.9240 C.2       1 SI3401      0.0000 
     12 C11       -46.4290    7.3950   11.7870 C.3       1 SI3401      0.0000 
     13 O10       -46.4380    6.7870   14.0940 O.2       1 SI3401      0.0000 
     14 C6        -46.8420    2.7320   13.0430 C.3       1 SI3401      0.0000 
     15 O6        -46.4160    1.6640   13.8820 O.3       1 SI3401      0.0000 
     16 C7        -48.3750    2.6640   13.0420 C.3       1 SI3401      0.0000 
     17 O7        -48.8880    2.6660   11.7110 O.3       1 SI3401      0.0000 
     18 C8        -49.0730    3.6700   13.9560 C.3       1 SI3401      0.0000 
     19 O8        -48.5240    3.5310   15.2680 O.3       1 SI3401      0.0000 
     20 C9        -50.5830    3.3550   14.0320 C.3       1 SI3401      0.0000 
     21 O9        -51.2490    3.5770   12.7950 O.3       1 SI3401      0.0000 
@<TRIPOS>BOND
     1    1    2 ar   
     2    2    3 ar   
     3    2    4 1    
     4    4    5 2    
     5    4    6 1    
     6    6    7 1    
     7    7    8 1    
     8    7    9 1    
     9    9   10 1    
    10    9   14 1    
    11   10   11 am   
    12   11   12 1    
    13   11   13 2    
    14   14   15 1    
    15   14   16 1    
    16   16   17 1    
    17   16   18 1    
    18   18   19 1    
    19   18   20 1    
    20   20   21 1    
@<TRIPOS>SUBSTRUCTURE
     1 SI3401      1 GROUP   
@<TRIPOS>SET

