#    Name: 6rd1_1_SI3
#    Modification time : Fri May 22 19:31:21 2020

@<TRIPOS>MOLECULE
6rd1_1_SI3
   21    20     1     0     0
SMALL
NO_CHARGES


@<TRIPOS>ATOM
      1 O1A       -37.6520   32.5880   16.0500 O.co2     1 SI3401      0.0000 
      2 C1        -38.6660   32.4570   15.2170 C.2       1 SI3401      0.0000 
      3 O1B       -39.7220   31.9260   15.5200 O.co2     1 SI3401      0.0000 
      4 C2        -38.4750   33.0290   13.8290 C.2       1 SI3401      0.0000 
      5 O2        -37.6130   33.8740   13.6160 O.2       1 SI3401      0.0000 
      6 C3        -39.4070   32.5520   12.7380 C.3       1 SI3401      0.0000 
      7 C4        -39.4010   33.4510   11.5060 C.3       1 SI3401      0.0000 
      8 O4        -40.7220   33.7580   11.0610 O.3       1 SI3401      0.0000 
      9 C5        -38.5220   32.8990   10.3780 C.3       1 SI3401      0.0000 
     10 N5        -39.2060   31.8560    9.6240 N.am      1 SI3401      0.0000 
     11 C10       -38.7640   30.5870    9.5190 C.2       1 SI3401      0.0000 
     12 C11       -39.5100   29.7080    8.5530 C.3       1 SI3401      0.0000 
     13 O10       -37.8210   30.1630   10.1850 O.2       1 SI3401      0.0000 
     14 C6        -38.0250   34.0120    9.4450 C.3       1 SI3401      0.0000 
     15 O6        -37.7820   35.1980   10.1890 O.3       1 SI3401      0.0000 
     16 C7        -36.7990   33.6260    8.6140 C.3       1 SI3401      0.0000 
     17 O7        -35.6410   33.5780    9.4400 O.3       1 SI3401      0.0000 
     18 C8        -36.5380   34.5880    7.4540 C.3       1 SI3401      0.0000 
     19 O8        -37.7370   34.8880    6.7360 O.3       1 SI3401      0.0000 
     20 C9        -35.4630   34.0950    6.4960 C.3       1 SI3401      0.0000 
     21 O9        -35.9440   33.0440    5.6690 O.3       1 SI3401      0.0000 
@<TRIPOS>BOND
     1    1    2 ar   
     2    2    3 ar   
     3    2    4 1    
     4    4    5 2    
     5    4    6 1    
     6    6    7 1    
     7    7    8 1    
     8    7    9 1    
     9    9   10 1    
    10    9   14 1    
    11   10   11 am   
    12   11   12 1    
    13   11   13 2    
    14   14   15 1    
    15   14   16 1    
    16   16   17 1    
    17   16   18 1    
    18   18   19 1    
    19   18   20 1    
    20   20   21 1    
@<TRIPOS>SUBSTRUCTURE
     1 SI3401      1 GROUP   
@<TRIPOS>SET

