#    Name: 6rd1_1_SI3_CAVITY_N1_6
#    Modification time : Fri May 22 19:31:22 2020

@<TRIPOS>MOLECULE
6rd1_1_SI3_CAVITY_N1_6
   80     0     6     0     0
SMALL
NO_CHARGES


@<TRIPOS>ATOM
      1 OG        -40.5800   32.7300   10.7000 O.3       1 SER1        0.0000 
      2 OG        -40.5600   32.3300   12.1400 O.3       1 SER1        0.0000 
      3 OG        -39.1200   31.4400   13.4300 O.3       1 SER1        0.0000 
      4 OG        -37.7600   31.7400   10.3800 O.3       1 SER1        0.0000 
      5 OG        -36.3600   31.2400   10.2200 O.3       1 SER1        0.0000 
      6 OG        -40.0400   33.6900   12.5100 O.3       1 SER1        0.0000 
      7 OG        -40.0100   33.3000   13.9500 O.3       1 SER1        0.0000 
      8 OG        -39.9900   32.9000   15.4000 O.3       1 SER1        0.0000 
      9 OG        -38.6300   33.2000   12.3500 O.3       1 SER1        0.0000 
     10 OG        -38.6100   32.8000   13.8000 O.3       1 SER1        0.0000 
     11 OG        -37.2500   33.1000   10.7400 O.3       1 SER1        0.0000 
     12 OG        -37.2200   32.7000   12.1900 O.3       1 SER1        0.0000 
     13 OG        -35.8600   32.9900    9.1400 O.3       1 SER1        0.0000 
     14 OG        -39.4900   34.6600   14.3200 O.3       1 SER1        0.0000 
     15 OG        -38.0900   34.1600   14.1600 O.3       1 SER1        0.0000 
     16 O         -40.7500   28.5500    8.0100 O.2       2 ALA2        0.0000 
     17 O         -39.3700   28.4400    6.4000 O.2       2 ALA2        0.0000 
     18 O         -40.2300   29.9100    8.3700 O.2       2 ALA2        0.0000 
     19 N         -39.2000   32.6200    9.0900 N.am      2 ALA2        0.0000 
     20 N         -33.6100   31.4300    5.5700 N.am      2 ALA2        0.0000 
     21 N         -40.0600   34.0900   11.0600 N.am      2 ALA2        0.0000 
     22 N         -38.7000   34.3800    8.0100 N.am      2 ALA2        0.0000 
     23 N         -38.6800   33.9800    9.4500 N.am      2 ALA2        0.0000 
     24 N         -38.6500   33.5900   10.9000 N.am      2 ALA2        0.0000 
     25 O         -38.5800   32.4100   15.2400 O.2       2 ALA2        0.0000 
     26 N         -39.5200   35.0500   12.8700 N.am      2 ALA2        0.0000 
     27 O         -38.1300   34.9500   11.2600 O.2       2 ALA2        0.0000 
     28 O         -38.1100   34.5600   12.7100 O.2       2 ALA2        0.0000 
     29 O         -36.7500   34.8500    9.6600 O.2       2 ALA2        0.0000 
     30 NZ        -36.9700   31.4600    4.0700 N.4       3 LYS4        0.0000 
     31 NZ        -37.8400   32.9200    6.0400 N.4       3 LYS4        0.0000 
     32 NZ        -36.4300   32.4200    5.8800 N.4       3 LYS4        0.0000 
     33 NZ        -35.0500   32.3200    4.2800 N.4       3 LYS4        0.0000 
     34 NZ        -35.0200   31.9300    5.7200 N.4       3 LYS4        0.0000 
     35 NZ        -37.3200   34.2800    6.4000 N.4       3 LYS4        0.0000 
     36 NZ        -35.9100   33.7800    6.2400 N.4       3 LYS4        0.0000 
     37 NZ        -38.1600   35.3400    9.8200 N.4       3 LYS4        0.0000 
     38 NZ        -36.7700   35.2400    8.2100 N.4       3 LYS4        0.0000 
     39 CZ        -35.9900   28.0300    9.3400 C.ar      4 PHE5        0.0000 
     40 CZ        -40.5300   31.9400   13.5900 C.ar      4 PHE5        0.0000 
     41 CA        -38.4600   26.1900    7.3300 C.3       5 GLY6        0.0000 
     42 CA        -39.3500   28.0500    7.8500 C.3       5 GLY6        0.0000 
     43 CA        -37.9400   27.5500    7.6900 C.3       5 GLY6        0.0000 
     44 CA        -37.9200   27.1600    9.1400 C.3       5 GLY6        0.0000 
     45 CA        -36.5300   27.0600    7.5300 C.3       5 GLY6        0.0000 
     46 CA        -40.2100   29.5100    9.8200 C.3       5 GLY6        0.0000 
     47 CA        -38.8000   29.0200    9.6600 C.3       5 GLY6        0.0000 
     48 CA        -37.4000   28.5200    9.5000 C.3       5 GLY6        0.0000 
     49 CA        -41.1000   31.3700   10.3400 C.3       5 GLY6        0.0000 
     50 CA        -39.6900   30.8700   10.1800 C.3       5 GLY6        0.0000 
     51 CA        -39.1500   31.8400   11.9900 C.3       5 GLY6        0.0000 
     52 CA        -35.0000   31.5300    7.1700 C.3       5 GLY6        0.0000 
     53 CA        -34.9700   31.1400    8.6200 C.3       5 GLY6        0.0000 
     54 CA        -33.5900   31.0400    7.0100 C.3       5 GLY6        0.0000 
     55 CA        -34.5000   33.2900    6.0900 C.3       5 GLY6        0.0000 
     56 CA        -34.4800   32.8900    7.5300 C.3       5 GLY6        0.0000 
     57 CA        -34.4600   32.5000    8.9800 C.3       5 GLY6        0.0000 
     58 CA        -35.3900   35.1400    6.6100 C.3       5 GLY6        0.0000 
     59 CA        -35.3700   34.7500    8.0500 C.3       5 GLY6        0.0000 
     60 CA        -35.3400   34.3500    9.5000 C.3       5 GLY6        0.0000 
     61 CA        -33.9600   34.2500    7.9000 C.3       5 GLY6        0.0000 
     62 DU        -38.8700   30.2000    5.3200 H         6 CUB7        0.0000 
     63 DU        -38.8500   29.8000    6.7600 H         6 CUB7        0.0000 
     64 DU        -38.8300   29.4100    8.2100 H         6 CUB7        0.0000 
     65 DU        -37.4200   28.9100    8.0500 H         6 CUB7        0.0000 
     66 DU        -36.0100   28.4200    7.9000 H         6 CUB7        0.0000 
     67 DU        -38.3600   31.5600    5.6800 H         6 CUB7        0.0000 
     68 DU        -38.2800   30.3800   10.0200 H         6 CUB7        0.0000 
     69 DU        -36.9500   31.0600    5.5200 H         6 CUB7        0.0000 
     70 DU        -36.9000   30.2700    8.4200 H         6 CUB7        0.0000 
     71 DU        -36.8800   29.8800    9.8600 H         6 CUB7        0.0000 
     72 DU        -35.4900   29.7800    8.2600 H         6 CUB7        0.0000 
     73 DU        -39.1700   32.2300   10.5400 H         6 CUB7        0.0000 
     74 DU        -37.8100   32.5200    7.4900 H         6 CUB7        0.0000 
     75 DU        -37.7900   32.1300    8.9300 H         6 CUB7        0.0000 
     76 DU        -36.4100   32.0300    7.3300 H         6 CUB7        0.0000 
     77 DU        -36.3800   31.6300    8.7800 H         6 CUB7        0.0000 
     78 DU        -37.2900   33.8800    7.8500 H         6 CUB7        0.0000 
     79 DU        -37.2700   33.4900    9.3000 H         6 CUB7        0.0000 
     80 DU        -35.8900   33.3900    7.6900 H         6 CUB7        0.0000 
@<TRIPOS>BOND
@<TRIPOS>SUBSTRUCTURE
     1 SER1        1 GROUP   
     2 ALA2       16 GROUP   
     3 LYS4       30 GROUP   
     4 PHE5       39 GROUP   
     5 GLY6       41 GROUP   
     6 CUB7       62 GROUP   
@<TRIPOS>SET

