#    Name: 6rtm_1_FAD
#    Modification time : Fri May 22 19:25:27 2020

@<TRIPOS>MOLECULE
6rtm_1_FAD
   84    89     1     0     1
SMALL
NO_CHARGES


@<TRIPOS>ATOM
      1 PA        164.0550    6.1290   15.1330 P.3       1 FAD601      0.0000 
      2 O1A       163.7120    5.2810   16.3510 O.co2     1 FAD601      0.0000 
      3 O2A       163.3270    5.6880   13.8820 O.co2     1 FAD601      0.0000 
      4 O5B       165.7290    6.1430   14.8300 O.3       1 FAD601      0.0000 
      5 C5B       166.5850    6.4450   15.9340 C.3       1 FAD601      0.0000 
      6 C4B       167.9220    5.6120   15.6070 C.3       1 FAD601      0.0000 
      7 O4B       168.9520    6.0350   16.2890 O.3       1 FAD601      0.0000 
      8 C3B       167.6830    4.1780   16.0440 C.3       1 FAD601      0.0000 
      9 O3B       168.2290    3.3210   15.0950 O.3       1 FAD601      0.0000 
     10 C2B       168.4440    4.1020   17.3940 C.3       1 FAD601      0.0000 
     11 O2B       168.7560    2.6470   17.7960 O.3       1 FAD601      0.0000 
     12 C1B       169.5080    4.7860   17.1060 C.3       1 FAD601      0.0000 
     13 N9A       170.2540    5.3140   18.2670 N.pl3     1 FAD601      0.0000 
     14 C8A       169.7960    5.5880   19.5300 C.2       1 FAD601      0.0000 
     15 N7A       170.8200    6.0610   20.2390 N.2       1 FAD601      0.0000 
     16 C5A       171.9150    6.0790   19.4200 C.ar      1 FAD601      0.0000 
     17 C6A       173.2070    6.4640   19.6490 C.ar      1 FAD601      0.0000 
     18 N6A       173.8060    6.9800   20.8620 N.pl3     1 FAD601      0.0000 
     19 N1A       174.1320    6.4140   18.7000 N.ar      1 FAD601      0.0000 
     20 C2A       173.7750    5.9650   17.4690 C.ar      1 FAD601      0.0000 
     21 N3A       172.4940    5.5670   17.2270 N.ar      1 FAD601      0.0000 
     22 C4A       171.5690    5.6200   18.2020 C.ar      1 FAD601      0.0000 
     23 N1        154.9140    6.2700   12.5620 N.2       1 FAD601      0.0000 
     24 C2        154.0820    6.5070   11.3770 C.2       1 FAD601      0.0000 
     25 O2        154.1470    7.5280   10.8170 O.2       1 FAD601      0.0000 
     26 N3        153.1980    5.4380   10.8420 N.am      1 FAD601      0.0000 
     27 C4        153.0990    4.1650   11.5020 C.2       1 FAD601      0.0000 
     28 O4        152.3760    3.2980   11.1140 O.2       1 FAD601      0.0000 
     29 C4X       153.9280    3.9420   12.7150 C.2       1 FAD601      0.0000 
     30 N5        153.8540    2.6630   13.3590 N.2       1 FAD601      0.0000 
     31 C5X       154.6730    2.4130   14.5840 C.ar      1 FAD601      0.0000 
     32 C6        154.5980    1.1640   15.2320 C.ar      1 FAD601      0.0000 
     33 C7        155.3550    0.9280   16.3590 C.ar      1 FAD601      0.0000 
     34 C7M       155.1570   -0.4950   16.8900 C.3       1 FAD601      0.0000 
     35 C8        156.2110    1.9670   16.8250 C.ar      1 FAD601      0.0000 
     36 C8M       157.1240    1.7290   18.1120 C.3       1 FAD601      0.0000 
     37 C9        156.3100    3.1820   16.1860 C.ar      1 FAD601      0.0000 
     38 C9A       155.5220    3.4280   15.0590 C.ar      1 FAD601      0.0000 
     39 N10       155.5890    4.7460   14.3930 N.pl3     1 FAD601      0.0000 
     40 C10       154.7980    4.9900   13.2150 C.2       1 FAD601      0.0000 
     41 C1'       156.4740    5.8130   14.8790 C.3       1 FAD601      0.0000 
     42 C2'       157.7790    5.7990   14.0510 C.3       1 FAD601      0.0000 
     43 O2'       158.4140    4.5420   14.1800 O.3       1 FAD601      0.0000 
     44 C3'       158.6250    6.9110   14.6350 C.3       1 FAD601      0.0000 
     45 O3'       157.9500    8.1770   14.5730 O.3       1 FAD601      0.0000 
     46 C4'       159.9310    6.9860   13.8460 C.3       1 FAD601      0.0000 
     47 O4'       160.5430    5.7270   13.6360 O.3       1 FAD601      0.0000 
     48 C5'       160.8930    7.7850   14.6870 C.3       1 FAD601      0.0000 
     49 O5'       161.8500    8.4050   13.7900 O.3       1 FAD601      0.0000 
     50 P         163.1570    8.9470   14.5940 P.3       1 FAD601      0.0000 
     51 O1P       164.0740    9.3870   13.5420 O.co2     1 FAD601      0.0000 
     52 O2P       162.7670    9.9390   15.6050 O.co2     1 FAD601      0.0000 
     53 O3P       163.7520    7.7190   15.5530 O.3       1 FAD601      0.0000 
     54 H51A      166.7710    7.3960   15.9750 H         1 FAD601      0.0000 
     55 H52A      166.1890    6.1370   16.7640 H         1 FAD601      0.0000 
     56 H4B       168.1160    5.6430   14.6570 H         1 FAD601      0.0000 
     57 H3B       166.7360    4.0090   16.1700 H         1 FAD601      0.0000 
     58 HO3A      167.7760    2.6030   15.0670 H         1 FAD601      0.0000 
     59 H2B       167.9360    4.5490   18.0890 H         1 FAD601      0.0000 
     60 HO2A      168.6170    2.5470   18.6290 H         1 FAD601      0.0000 
     61 H1B       170.0940    4.2570   16.5420 H         1 FAD601      0.0000 
     62 H8A       168.9280    5.4610   19.8380 H         1 FAD601      0.0000 
     63 H61A      174.3000    7.6830   20.8320 H         1 FAD601      0.0000 
     64 H62A      173.6670    6.5840   21.6120 H         1 FAD601      0.0000 
     65 H2A       174.4110    5.9120   16.7930 H         1 FAD601      0.0000 
     66 HN3       152.7110    5.5980   10.1510 H         1 FAD601      0.0000 
     67 H6        154.0060    0.5910   14.8010 H         1 FAD601      0.0000 
     68 HM71      155.2880   -1.1300   16.1680 H         1 FAD601      0.0000 
     69 HM72      154.2630   -0.5880   17.2540 H         1 FAD601      0.0000 
     70 HM73      155.8100   -0.6710   17.5850 H         1 FAD601      0.0000 
     71 HM81      157.8510    1.1260   17.8870 H         1 FAD601      0.0000 
     72 HM82      156.5890    1.3390   18.8200 H         1 FAD601      0.0000 
     73 HM83      157.4890    2.5760   18.4110 H         1 FAD601      0.0000 
     74 H9        156.9130    3.6660   16.7030 H         1 FAD601      0.0000 
     75 H1'1      156.6900    5.6490   15.8100 H         1 FAD601      0.0000 
     76 H1'2      156.0340    6.6730   14.7940 H         1 FAD601      0.0000 
     77 H2'       157.5850    5.9820   13.1180 H         1 FAD601      0.0000 
     78 HO2'      158.1880    4.0420   13.5310 H         1 FAD601      0.0000 
     79 H3'       158.8240    6.7050   15.5610 H         1 FAD601      0.0000 
     80 HO3'      157.5060    8.2970   15.2880 H         1 FAD601      0.0000 
     81 H4'       159.7840    7.4310   12.9960 H         1 FAD601      0.0000 
     82 HO4'      161.1400    5.7970   13.0350 H         1 FAD601      0.0000 
     83 H5'1      160.4180    8.4700   15.1840 H         1 FAD601      0.0000 
     84 H5'2      161.3570    7.2020   15.3090 H         1 FAD601      0.0000 
@<TRIPOS>BOND
     1    1    2 ar   
     2    1    3 ar   
     3    1    4 1    
     4    1   53 1    
     5    4    5 1    
     6    5    6 1    
     7    5   54 1    
     8    5   55 1    
     9    6    7 1    
    10    6    8 1    
    11    6   56 1    
    12    7   12 1    
    13    8    9 1    
    14    8   10 1    
    15    8   57 1    
    16    9   58 1    
    17   10   11 1    
    18   10   12 1    
    19   10   59 1    
    20   12   61 1    
    21   12   13 1    
    22   11   60 1    
    23   13   14 1    
    24   13   22 1    
    25   14   15 2    
    26   15   16 1    
    27   14   62 1    
    28   16   17 ar   
    29   16   22 ar   
    30   17   18 1    
    31   17   19 ar   
    32   19   20 ar   
    33   18   63 1    
    34   18   64 1    
    35   20   21 ar   
    36   21   22 ar   
    37   20   65 1    
    38   23   24 1    
    39   23   40 2    
    40   24   25 2    
    41   24   26 am   
    42   26   27 am   
    43   27   28 2    
    44   26   66 1    
    45   27   29 1    
    46   29   30 2    
    47   29   40 1    
    48   30   31 1    
    49   31   32 ar   
    50   31   38 ar   
    51   32   33 ar   
    52   33   34 1    
    53   32   67 1    
    54   33   35 ar   
    55   34   68 1    
    56   34   69 1    
    57   34   70 1    
    58   35   36 1    
    59   35   37 ar   
    60   37   74 1    
    61   36   71 1    
    62   36   72 1    
    63   36   73 1    
    64   37   38 ar   
    65   38   39 1    
    66   39   40 1    
    67   39   41 1    
    68   41   42 1    
    69   41   75 1    
    70   41   76 1    
    71   42   43 1    
    72   42   44 1    
    73   42   77 1    
    74   43   78 1    
    75   44   45 1    
    76   44   46 1    
    77   44   79 1    
    78   45   80 1    
    79   46   47 1    
    80   46   48 1    
    81   46   81 1    
    82   47   82 1    
    83   48   49 1    
    84   48   83 1    
    85   48   84 1    
    86   49   50 1    
    87   50   51 ar   
    88   50   52 ar   
    89   50   53 1    
@<TRIPOS>SUBSTRUCTURE
     1 FAD601      1 GROUP   
@<TRIPOS>SET
ATOM$ORANGE STATIC     ATOMS   COLORGROUP SYSTEM 
54 5 5 6 6 8 8 10 10 12 12 14 14 16 16 17 17 20 \
20 22 22 24 24 27 27 29 29 31 31 32 32 33 33 34 34 35 \
35 36 36 37 37 38 38 40 40 41 41 42 42 44 44 46 46 48 \
48 

