#    Name: 5zjd_1_NAI_CAVITY_N1_6
#    Modification time : Fri May 22 19:25:37 2020

@<TRIPOS>MOLECULE
5zjd_1_NAI_CAVITY_N1_6
   70     0     5     0     0
SMALL
NO_CHARGES


@<TRIPOS>ATOM
      1 OG          1.0500   22.6400   94.0100 O.3       1 SER1        0.0000 
      2 OG          2.7200   22.7800   92.7100 O.3       1 SER1        0.0000 
      3 OG          2.5400   22.5800   94.1800 O.3       1 SER1        0.0000 
      4 OG          2.9300   24.4700   91.4500 O.3       1 SER1        0.0000 
      5 OG          2.7500   24.2700   92.9200 O.3       1 SER1        0.0000 
      6 OG          2.5700   24.0600   94.4000 O.3       1 SER1        0.0000 
      7 OG          4.0600   24.0000   94.5700 O.3       1 SER1        0.0000 
      8 OG          4.4600   25.9000   91.8300 O.3       1 SER1        0.0000 
      9 OG          4.2800   25.6900   93.3000 O.3       1 SER1        0.0000 
     10 N          -1.2200   23.5900   87.7700 N.am      2 ALA2        0.0000 
     11 N          -1.4000   23.3800   89.2500 N.am      2 ALA2        0.0000 
     12 N          -0.0900   23.1100   90.8900 N.am      2 ALA2        0.0000 
     13 N          -0.2600   22.9100   92.3700 N.am      2 ALA2        0.0000 
     14 O           1.2300   22.8400   92.5400 O.2       2 ALA2        0.0000 
     15 N          -1.1800   25.0700   87.9800 N.am      2 ALA2        0.0000 
     16 N          -1.5400   24.6600   90.9300 N.am      2 ALA2        0.0000 
     17 N           0.6600   25.4300   85.2000 N.am      2 ALA2        0.0000 
     18 O          -0.0500   24.6000   91.1000 O.2       2 ALA2        0.0000 
     19 O           2.3300   25.5700   83.9000 O.2       2 ALA2        0.0000 
     20 O           2.1500   25.3600   85.3700 O.2       2 ALA2        0.0000 
     21 O           1.4400   24.5400   91.2700 O.2       2 ALA2        0.0000 
     22 O           1.2600   24.3300   92.7500 O.2       2 ALA2        0.0000 
     23 O           1.0900   24.1200   94.2200 O.2       2 ALA2        0.0000 
     24 N          -0.6100   27.1800   83.7700 N.am      2 ALA2        0.0000 
     25 N          -0.9700   26.7600   86.7200 N.am      2 ALA2        0.0000 
     26 N          -1.1500   26.5600   88.2000 N.am      2 ALA2        0.0000 
     27 O          -1.3200   26.3500   89.6700 O.2       2 ALA2        0.0000 
     28 N           0.8700   27.1200   83.9400 N.am      2 ALA2        0.0000 
     29 N           0.7000   26.9100   85.4200 N.am      2 ALA2        0.0000 
     30 O           0.1700   26.2900   89.8400 O.2       2 ALA2        0.0000 
     31 O           1.4800   26.0200   91.4900 O.2       2 ALA2        0.0000 
     32 O           4.0300   27.2000   82.8100 O.2       2 ALA2        0.0000 
     33 N           3.1400   26.1700   90.1800 N.am      2 ALA2        0.0000 
     34 N           2.9700   25.9600   91.6600 N.am      2 ALA2        0.0000 
     35 N           2.7900   25.7500   93.1300 N.am      2 ALA2        0.0000 
     36 N           2.6100   25.5500   94.6100 N.am      2 ALA2        0.0000 
     37 O           4.6300   26.1000   90.3500 O.2       2 ALA2        0.0000 
     38 N           0.7300   28.3900   85.6300 N.am      2 ALA2        0.0000 
     39 O           0.0200   27.5700   91.5300 O.2       2 ALA2        0.0000 
     40 N           1.5100   27.5000   91.7000 N.am      2 ALA2        0.0000 
     41 N           3.0000   27.4400   91.8700 N.am      2 ALA2        0.0000 
     42 OD1         2.3600   27.0600   84.1100 O.co2     3 ASP3        0.0000 
     43 OD1         2.5800   28.7500   82.8500 O.co2     3 ASP3        0.0000 
     44 OD1         2.4000   28.5400   84.3300 O.co2     3 ASP3        0.0000 
     45 CA         -0.3000   21.4200   92.1500 C.3       4 GLY6        0.0000 
     46 CA          1.1900   21.3600   92.3200 C.3       4 GLY6        0.0000 
     47 CA          0.2700   23.5300   87.9400 C.3       4 GLY6        0.0000 
     48 CA          0.0900   23.3200   89.4200 C.3       4 GLY6        0.0000 
     49 CA          1.4000   23.0500   91.0600 C.3       4 GLY6        0.0000 
     50 CA          2.8900   22.9900   91.2300 C.3       4 GLY6        0.0000 
     51 CA         -2.6700   25.1300   87.8100 C.3       4 GLY6        0.0000 
     52 CA         -1.3600   24.8700   89.4600 C.3       4 GLY6        0.0000 
     53 CA          0.4800   25.2200   86.6800 C.3       4 GLY6        0.0000 
     54 CA          0.3100   25.0100   88.1500 C.3       4 GLY6        0.0000 
     55 CA          0.1300   24.8000   89.6300 C.3       4 GLY6        0.0000 
     56 CA          1.6200   24.7400   89.8000 C.3       4 GLY6        0.0000 
     57 CA          3.1100   24.6800   89.9700 C.3       4 GLY6        0.0000 
     58 CA          0.5200   26.7000   86.8900 C.3       4 GLY6        0.0000 
     59 CA          0.3400   26.5000   88.3700 C.3       4 GLY6        0.0000 
     60 CA          2.5400   27.2600   82.6400 C.3       4 GLY6        0.0000 
     61 CA          2.1900   26.8500   85.5900 C.3       4 GLY6        0.0000 
     62 CA          2.0100   26.6400   87.0600 C.3       4 GLY6        0.0000 
     63 CA          1.8300   26.4300   88.5400 C.3       4 GLY6        0.0000 
     64 CA          1.6500   26.2300   90.0100 C.3       4 GLY6        0.0000 
     65 CA          3.3200   26.3700   88.7100 C.3       4 GLY6        0.0000 
     66 CA          0.2000   27.7700   90.0500 C.3       4 GLY6        0.0000 
     67 CA          1.6900   27.7100   90.2300 C.3       4 GLY6        0.0000 
     68 CA          3.1800   27.6500   90.4000 C.3       4 GLY6        0.0000 
     69 CA          4.4900   27.3800   92.0400 C.3       4 GLY6        0.0000 
     70 DU          1.0900   28.8100   82.6800 H         5 CUB7        0.0000 
@<TRIPOS>BOND
@<TRIPOS>SUBSTRUCTURE
     1 SER1        1 GROUP   
     2 ALA2       10 GROUP   
     3 ASP3       42 GROUP   
     4 GLY6       45 GROUP   
     5 CUB7       70 GROUP   
@<TRIPOS>SET

