#    Name: 5zjd_8_NAI
#    Modification time : Fri May 22 19:26:24 2020

@<TRIPOS>MOLECULE
5zjd_8_NAI
   44    48     1     0     1
SMALL
NO_CHARGES


@<TRIPOS>ATOM
      1 PA         -1.1950  229.0750   23.8630 P.3       1 NAI401      0.0000 
      2 O1A        -1.2070  230.5630   24.1270 O.co2     1 NAI401      0.0000 
      3 O2A        -0.1600  228.7050   22.8110 O.co2     1 NAI401      0.0000 
      4 O5B        -2.6230  228.4610   23.3170 O.3       1 NAI401      0.0000 
      5 C5B        -3.7540  228.5280   24.1600 C.3       1 NAI401      0.0000 
      6 C4B        -4.9520  228.3440   23.1550 C.3       1 NAI401      0.0000 
      7 O4B        -6.2540  228.5450   23.9890 O.3       1 NAI401      0.0000 
      8 C3B        -4.9030  229.2470   22.2590 C.3       1 NAI401      0.0000 
      9 O3B        -5.0900  228.6790   20.9200 O.3       1 NAI401      0.0000 
     10 C2B        -6.1830  230.2630   22.6010 C.3       1 NAI401      0.0000 
     11 O2B        -6.7020  230.9100   21.4150 O.3       1 NAI401      0.0000 
     12 C1B        -7.0500  229.4580   23.0440 C.3       1 NAI401      0.0000 
     13 N9A        -7.9650  230.2860   23.8240 N.pl3     1 NAI401      0.0000 
     14 C8A        -7.9270  231.4160   24.5090 C.2       1 NAI401      0.0000 
     15 N7A        -9.1680  231.6190   24.9780 N.2       1 NAI401      0.0000 
     16 C5A        -9.9520  230.6200   24.5610 C.ar      1 NAI401      0.0000 
     17 C6A       -11.2900  230.3890   24.7670 C.ar      1 NAI401      0.0000 
     18 N6A       -12.5230  230.9230   25.4440 N.pl3     1 NAI401      0.0000 
     19 N1A       -11.8600  229.2970   24.2530 N.ar      1 NAI401      0.0000 
     20 C2A       -11.1320  228.4110   23.5140 C.ar      1 NAI401      0.0000 
     21 N3A        -9.7910  228.6480   23.3020 N.ar      1 NAI401      0.0000 
     22 C4A        -9.2190  229.7610   23.8370 C.ar      1 NAI401      0.0000 
     23 O3         -0.8160  228.3100   25.2590 O.3       1 NAI401      0.0000 
     24 PN         -0.0920  226.8530   25.3240 P.3       1 NAI401      0.0000 
     25 O1N        -0.7390  225.8540   24.3990 O.co2     1 NAI401      0.0000 
     26 O2N         1.3540  226.9550   25.0790 O.co2     1 NAI401      0.0000 
     27 O5D        -0.4440  226.4280   26.8970 O.3       1 NAI401      0.0000 
     28 C5D        -1.8320  226.4620   27.1620 C.3       1 NAI401      0.0000 
     29 C4D        -2.0550  226.4130   28.7090 C.3       1 NAI401      0.0000 
     30 O4D        -1.5780  225.2670   29.1620 O.3       1 NAI401      0.0000 
     31 C3D        -1.2680  227.5120   29.4070 C.3       1 NAI401      0.0000 
     32 O3D        -2.0250  228.0040   30.4450 O.3       1 NAI401      0.0000 
     33 C2D        -0.0250  226.7800   29.9480 C.3       1 NAI401      0.0000 
     34 O2D         0.5330  227.4720   31.1460 O.3       1 NAI401      0.0000 
     35 C1D        -0.5520  225.6540   30.3040 C.3       1 NAI401      0.0000 
     36 N1N         0.4090  224.5740   30.4350 N.pl3     1 NAI401      0.0000 
     37 C2N         0.2310  223.7030   31.5750 C.2       1 NAI401      0.0000 
     38 C3N         1.2090  222.5540   31.8390 C.2       1 NAI401      0.0000 
     39 C7N         0.9540  221.6990   33.0860 C.2       1 NAI401      0.0000 
     40 O7N         1.8200  221.0070   33.4890 O.2       1 NAI401      0.0000 
     41 N7N        -0.3780  221.7580   33.7350 N.am      1 NAI401      0.0000 
     42 C4N         2.4450  222.3360   30.9660 C.3       1 NAI401      0.0000 
     43 C5N         2.5030  223.2500   29.6980 C.2       1 NAI401      0.0000 
     44 C6N         1.4880  224.3770   29.4760 C.2       1 NAI401      0.0000 
@<TRIPOS>BOND
     1    1    2 ar   
     2    1    3 ar   
     3    1    4 1    
     4    1   23 1    
     5    4    5 1    
     6    5    6 1    
     7    6    7 1    
     8    6    8 1    
     9    7   12 1    
    10    8    9 1    
    11    8   10 1    
    12   10   11 1    
    13   10   12 1    
    14   12   13 1    
    15   13   14 1    
    16   13   22 1    
    17   14   15 2    
    18   15   16 1    
    19   16   17 ar   
    20   16   22 ar   
    21   17   18 1    
    22   17   19 ar   
    23   19   20 ar   
    24   20   21 ar   
    25   21   22 ar   
    26   23   24 1    
    27   24   25 ar   
    28   24   26 ar   
    29   24   27 1    
    30   27   28 1    
    31   28   29 1    
    32   29   30 1    
    33   29   31 1    
    34   30   35 1    
    35   31   32 1    
    36   31   33 1    
    37   33   34 1    
    38   33   35 1    
    39   35   36 1    
    40   36   37 1    
    41   36   44 1    
    42   37   38 2    
    43   38   39 1    
    44   38   42 1    
    45   39   40 2    
    46   39   41 am   
    47   42   43 1    
    48   43   44 2    
@<TRIPOS>SUBSTRUCTURE
     1 NAI401      1 GROUP   
@<TRIPOS>SET
ATOM$ORANGE STATIC     ATOMS   COLORGROUP SYSTEM 
42 5 5 6 6 8 8 10 10 12 12 14 14 16 16 17 17 20 \
20 22 22 28 28 29 29 31 31 33 33 35 35 37 37 38 38 39 \
39 42 42 43 43 44 44 

