#    Name: 5zjd_3_NAI
#    Modification time : Fri May 22 19:25:50 2020

@<TRIPOS>MOLECULE
5zjd_3_NAI
   44    48     1     0     1
SMALL
NO_CHARGES


@<TRIPOS>ATOM
      1 PA         17.0330  -26.8130   96.7640 P.3       1 NAI401      0.0000 
      2 O1A        17.5730  -28.0420   97.4480 O.co2     1 NAI401      0.0000 
      3 O2A        16.1310  -27.0950   95.5580 O.co2     1 NAI401      0.0000 
      4 O5B        18.2920  -25.9200   96.2170 O.3       1 NAI401      0.0000 
      5 C5B        19.5080  -25.9710   96.9210 C.3       1 NAI401      0.0000 
      6 C4B        20.5390  -25.8660   95.7360 C.3       1 NAI401      0.0000 
      7 O4B        21.9400  -25.6140   96.3630 O.3       1 NAI401      0.0000 
      8 C3B        20.5590  -26.9740   95.1240 C.3       1 NAI401      0.0000 
      9 O3B        20.4750  -26.7670   93.6760 O.3       1 NAI401      0.0000 
     10 C2B        22.0470  -27.6590   95.4570 C.3       1 NAI401      0.0000 
     11 O2B        22.4880  -28.4440   94.3100 O.3       1 NAI401      0.0000 
     12 C1B        22.8160  -26.6650   95.6590 C.3       1 NAI401      0.0000 
     13 N9A        23.9110  -27.1030   96.5590 N.pl3     1 NAI401      0.0000 
     14 C8A        24.1300  -27.9480   97.5660 C.2       1 NAI401      0.0000 
     15 N7A        25.4300  -27.8320   97.8930 N.2       1 NAI401      0.0000 
     16 C5A        25.9910  -26.9350   97.0740 C.ar      1 NAI401      0.0000 
     17 C6A        27.2880  -26.4870   97.0040 C.ar      1 NAI401      0.0000 
     18 N6A        28.6450  -26.6450   97.6310 N.pl3     1 NAI401      0.0000 
     19 N1A        27.6380  -25.5690   96.1050 N.ar      1 NAI401      0.0000 
     20 C2A        26.7050  -25.0790   95.2420 C.ar      1 NAI401      0.0000 
     21 N3A        25.4030  -25.5310   95.3060 N.ar      1 NAI401      0.0000 
     22 C4A        25.0690  -26.4660   96.2330 C.ar      1 NAI401      0.0000 
     23 O3         16.1570  -25.9570   97.8620 O.3       1 NAI401      0.0000 
     24 PN         15.5300  -24.4700   97.6680 P.3       1 NAI401      0.0000 
     25 O1N        16.1500  -23.8620   96.4300 O.co2     1 NAI401      0.0000 
     26 O2N        14.0570  -24.5050   97.6240 O.co2     1 NAI401      0.0000 
     27 O5D        16.0060  -23.6520   99.0520 O.3       1 NAI401      0.0000 
     28 C5D        17.3520  -23.2420   99.0620 C.3       1 NAI401      0.0000 
     29 C4D        17.7240  -22.7600  100.5050 C.3       1 NAI401      0.0000 
     30 O4D        17.0550  -21.6610  100.7910 O.3       1 NAI401      0.0000 
     31 C3D        17.3060  -23.7890  101.5330 C.3       1 NAI401      0.0000 
     32 O3D        18.2830  -23.8450  102.4970 O.3       1 NAI401      0.0000 
     33 C2D        15.9850  -23.2270  102.1020 C.3       1 NAI401      0.0000 
     34 O2D        15.7270  -23.8090  103.4600 O.3       1 NAI401      0.0000 
     35 C1D        16.2540  -21.9560  102.1300 C.3       1 NAI401      0.0000 
     36 N1N        15.0970  -21.0520  102.1060 N.pl3     1 NAI401      0.0000 
     37 C2N        15.1650  -19.8490  102.9190 C.2       1 NAI401      0.0000 
     38 C3N        13.9220  -18.9600  103.1380 C.2       1 NAI401      0.0000 
     39 C7N        14.1530  -17.5490  103.7390 C.2       1 NAI401      0.0000 
     40 O7N        13.2360  -16.8080  103.8760 O.2       1 NAI401      0.0000 
     41 N7N        15.5350  -17.1530  104.1340 N.am      1 NAI401      0.0000 
     42 C4N        12.5900  -19.3270  102.4810 C.3       1 NAI401      0.0000 
     43 C5N        12.7390  -20.3490  101.3050 C.2       1 NAI401      0.0000 
     44 C6N        13.9300  -21.3220  101.2690 C.2       1 NAI401      0.0000 
@<TRIPOS>BOND
     1    1    2 ar   
     2    1    3 ar   
     3    1    4 1    
     4    1   23 1    
     5    4    5 1    
     6    5    6 1    
     7    6    7 1    
     8    6    8 1    
     9    7   12 1    
    10    8    9 1    
    11    8   10 1    
    12   10   11 1    
    13   10   12 1    
    14   12   13 1    
    15   13   14 1    
    16   13   22 1    
    17   14   15 2    
    18   15   16 1    
    19   16   17 ar   
    20   16   22 ar   
    21   17   18 1    
    22   17   19 ar   
    23   19   20 ar   
    24   20   21 ar   
    25   21   22 ar   
    26   23   24 1    
    27   24   25 ar   
    28   24   26 ar   
    29   24   27 1    
    30   27   28 1    
    31   28   29 1    
    32   29   30 1    
    33   29   31 1    
    34   30   35 1    
    35   31   32 1    
    36   31   33 1    
    37   33   34 1    
    38   33   35 1    
    39   35   36 1    
    40   36   37 1    
    41   36   44 1    
    42   37   38 2    
    43   38   39 1    
    44   38   42 1    
    45   39   40 2    
    46   39   41 am   
    47   42   43 1    
    48   43   44 2    
@<TRIPOS>SUBSTRUCTURE
     1 NAI401      1 GROUP   
@<TRIPOS>SET
ATOM$ORANGE STATIC     ATOMS   COLORGROUP SYSTEM 
42 5 5 6 6 8 8 10 10 12 12 14 14 16 16 17 17 20 \
20 22 22 28 28 29 29 31 31 33 33 35 35 37 37 38 38 39 \
39 42 42 43 43 44 44 

