#    Name: 5zjd_1_NAI
#    Modification time : Fri May 22 19:25:35 2020

@<TRIPOS>MOLECULE
5zjd_1_NAI
   44    48     1     0     1
SMALL
NO_CHARGES


@<TRIPOS>ATOM
      1 PA          2.0430   27.8050   83.2010 P.3       1 NAI401      0.0000 
      2 O1A         1.9510   29.3100   82.9660 O.co2     1 NAI401      0.0000 
      3 O2A         3.3890   27.1970   82.8250 O.co2     1 NAI401      0.0000 
      4 O5B         0.9380   27.0350   82.2450 O.3       1 NAI401      0.0000 
      5 C5B        -0.4190   27.2700   82.5310 C.3       1 NAI401      0.0000 
      6 C4B        -1.1330   26.7380   81.2370 C.3       1 NAI401      0.0000 
      7 O4B        -2.6640   26.9070   81.5210 O.3       1 NAI401      0.0000 
      8 C3B        -0.8180   27.4720   80.2500 C.3       1 NAI401      0.0000 
      9 O3B        -0.3720   26.6570   79.1030 O.3       1 NAI401      0.0000 
     10 C2B        -2.2320   28.2500   79.8140 C.3       1 NAI401      0.0000 
     11 O2B        -2.2690   28.3910   78.3710 O.3       1 NAI401      0.0000 
     12 C1B        -3.1670   27.4800   80.1890 C.3       1 NAI401      0.0000 
     13 N9A        -4.3560   28.2960   80.4980 N.pl3     1 NAI401      0.0000 
     14 C8A        -4.6500   29.4580   81.0560 C.2       1 NAI401      0.0000 
     15 N7A        -5.9780   29.5940   80.9990 N.2       1 NAI401      0.0000 
     16 C5A        -6.4860   28.5030   80.4130 C.ar      1 NAI401      0.0000 
     17 C6A        -7.7970   28.1670   80.1250 C.ar      1 NAI401      0.0000 
     18 N6A        -9.2130   28.6530   80.2370 N.pl3     1 NAI401      0.0000 
     19 N1A        -8.0690   27.0110   79.5370 N.ar      1 NAI401      0.0000 
     20 C2A        -7.0690   26.1390   79.1970 C.ar      1 NAI401      0.0000 
     21 N3A        -5.7630   26.4750   79.4820 N.ar      1 NAI401      0.0000 
     22 C4A        -5.4910   27.6700   80.0910 C.ar      1 NAI401      0.0000 
     23 O3          1.6170   27.5200   84.7630 O.3       1 NAI401      0.0000 
     24 PN          2.2260   26.2870   85.5980 P.3       1 NAI401      0.0000 
     25 O1N         2.1450   25.0570   84.7300 O.co2     1 NAI401      0.0000 
     26 O2N         3.6130   26.6500   85.9710 O.co2     1 NAI401      0.0000 
     27 O5D         1.2280   26.0690   86.9470 O.3       1 NAI401      0.0000 
     28 C5D        -0.1170   25.8050   86.5750 C.3       1 NAI401      0.0000 
     29 C4D        -1.0660   25.7260   87.8200 C.3       1 NAI401      0.0000 
     30 O4D        -0.6340   24.7480   88.5760 O.3       1 NAI401      0.0000 
     31 C3D        -0.9830   26.9830   88.6820 C.3       1 NAI401      0.0000 
     32 O3D        -2.2100   27.2660   89.2640 O.3       1 NAI401      0.0000 
     33 C2D         0.0300   26.5720   89.7660 C.3       1 NAI401      0.0000 
     34 O2D        -0.1310   27.4260   90.9740 O.3       1 NAI401      0.0000 
     35 C1D        -0.4070   25.3810   90.0060 C.3       1 NAI401      0.0000 
     36 N1N         0.5730   24.5360   90.6520 N.pl3     1 NAI401      0.0000 
     37 C2N         0.1080   23.5760   91.6110 C.2       1 NAI401      0.0000 
     38 C3N         1.1000   22.7820   92.4650 C.2       1 NAI401      0.0000 
     39 C7N         0.5230   21.8340   93.5310 C.2       1 NAI401      0.0000 
     40 O7N         1.2550   21.2600   94.2490 O.2       1 NAI401      0.0000 
     41 N7N        -0.9390   21.6510   93.6410 N.am      1 NAI401      0.0000 
     42 C4N         2.5980   22.8160   92.1730 C.3       1 NAI401      0.0000 
     43 C5N         3.0160   23.8090   91.0530 C.2       1 NAI401      0.0000 
     44 C6N         1.9840   24.6590   90.3250 C.2       1 NAI401      0.0000 
@<TRIPOS>BOND
     1    1    2 ar   
     2    1    3 ar   
     3    1    4 1    
     4    1   23 1    
     5    4    5 1    
     6    5    6 1    
     7    6    7 1    
     8    6    8 1    
     9    7   12 1    
    10    8    9 1    
    11    8   10 1    
    12   10   11 1    
    13   10   12 1    
    14   12   13 1    
    15   13   14 1    
    16   13   22 1    
    17   14   15 2    
    18   15   16 1    
    19   16   17 ar   
    20   16   22 ar   
    21   17   18 1    
    22   17   19 ar   
    23   19   20 ar   
    24   20   21 ar   
    25   21   22 ar   
    26   23   24 1    
    27   24   25 ar   
    28   24   26 ar   
    29   24   27 1    
    30   27   28 1    
    31   28   29 1    
    32   29   30 1    
    33   29   31 1    
    34   30   35 1    
    35   31   32 1    
    36   31   33 1    
    37   33   34 1    
    38   33   35 1    
    39   35   36 1    
    40   36   37 1    
    41   36   44 1    
    42   37   38 2    
    43   38   39 1    
    44   38   42 1    
    45   39   40 2    
    46   39   41 am   
    47   42   43 1    
    48   43   44 2    
@<TRIPOS>SUBSTRUCTURE
     1 NAI401      1 GROUP   
@<TRIPOS>SET
ATOM$ORANGE STATIC     ATOMS   COLORGROUP SYSTEM 
42 5 5 6 6 8 8 10 10 12 12 14 14 16 16 17 17 20 \
20 22 22 28 28 29 29 31 31 33 33 35 35 37 37 38 38 39 \
39 42 42 43 43 44 44 

