#    Name: 5zjd_4_NAI
#    Modification time : Fri May 22 19:25:59 2020

@<TRIPOS>MOLECULE
5zjd_4_NAI
   44    48     1     0     1
SMALL
NO_CHARGES


@<TRIPOS>ATOM
      1 PA          3.8520  -28.8640   84.1300 P.3       1 NAI401      0.0000 
      2 O1A         3.6230  -30.3500   84.3210 O.co2     1 NAI401      0.0000 
      3 O2A         5.0090  -28.2800   84.9510 O.co2     1 NAI401      0.0000 
      4 O5B         2.4650  -28.0260   84.4660 O.3       1 NAI401      0.0000 
      5 C5B         1.3650  -28.2960   83.6070 C.3       1 NAI401      0.0000 
      6 C4B         0.0860  -27.9490   84.4640 C.3       1 NAI401      0.0000 
      7 O4B        -1.2070  -28.1510   83.5980 O.3       1 NAI401      0.0000 
      8 C3B         0.0190  -28.7540   85.4410 C.3       1 NAI401      0.0000 
      9 O3B        -0.0750  -27.9730   86.6880 O.3       1 NAI401      0.0000 
     10 C2B        -1.3930  -29.6200   85.2210 C.3       1 NAI401      0.0000 
     11 O2B        -1.9230  -30.0020   86.5060 O.3       1 NAI401      0.0000 
     12 C1B        -2.1500  -28.7680   84.6620 C.3       1 NAI401      0.0000 
     13 N9A        -3.2710  -29.4480   83.9790 N.pl3     1 NAI401      0.0000 
     14 C8A        -3.4930  -30.5920   83.3600 C.2       1 NAI401      0.0000 
     15 N7A        -4.7710  -30.5760   82.9550 N.2       1 NAI401      0.0000 
     16 C5A        -5.3330  -29.4180   83.3190 C.ar      1 NAI401      0.0000 
     17 C6A        -6.6160  -28.9370   83.1370 C.ar      1 NAI401      0.0000 
     18 N6A        -7.9530  -29.2730   82.5420 N.pl3     1 NAI401      0.0000 
     19 N1A        -6.9840  -27.7310   83.5840 N.ar      1 NAI401      0.0000 
     20 C2A        -6.0670  -26.9630   84.2390 C.ar      1 NAI401      0.0000 
     21 N3A        -4.7820  -27.4480   84.4230 N.ar      1 NAI401      0.0000 
     22 C4A        -4.4210  -28.6890   83.9680 C.ar      1 NAI401      0.0000 
     23 O3          4.1550  -28.5950   82.5390 O.3       1 NAI401      0.0000 
     24 PN          4.8380  -27.2330   82.0020 P.3       1 NAI401      0.0000 
     25 O1N         4.2510  -26.0460   82.7420 O.co2     1 NAI401      0.0000 
     26 O2N         6.2930  -27.3270   82.1560 O.co2     1 NAI401      0.0000 
     27 O5D         4.4330  -27.1020   80.3730 O.3       1 NAI401      0.0000 
     28 C5D         3.0310  -27.0760   80.1480 C.3       1 NAI401      0.0000 
     29 C4D         2.7540  -26.8500   78.6270 C.3       1 NAI401      0.0000 
     30 O4D         3.4820  -25.8260   78.2020 O.3       1 NAI401      0.0000 
     31 C3D         3.2040  -28.0680   77.8360 C.3       1 NAI401      0.0000 
     32 O3D         2.3380  -28.3000   76.7970 O.3       1 NAI401      0.0000 
     33 C2D         4.5400  -27.5660   77.2690 C.3       1 NAI401      0.0000 
     34 O2D         5.0170  -28.4330   76.1510 O.3       1 NAI401      0.0000 
     35 C1D         4.1940  -26.3730   76.8990 C.3       1 NAI401      0.0000 
     36 N1N         5.3320  -25.5270   76.6110 N.pl3     1 NAI401      0.0000 
     37 C2N         5.2070  -24.6210   75.5040 C.2       1 NAI401      0.0000 
     38 C3N         6.1650  -23.4330   75.3460 C.2       1 NAI401      0.0000 
     39 C7N         6.1480  -22.7240   73.9640 C.2       1 NAI401      0.0000 
     40 O7N         7.1220  -22.1820   73.5330 O.2       1 NAI401      0.0000 
     41 N7N         4.8680  -22.7470   73.1990 N.am      1 NAI401      0.0000 
     42 C4N         7.3380  -23.2890   76.3210 C.3       1 NAI401      0.0000 
     43 C5N         7.6140  -24.5220   77.2330 C.2       1 NAI401      0.0000 
     44 C6N         6.5500  -25.6030   77.4070 C.2       1 NAI401      0.0000 
@<TRIPOS>BOND
     1    1    2 ar   
     2    1    3 ar   
     3    1    4 1    
     4    1   23 1    
     5    4    5 1    
     6    5    6 1    
     7    6    7 1    
     8    6    8 1    
     9    7   12 1    
    10    8    9 1    
    11    8   10 1    
    12   10   11 1    
    13   10   12 1    
    14   12   13 1    
    15   13   14 1    
    16   13   22 1    
    17   14   15 2    
    18   15   16 1    
    19   16   17 ar   
    20   16   22 ar   
    21   17   18 1    
    22   17   19 ar   
    23   19   20 ar   
    24   20   21 ar   
    25   21   22 ar   
    26   23   24 1    
    27   24   25 ar   
    28   24   26 ar   
    29   24   27 1    
    30   27   28 1    
    31   28   29 1    
    32   29   30 1    
    33   29   31 1    
    34   30   35 1    
    35   31   32 1    
    36   31   33 1    
    37   33   34 1    
    38   33   35 1    
    39   35   36 1    
    40   36   37 1    
    41   36   44 1    
    42   37   38 2    
    43   38   39 1    
    44   38   42 1    
    45   39   40 2    
    46   39   41 am   
    47   42   43 1    
    48   43   44 2    
@<TRIPOS>SUBSTRUCTURE
     1 NAI401      1 GROUP   
@<TRIPOS>SET
ATOM$ORANGE STATIC     ATOMS   COLORGROUP SYSTEM 
42 5 5 6 6 8 8 10 10 12 12 14 14 16 16 17 17 20 \
20 22 22 28 28 29 29 31 31 33 33 35 35 37 37 38 38 39 \
39 42 42 43 43 44 44 

