#    Name: 5zjd_7_NAI_CAVITY_N1_4
#    Modification time : Fri May 22 19:26:18 2020

@<TRIPOS>MOLECULE
5zjd_7_NAI_CAVITY_N1_4
   77     0     5     0     0
SMALL
NO_CHARGES


@<TRIPOS>ATOM
      1 OG          4.2500  218.8000    4.4800 O.3       1 SER1        0.0000 
      2 OG          5.9200  218.9500    3.1700 O.3       1 SER1        0.0000 
      3 OG          4.4600  220.4900    3.2100 O.3       1 SER1        0.0000 
      4 OG          5.7800  220.2300    4.8600 O.3       1 SER1        0.0000 
      5 OG          4.5000  221.9800    3.4300 O.3       1 SER1        0.0000 
      6 OG          5.8100  221.7100    5.0700 O.3       1 SER1        0.0000 
      7 OG          4.3600  223.2600    5.1100 O.3       1 SER1        0.0000 
      8 OG          5.8500  223.1900    5.2800 O.3       1 SER1        0.0000 
      9 N           7.4100  218.8900    3.3400 N.am      2 ALA2        0.0000 
     10 O           5.9500  220.4300    3.3800 O.2       2 ALA2        0.0000 
     11 O           7.4400  220.3700    3.5500 O.2       2 ALA2        0.0000 
     12 N           8.9300  220.3100    3.7300 N.am      2 ALA2        0.0000 
     13 O           5.9900  221.9200    3.6000 O.2       2 ALA2        0.0000 
     14 O           7.4800  221.8600    3.7700 O.2       2 ALA2        0.0000 
     15 O           8.9700  221.7900    3.9400 O.2       2 ALA2        0.0000 
     16 O          10.4600  221.7300    4.1100 O.2       2 ALA2        0.0000 
     17 N          11.7700  221.4600    5.7500 N.am      2 ALA2        0.0000 
     18 O           4.5400  223.4600    3.6400 O.2       2 ALA2        0.0000 
     19 O           6.0300  223.4000    3.8100 O.2       2 ALA2        0.0000 
     20 N           5.6700  222.9900    6.7600 N.am      2 ALA2        0.0000 
     21 O           7.5200  223.3400    3.9800 O.2       2 ALA2        0.0000 
     22 O           9.1800  223.4900    2.6800 O.2       2 ALA2        0.0000 
     23 O          10.6700  223.4200    2.8500 O.2       2 ALA2        0.0000 
     24 N          10.4900  223.2200    4.3200 N.am      2 ALA2        0.0000 
     25 N          11.9800  223.1600    4.4900 N.am      2 ALA2        0.0000 
     26 N          11.8100  222.9500    5.9700 N.am      2 ALA2        0.0000 
     27 N          11.6300  222.7400    7.4400 N.am      2 ALA2        0.0000 
     28 O           6.0600  224.8900    4.0200 O.2       2 ALA2        0.0000 
     29 N          11.8400  224.4300    6.1800 N.am      2 ALA2        0.0000 
     30 N          11.6600  224.2300    7.6500 N.am      2 ALA2        0.0000 
     31 N          11.4900  224.0200    9.1300 N.am      2 ALA2        0.0000 
     32 N          11.7000  225.7100    7.8700 N.am      2 ALA2        0.0000 
     33 N          11.5200  225.5000    9.3400 N.am      2 ALA2        0.0000 
     34 N          13.0100  225.4400    9.5100 N.am      2 ALA2        0.0000 
     35 N          11.7400  227.2000    8.0800 N.am      2 ALA2        0.0000 
     36 N          11.5600  226.9900    9.5500 N.am      2 ALA2        0.0000 
     37 N          13.0500  226.9300    9.7300 N.am      2 ALA2        0.0000 
     38 O          11.9500  228.8900    6.8200 O.2       2 ALA2        0.0000 
     39 N          11.7700  228.6800    8.2900 N.am      2 ALA2        0.0000 
     40 N          13.2600  228.6200    8.4600 N.am      2 ALA2        0.0000 
     41 OD1         8.5100  224.1400    8.7900 O.co2     3 ASP3        0.0000 
     42 OD1        10.0000  224.0800    8.9600 O.co2     3 ASP3        0.0000 
     43 OD1        10.0300  225.5700    9.1700 O.co2     3 ASP3        0.0000 
     44 OD1         9.8600  225.3600   10.6500 O.co2     3 ASP3        0.0000 
     45 OD1        11.3800  226.7800   11.0300 O.co2     3 ASP3        0.0000 
     46 OD1        12.8700  226.7200   11.2000 O.co2     3 ASP3        0.0000 
     47 OD1        10.1100  228.5300    9.6000 O.co2     3 ASP3        0.0000 
     48 CA          5.8800  217.4600    2.9600 C.3       4 GLY6        0.0000 
     49 CA          4.4300  219.0100    3.0000 C.3       4 GLY6        0.0000 
     50 CA          5.7400  218.7400    4.6500 C.3       4 GLY6        0.0000 
     51 CA          7.2300  218.6800    4.8200 C.3       4 GLY6        0.0000 
     52 CA          7.2600  220.1600    5.0300 C.3       4 GLY6        0.0000 
     53 CA          8.7500  220.1000    5.2000 C.3       4 GLY6        0.0000 
     54 CA          7.3000  221.6500    5.2400 C.3       4 GLY6        0.0000 
     55 CA          8.7900  221.5900    5.4100 C.3       4 GLY6        0.0000 
     56 CA         10.2800  221.5300    5.5800 C.3       4 GLY6        0.0000 
     57 CA          7.3400  223.1300    5.4600 C.3       4 GLY6        0.0000 
     58 CA          7.1600  222.9300    6.9300 C.3       4 GLY6        0.0000 
     59 CA          9.0000  223.2800    4.1500 C.3       4 GLY6        0.0000 
     60 CA          8.8300  223.0700    5.6300 C.3       4 GLY6        0.0000 
     61 CA          8.6500  222.8600    7.1000 C.3       4 GLY6        0.0000 
     62 CA         10.1400  222.8000    7.2700 C.3       4 GLY6        0.0000 
     63 CA          9.9600  222.6000    8.7500 C.3       4 GLY6        0.0000 
     64 CA          5.8900  224.6800    5.5000 C.3       4 GLY6        0.0000 
     65 CA          5.7100  224.4700    6.9700 C.3       4 GLY6        0.0000 
     66 CA          7.5500  224.8200    4.1900 C.3       4 GLY6        0.0000 
     67 CA          7.3700  224.6200    5.6700 C.3       4 GLY6        0.0000 
     68 CA          7.2000  224.4100    7.1400 C.3       4 GLY6        0.0000 
     69 CA          8.6900  224.3500    7.3100 C.3       4 GLY6        0.0000 
     70 CA         10.5300  224.7000    4.5300 C.3       4 GLY6        0.0000 
     71 CA         10.3500  224.4900    6.0100 C.3       4 GLY6        0.0000 
     72 CA         10.1800  224.2900    7.4800 C.3       4 GLY6        0.0000 
     73 CA         10.2100  225.7700    7.7000 C.3       4 GLY6        0.0000 
     74 CA         11.3500  225.3000   10.8200 C.3       4 GLY6        0.0000 
     75 CA         10.0700  227.0500    9.3800 C.3       4 GLY6        0.0000 
     76 CA         10.2900  228.7400    8.1200 C.3       4 GLY6        0.0000 
     77 DU         10.3200  223.0100    5.8000 H         5 CUB7        0.0000 
@<TRIPOS>BOND
@<TRIPOS>SUBSTRUCTURE
     1 SER1        1 GROUP   
     2 ALA2        9 GROUP   
     3 ASP3       41 GROUP   
     4 GLY6       48 GROUP   
     5 CUB7       77 GROUP   
@<TRIPOS>SET

