#    Name: 5zjd_7_NAI
#    Modification time : Fri May 22 19:26:15 2020

@<TRIPOS>MOLECULE
5zjd_7_NAI
   44    48     1     0     1
SMALL
NO_CHARGES


@<TRIPOS>ATOM
      1 PA         10.9950  226.0030   10.3740 P.3       1 NAI401      0.0000 
      2 O1A        11.4920  227.4150   10.1330 O.co2     1 NAI401      0.0000 
      3 O2A         9.9170  225.9770   11.4480 O.co2     1 NAI401      0.0000 
      4 O5B        12.2180  225.0060   10.8720 O.3       1 NAI401      0.0000 
      5 C5B        13.3820  224.8860   10.0650 C.3       1 NAI401      0.0000 
      6 C4B        14.5850  224.6580   11.0720 C.3       1 NAI401      0.0000 
      7 O4B        15.8700  224.3530   10.2390 O.3       1 NAI401      0.0000 
      8 C3B        14.7930  225.7350   11.7160 C.3       1 NAI401      0.0000 
      9 O3B        14.6670  225.5240   13.1690 O.3       1 NAI401      0.0000 
     10 C2B        16.3460  226.2620   11.3530 C.3       1 NAI401      0.0000 
     11 O2B        16.9820  226.6900   12.5770 O.3       1 NAI401      0.0000 
     12 C1B        16.9450  225.2230   10.9360 C.3       1 NAI401      0.0000 
     13 N9A        17.9520  225.5940    9.9230 N.pl3     1 NAI401      0.0000 
     14 C8A        18.1590  226.4670    8.9460 C.2       1 NAI401      0.0000 
     15 N7A        19.3680  226.1820    8.4230 N.2       1 NAI401      0.0000 
     16 C5A        19.8900  225.1270    9.0830 C.ar      1 NAI401      0.0000 
     17 C6A        21.0960  224.4460    8.9460 C.ar      1 NAI401      0.0000 
     18 N6A        22.3900  224.3500    8.1830 N.pl3     1 NAI401      0.0000 
     19 N1A        21.3780  223.4300    9.7420 N.ar      1 NAI401      0.0000 
     20 C2A        20.4860  223.0360   10.7010 C.ar      1 NAI401      0.0000 
     21 N3A        19.2900  223.6970   10.8440 N.ar      1 NAI401      0.0000 
     22 C4A        19.0120  224.7450   10.0250 C.ar      1 NAI401      0.0000 
     23 O3         10.4470  225.3790    8.9530 O.3       1 NAI401      0.0000 
     24 PN          9.5490  224.0230    8.8710 P.3       1 NAI401      0.0000 
     25 O1N         9.9340  223.0660    9.9610 O.co2     1 NAI401      0.0000 
     26 O2N         8.1260  224.3510    8.9480 O.co2     1 NAI401      0.0000 
     27 O5D         9.9140  223.3590    7.3700 O.3       1 NAI401      0.0000 
     28 C5D        11.2650  222.9520    7.2600 C.3       1 NAI401      0.0000 
     29 C4D        11.5050  222.4020    5.8180 C.3       1 NAI401      0.0000 
     30 O4D        10.6200  221.4470    5.5740 O.3       1 NAI401      0.0000 
     31 C3D        11.2220  223.5190    4.8310 C.3       1 NAI401      0.0000 
     32 O3D        12.1160  223.4680    3.7880 O.3       1 NAI401      0.0000 
     33 C2D         9.8370  223.1550    4.2860 C.3       1 NAI401      0.0000 
     34 O2D         9.7220  223.7410    2.9230 O.3       1 NAI401      0.0000 
     35 C1D         9.9340  221.8630    4.2110 C.3       1 NAI401      0.0000 
     36 N1N         8.6450  221.1990    4.1410 N.pl3     1 NAI401      0.0000 
     37 C2N         8.5330  220.0390    3.2810 C.2       1 NAI401      0.0000 
     38 C3N         7.4490  219.0020    3.6160 C.2       1 NAI401      0.0000 
     39 C7N         7.1230  217.9360    2.5390 C.2       1 NAI401      0.0000 
     40 O7N         6.0200  217.5290    2.4350 O.2       1 NAI401      0.0000 
     41 N7N         8.2030  217.4420    1.6500 N.am      1 NAI401      0.0000 
     42 C4N         6.5090  219.2370    4.8160 C.3       1 NAI401      0.0000 
     43 C5N         6.3500  220.7370    5.2060 C.2       1 NAI401      0.0000 
     44 C6N         7.5110  221.6840    4.9130 C.2       1 NAI401      0.0000 
@<TRIPOS>BOND
     1    1    2 ar   
     2    1    3 ar   
     3    1    4 1    
     4    1   23 1    
     5    4    5 1    
     6    5    6 1    
     7    6    7 1    
     8    6    8 1    
     9    7   12 1    
    10    8    9 1    
    11    8   10 1    
    12   10   11 1    
    13   10   12 1    
    14   12   13 1    
    15   13   14 1    
    16   13   22 1    
    17   14   15 2    
    18   15   16 1    
    19   16   17 ar   
    20   16   22 ar   
    21   17   18 1    
    22   17   19 ar   
    23   19   20 ar   
    24   20   21 ar   
    25   21   22 ar   
    26   23   24 1    
    27   24   25 ar   
    28   24   26 ar   
    29   24   27 1    
    30   27   28 1    
    31   28   29 1    
    32   29   30 1    
    33   29   31 1    
    34   30   35 1    
    35   31   32 1    
    36   31   33 1    
    37   33   34 1    
    38   33   35 1    
    39   35   36 1    
    40   36   37 1    
    41   36   44 1    
    42   37   38 2    
    43   38   39 1    
    44   38   42 1    
    45   39   40 2    
    46   39   41 am   
    47   42   43 1    
    48   43   44 2    
@<TRIPOS>SUBSTRUCTURE
     1 NAI401      1 GROUP   
@<TRIPOS>SET
ATOM$ORANGE STATIC     ATOMS   COLORGROUP SYSTEM 
42 5 5 6 6 8 8 10 10 12 12 14 14 16 16 17 17 20 \
20 22 22 28 28 29 29 31 31 33 33 35 35 37 37 38 38 39 \
39 42 42 43 43 44 44 

