#    Name: 5zjd_2_NAI
#    Modification time : Fri May 22 19:25:43 2020

@<TRIPOS>MOLECULE
5zjd_2_NAI
   44    48     1     0     1
SMALL
NO_CHARGES


@<TRIPOS>ATOM
      1 PA         18.3600   26.6870   77.3170 P.3       1 NAI401      0.0000 
      2 O1A        18.5780   28.1460   77.0280 O.co2     1 NAI401      0.0000 
      3 O2A        16.9350   26.4450   77.8420 O.co2     1 NAI401      0.0000 
      4 O5B        19.4480   26.1770   78.4500 O.3       1 NAI401      0.0000 
      5 C5B        20.8270   26.2010   78.1140 C.3       1 NAI401      0.0000 
      6 C4B        21.5640   26.2330   79.5090 C.3       1 NAI401      0.0000 
      7 O4B        23.1080   26.2270   79.2510 O.3       1 NAI401      0.0000 
      8 C3B        21.2690   27.3140   80.0860 C.3       1 NAI401      0.0000 
      9 O3B        20.6330   27.0450   81.3860 O.3       1 NAI401      0.0000 
     10 C2B        22.7130   28.1180   80.3400 C.3       1 NAI401      0.0000 
     11 O2B        22.6730   28.8200   81.6150 O.3       1 NAI401      0.0000 
     12 C1B        23.6060   27.2000   80.3340 C.3       1 NAI401      0.0000 
     13 N9A        24.8710   27.7710   79.8250 N.pl3     1 NAI401      0.0000 
     14 C8A        25.2710   28.6780   78.9460 C.2       1 NAI401      0.0000 
     15 N7A        26.6030   28.7070   78.9870 N.2       1 NAI401      0.0000 
     16 C5A        27.0040   27.8190   79.8930 C.ar      1 NAI401      0.0000 
     17 C6A        28.2750   27.4940   80.2950 C.ar      1 NAI401      0.0000 
     18 N6A        29.7180   27.8120   80.0550 N.pl3     1 NAI401      0.0000 
     19 N1A        28.4590   26.5690   81.2210 N.ar      1 NAI401      0.0000 
     20 C2A        27.3890   25.9310   81.7810 C.ar      1 NAI401      0.0000 
     21 N3A        26.1090   26.2590   81.3930 N.ar      1 NAI401      0.0000 
     22 C4A        25.9410   27.2180   80.4410 C.ar      1 NAI401      0.0000 
     23 O3         18.6940   25.9120   75.9040 O.3       1 NAI401      0.0000 
     24 PN         18.2380   24.3900   75.5250 P.3       1 NAI401      0.0000 
     25 O1N        18.2550   23.5620   76.7900 O.co2     1 NAI401      0.0000 
     26 O2N        16.9240   24.4170   74.8740 O.co2     1 NAI401      0.0000 
     27 O5D        19.3610   23.7500   74.4370 O.3       1 NAI401      0.0000 
     28 C5D        20.7280   23.7740   74.8310 C.3       1 NAI401      0.0000 
     29 C4D        21.5910   23.1780   73.6670 C.3       1 NAI401      0.0000 
     30 O4D        21.0820   21.9860   73.3550 O.3       1 NAI401      0.0000 
     31 C3D        21.4630   24.0500   72.4210 C.3       1 NAI401      0.0000 
     32 O3D        22.6150   24.0690   71.6640 O.3       1 NAI401      0.0000 
     33 C2D        20.4160   23.2980   71.6030 C.3       1 NAI401      0.0000 
     34 O2D        20.5170   23.6800   70.1630 O.3       1 NAI401      0.0000 
     35 C1D        20.8350   22.0890   71.7930 C.3       1 NAI401      0.0000 
     36 N1N        19.8110   21.1360   71.4300 N.pl3     1 NAI401      0.0000 
     37 C2N        20.2160   19.9480   70.7370 C.2       1 NAI401      0.0000 
     38 C3N        19.2180   18.7870   70.6110 C.2       1 NAI401      0.0000 
     39 C7N        19.6710   17.5500   69.7870 C.2       1 NAI401      0.0000 
     40 O7N        18.8950   16.8610   69.2280 O.2       1 NAI401      0.0000 
     41 N7N        21.1180   17.2750   69.6770 N.am      1 NAI401      0.0000 
     42 C4N        17.8340   18.9150   71.2650 C.3       1 NAI401      0.0000 
     43 C5N        17.3480   20.3890   71.3710 C.2       1 NAI401      0.0000 
     44 C6N        18.4090   21.4220   71.7270 C.2       1 NAI401      0.0000 
@<TRIPOS>BOND
     1    1    2 ar   
     2    1    3 ar   
     3    1    4 1    
     4    1   23 1    
     5    4    5 1    
     6    5    6 1    
     7    6    7 1    
     8    6    8 1    
     9    7   12 1    
    10    8    9 1    
    11    8   10 1    
    12   10   11 1    
    13   10   12 1    
    14   12   13 1    
    15   13   14 1    
    16   13   22 1    
    17   14   15 2    
    18   15   16 1    
    19   16   17 ar   
    20   16   22 ar   
    21   17   18 1    
    22   17   19 ar   
    23   19   20 ar   
    24   20   21 ar   
    25   21   22 ar   
    26   23   24 1    
    27   24   25 ar   
    28   24   26 ar   
    29   24   27 1    
    30   27   28 1    
    31   28   29 1    
    32   29   30 1    
    33   29   31 1    
    34   30   35 1    
    35   31   32 1    
    36   31   33 1    
    37   33   34 1    
    38   33   35 1    
    39   35   36 1    
    40   36   37 1    
    41   36   44 1    
    42   37   38 2    
    43   38   39 1    
    44   38   42 1    
    45   39   40 2    
    46   39   41 am   
    47   42   43 1    
    48   43   44 2    
@<TRIPOS>SUBSTRUCTURE
     1 NAI401      1 GROUP   
@<TRIPOS>SET
ATOM$ORANGE STATIC     ATOMS   COLORGROUP SYSTEM 
42 5 5 6 6 8 8 10 10 12 12 14 14 16 16 17 17 20 \
20 22 22 28 28 29 29 31 31 33 33 35 35 37 37 38 38 39 \
39 42 42 43 43 44 44 

