#    Name: 5zjd_4_NAI_CAVITY_N1_12
#    Modification time : Fri May 22 19:26:01 2020

@<TRIPOS>MOLECULE
5zjd_4_NAI_CAVITY_N1_12
   77     0     7     0     0
SMALL
NO_CHARGES


@<TRIPOS>ATOM
      1 OG          8.6700  -26.4800   75.8300 O.3       1 SER1        0.0000 
      2 OG          9.0600  -24.5800   73.0900 O.3       1 SER1        0.0000 
      3 OG          8.8800  -24.7900   74.5700 O.3       1 SER1        0.0000 
      4 OG          8.7000  -25.0000   76.0400 O.3       1 SER1        0.0000 
      5 OG         10.3700  -24.8500   74.7400 O.3       1 SER1        0.0000 
      6 OG          7.4300  -23.2400   74.6100 O.3       1 SER1        0.0000 
      7 OG          8.7400  -23.5100   76.2600 O.3       1 SER1        0.0000 
      8 O          -1.4100  -30.3200   83.2300 O.2       2 ALA2        0.0000 
      9 N           0.0800  -30.3900   83.4000 N.am      2 ALA2        0.0000 
     10 O          -1.3700  -28.8400   83.4400 O.2       2 ALA2        0.0000 
     11 N           0.1200  -28.9000   83.6200 N.am      2 ALA2        0.0000 
     12 N           2.3200  -28.1300   77.8900 N.am      2 ALA2        0.0000 
     13 N           1.7900  -28.7600   82.3100 N.am      2 ALA2        0.0000 
     14 N           1.6100  -28.9600   83.7900 N.am      2 ALA2        0.0000 
     15 O           3.9800  -27.9900   76.5800 O.2       2 ALA2        0.0000 
     16 N           3.4500  -28.6100   81.0100 N.am      2 ALA2        0.0000 
     17 N           3.2700  -28.8200   82.4800 N.am      2 ALA2        0.0000 
     18 O           5.4700  -28.0500   76.7500 O.2       2 ALA2        0.0000 
     19 N           2.3500  -26.6500   78.1000 N.am      2 ALA2        0.0000 
     20 N           1.8200  -27.2700   82.5200 N.am      2 ALA2        0.0000 
     21 O           4.0200  -26.5000   76.7900 O.2       2 ALA2        0.0000 
     22 N           3.6700  -26.9200   79.7400 N.am      2 ALA2        0.0000 
     23 N           3.4900  -27.1300   81.2200 N.am      2 ALA2        0.0000 
     24 O           5.5100  -26.5700   76.9600 O.2       2 ALA2        0.0000 
     25 O           4.8000  -27.3900   82.8600 O.2       2 ALA2        0.0000 
     26 O           4.6200  -27.6000   84.3400 O.2       2 ALA2        0.0000 
     27 O           7.1800  -26.4200   75.6600 O.2       2 ALA2        0.0000 
     28 O           7.0000  -26.6300   77.1300 O.2       2 ALA2        0.0000 
     29 N           2.5700  -24.9600   76.8400 N.am      2 ALA2        0.0000 
     30 N           2.3900  -25.1700   78.3100 N.am      2 ALA2        0.0000 
     31 N           4.0600  -25.0200   77.0100 N.am      2 ALA2        0.0000 
     32 O           5.9000  -24.6700   74.2300 O.2       2 ALA2        0.0000 
     33 O           5.7200  -24.8700   75.7000 O.2       2 ALA2        0.0000 
     34 O           7.3900  -24.7300   74.4000 O.2       2 ALA2        0.0000 
     35 O           7.2100  -24.9400   75.8700 O.2       2 ALA2        0.0000 
     36 N           5.9400  -23.1800   74.4400 N.am      2 ALA2        0.0000 
     37 OD1        -0.0600  -29.1100   85.0900 O.co2     3 ASP3        0.0000 
     38 OD1        -0.2400  -29.3200   86.5700 O.co2     3 ASP3        0.0000 
     39 OD1         1.4300  -29.1700   85.2600 O.co2     3 ASP3        0.0000 
     40 OD1         2.9200  -29.2300   85.4300 O.co2     3 ASP3        0.0000 
     41 OD1         4.5900  -29.0900   84.1300 O.co2     3 ASP3        0.0000 
     42 OD1         8.8400  -26.2700   74.3500 O.co2     3 ASP3        0.0000 
     43 OD1        10.5500  -24.6400   73.2600 O.co2     3 ASP3        0.0000 
     44 NZ         -1.5500  -29.0500   84.9200 N.4       4 LYS4        0.0000 
     45 NZ         -1.7200  -29.2500   86.3900 N.4       4 LYS4        0.0000 
     46 NZ         -0.0200  -27.6200   85.3000 N.4       4 LYS4        0.0000 
     47 CZ          9.0900  -23.1000   73.3100 C.ar      5 PHE5        0.0000 
     48 CA         -1.7600  -30.7400   86.1800 C.3       6 GLY6        0.0000 
     49 CA         -0.2700  -30.8000   86.3500 C.3       6 GLY6        0.0000 
     50 CA          3.8100  -28.2000   78.0600 C.3       6 GLY6        0.0000 
     51 CA          3.6300  -28.4000   79.5300 C.3       6 GLY6        0.0000 
     52 CA          5.3000  -28.2600   78.2300 C.3       6 GLY6        0.0000 
     53 CA          4.9400  -28.6700   81.1800 C.3       6 GLY6        0.0000 
     54 CA          4.7600  -28.8800   82.6500 C.3       6 GLY6        0.0000 
     55 CA          0.1600  -27.4200   83.8300 C.3       6 GLY6        0.0000 
     56 CA          2.5300  -26.4400   76.6200 C.3       6 GLY6        0.0000 
     57 CA          1.4700  -27.6900   85.4700 C.3       6 GLY6        0.0000 
     58 CA          3.3100  -27.3300   82.6900 C.3       6 GLY6        0.0000 
     59 CA          3.1300  -27.5400   84.1700 C.3       6 GLY6        0.0000 
     60 CA          5.3300  -26.7700   78.4400 C.3       6 GLY6        0.0000 
     61 CA          5.1600  -26.9800   79.9100 C.3       6 GLY6        0.0000 
     62 CA          4.9800  -27.1900   81.3900 C.3       6 GLY6        0.0000 
     63 CA         10.3300  -26.3400   74.5300 C.3       6 GLY6        0.0000 
     64 CA          3.8800  -25.2300   78.4800 C.3       6 GLY6        0.0000 
     65 CA          3.7000  -25.4300   79.9600 C.3       6 GLY6        0.0000 
     66 CA          3.5300  -25.6400   81.4300 C.3       6 GLY6        0.0000 
     67 CA          5.5500  -25.0800   77.1800 C.3       6 GLY6        0.0000 
     68 CA          7.0400  -25.1400   77.3500 C.3       6 GLY6        0.0000 
     69 CA          5.7600  -23.3900   75.9100 C.3       6 GLY6        0.0000 
     70 CA          5.5800  -23.6000   77.3900 C.3       6 GLY6        0.0000 
     71 CA          7.2500  -23.4500   76.0800 C.3       6 GLY6        0.0000 
     72 CA          7.0700  -23.6600   77.5600 C.3       6 GLY6        0.0000 
     73 CA          8.9200  -23.3100   74.7800 C.3       6 GLY6        0.0000 
     74 DU         -1.5800  -30.5300   84.7100 H         7 CUB7        0.0000 
     75 DU         -0.0900  -30.5900   84.8800 H         7 CUB7        0.0000 
     76 DU          3.1000  -29.0200   83.9600 H         7 CUB7        0.0000 
     77 DU          3.8400  -26.7100   78.2700 H         7 CUB7        0.0000 
@<TRIPOS>BOND
@<TRIPOS>SUBSTRUCTURE
     1 SER1        1 GROUP   
     2 ALA2        8 GROUP   
     3 ASP3       37 GROUP   
     4 LYS4       44 GROUP   
     5 PHE5       47 GROUP   
     6 GLY6       48 GROUP   
     7 CUB7       74 GROUP   
@<TRIPOS>SET

