#    Name: 5zjd_5_NAI
#    Modification time : Fri May 22 19:26:07 2020

@<TRIPOS>MOLECULE
5zjd_5_NAI
   44    48     1     0     1
SMALL
NO_CHARGES


@<TRIPOS>ATOM
      1 PA        -10.4160  172.8440   19.4840 P.3       1 NAI401      0.0000 
      2 O1A       -10.7600  171.3560   19.5930 O.co2     1 NAI401      0.0000 
      3 O2A        -8.9390  173.1530   19.7720 O.co2     1 NAI401      0.0000 
      4 O5B       -11.2990  173.6310   20.6420 O.3       1 NAI401      0.0000 
      5 C5B       -12.6660  173.8800   20.3730 C.3       1 NAI401      0.0000 
      6 C4B       -13.2440  174.3350   21.7700 C.3       1 NAI401      0.0000 
      7 O4B       -14.7920  174.4700   21.5880 O.3       1 NAI401      0.0000 
      8 C3B       -13.0390  173.4190   22.6280 C.3       1 NAI401      0.0000 
      9 O3B       -12.3420  173.9400   23.8220 O.3       1 NAI401      0.0000 
     10 C2B       -14.5490  172.8070   23.0370 C.3       1 NAI401      0.0000 
     11 O2B       -14.5740  172.4520   24.4390 O.3       1 NAI401      0.0000 
     12 C1B       -15.3320  173.7840   22.8540 C.3       1 NAI401      0.0000 
     13 N9A       -16.6940  173.2980   22.5660 N.pl3     1 NAI401      0.0000 
     14 C8A       -17.3520  172.3350   21.9290 C.2       1 NAI401      0.0000 
     15 N7A       -18.6580  172.5500   22.1580 N.2       1 NAI401      0.0000 
     16 C5A       -18.7890  173.6350   22.9290 C.ar      1 NAI401      0.0000 
     17 C6A       -19.9090  174.2820   23.4360 C.ar      1 NAI401      0.0000 
     18 N6A       -21.4150  174.2620   23.5080 N.pl3     1 NAI401      0.0000 
     19 N1A       -19.7610  175.3740   24.1840 N.ar      1 NAI401      0.0000 
     20 C2A       -18.5130  175.8750   24.4590 C.ar      1 NAI401      0.0000 
     21 N3A       -17.4020  175.2330   23.9580 N.ar      1 NAI401      0.0000 
     22 C4A       -17.5660  174.1210   23.1920 C.ar      1 NAI401      0.0000 
     23 O3        -10.8360  173.3680   17.9880 O.3       1 NAI401      0.0000 
     24 PN        -10.1450  174.6640   17.3380 P.3       1 NAI401      0.0000 
     25 O1N        -9.9970  175.6980   18.4360 O.co2     1 NAI401      0.0000 
     26 O2N        -8.9010  174.2240   16.7050 O.co2     1 NAI401      0.0000 
     27 O5D       -11.1610  175.2920   16.1510 O.3       1 NAI401      0.0000 
     28 C5D       -12.5240  175.3140   16.5330 C.3       1 NAI401      0.0000 
     29 C4D       -13.4100  175.6390   15.2880 C.3       1 NAI401      0.0000 
     30 O4D       -12.8040  176.5960   14.6370 O.3       1 NAI401      0.0000 
     31 C3D       -13.4250  174.4220   14.3690 C.3       1 NAI401      0.0000 
     32 O3D       -14.6880  174.1970   13.8830 O.3       1 NAI401      0.0000 
     33 C2D       -12.5010  174.8260   13.2110 C.3       1 NAI401      0.0000 
     34 O2D       -12.8900  174.1050   11.9550 O.3       1 NAI401      0.0000 
     35 C1D       -12.7580  176.0970   13.1350 C.3       1 NAI401      0.0000 
     36 N1N       -11.6880  176.8250   12.4830 N.pl3     1 NAI401      0.0000 
     37 C2N       -12.0460  177.8850   11.5790 C.2       1 NAI401      0.0000 
     38 C3N       -10.9510  178.7430   10.9110 C.2       1 NAI401      0.0000 
     39 C7N       -11.4320  179.8340    9.9270 C.2       1 NAI401      0.0000 
     40 O7N       -10.6980  180.3360    9.1580 O.2       1 NAI401      0.0000 
     41 N7N       -12.8570  180.2240    9.9530 N.am      1 NAI401      0.0000 
     42 C4N        -9.5040  178.2410   10.8900 C.3       1 NAI401      0.0000 
     43 C5N        -9.1750  177.2430   12.0440 C.2       1 NAI401      0.0000 
     44 C6N       -10.3020  176.4690   12.7450 C.2       1 NAI401      0.0000 
@<TRIPOS>BOND
     1    1    2 ar   
     2    1    3 ar   
     3    1    4 1    
     4    1   23 1    
     5    4    5 1    
     6    5    6 1    
     7    6    7 1    
     8    6    8 1    
     9    7   12 1    
    10    8    9 1    
    11    8   10 1    
    12   10   11 1    
    13   10   12 1    
    14   12   13 1    
    15   13   14 1    
    16   13   22 1    
    17   14   15 2    
    18   15   16 1    
    19   16   17 ar   
    20   16   22 ar   
    21   17   18 1    
    22   17   19 ar   
    23   19   20 ar   
    24   20   21 ar   
    25   21   22 ar   
    26   23   24 1    
    27   24   25 ar   
    28   24   26 ar   
    29   24   27 1    
    30   27   28 1    
    31   28   29 1    
    32   29   30 1    
    33   29   31 1    
    34   30   35 1    
    35   31   32 1    
    36   31   33 1    
    37   33   34 1    
    38   33   35 1    
    39   35   36 1    
    40   36   37 1    
    41   36   44 1    
    42   37   38 2    
    43   38   39 1    
    44   38   42 1    
    45   39   40 2    
    46   39   41 am   
    47   42   43 1    
    48   43   44 2    
@<TRIPOS>SUBSTRUCTURE
     1 NAI401      1 GROUP   
@<TRIPOS>SET
ATOM$ORANGE STATIC     ATOMS   COLORGROUP SYSTEM 
42 5 5 6 6 8 8 10 10 12 12 14 14 16 16 17 17 20 \
20 22 22 28 28 29 29 31 31 33 33 35 35 37 37 38 38 39 \
39 42 42 43 43 44 44 

