#    Name: 6bsg_1_EFZ
#    Modification time : Fri May 22 19:35:00 2020

@<TRIPOS>MOLECULE
6bsg_1_EFZ
   21    23     1     0     0
SMALL
NO_CHARGES


@<TRIPOS>ATOM
      1 CL        -69.2710  -34.7990  -19.6660 Cl        1 EFZ601      0.0000 
      2 F1        -63.8460  -36.7540  -17.5020 F         1 EFZ601      0.0000 
      3 F2        -64.6800  -37.7880  -15.7630 F         1 EFZ601      0.0000 
      4 F3        -65.8420  -37.5130  -17.5590 F         1 EFZ601      0.0000 
      5 O1        -62.5300  -33.5570  -15.7150 O.2       1 EFZ601      0.0000 
      6 O2        -64.4510  -34.7900  -15.7330 O.3       1 EFZ601      0.0000 
      7 N         -63.8720  -33.3140  -17.3840 N.am      1 EFZ601      0.0000 
      8 C1        -65.1160  -33.5170  -18.0280 C.ar      1 EFZ601      0.0000 
      9 C2        -65.9520  -32.9420  -19.1470 C.ar      1 EFZ601      0.0000 
     10 C3        -67.2040  -33.4480  -19.5310 C.ar      1 EFZ601      0.0000 
     11 C4        -67.7320  -34.4210  -18.9760 C.ar      1 EFZ601      0.0000 
     12 C5        -67.2660  -35.0720  -18.0310 C.ar      1 EFZ601      0.0000 
     13 C6        -66.0280  -34.7340  -17.4920 C.ar      1 EFZ601      0.0000 
     14 C7        -65.4430  -35.5930  -16.2650 C.3       1 EFZ601      0.0000 
     15 C8        -66.5240  -35.9080  -15.2290 C.1       1 EFZ601      0.0000 
     16 C9        -67.3830  -36.0250  -14.3860 C.1       1 EFZ601      0.0000 
     17 C10       -68.5340  -36.1600  -13.2000 C.3       1 EFZ601      0.0000 
     18 C11       -69.7830  -35.8810  -13.6290 C.3       1 EFZ601      0.0000 
     19 C12       -68.6150  -35.1430  -12.3180 C.3       1 EFZ601      0.0000 
     20 C13       -64.9510  -36.9370  -16.7580 C.3       1 EFZ601      0.0000 
     21 C14       -63.5820  -33.8920  -16.2310 C.2       1 EFZ601      0.0000 
@<TRIPOS>BOND
     1    1   11 1    
     2    2   20 1    
     3    3   20 1    
     4    4   20 1    
     5    5   21 2    
     6    6   14 1    
     7    6   21 1    
     8    7    8 1    
     9    7   21 am   
    10    8    9 ar   
    11    8   13 ar   
    12    9   10 ar   
    13   10   11 ar   
    14   11   12 ar   
    15   12   13 ar   
    16   13   14 1    
    17   14   15 1    
    18   14   20 1    
    19   15   16 3    
    20   16   17 1    
    21   17   18 1    
    22   17   19 1    
    23   18   19 1    
@<TRIPOS>SUBSTRUCTURE
     1 EFZ601      1 GROUP   
@<TRIPOS>SET

