#    Name: 6gtt_1_B96
#    Modification time : Fri May 22 19:30:19 2020

@<TRIPOS>MOLECULE
6gtt_1_B96
   39    43     1     0     0
SMALL
NO_CHARGES


@<TRIPOS>ATOM
      1 C1         31.9140   18.7870   -3.6070 C.2       1 B96500      0.0000 
      2 O1         30.9850   18.1100   -3.1920 O.2       1 B96500      0.0000 
      3 N2         31.9240   19.4030   -4.8320 N.am      1 B96500      0.0000 
      4 C3         30.9220   19.2930   -5.8340 C.ar      1 B96500      0.0000 
      5 C4         31.2450   18.5800   -7.0350 C.ar      1 B96500      0.0000 
      6 C5         30.2550   18.4650   -8.0460 C.ar      1 B96500      0.0000 
      7 C6         28.9840   19.0520   -7.8480 C.ar      1 B96500      0.0000 
      8 C31        32.5130   17.9880   -7.2460 C.ar      1 B96500      0.0000 
      9 C32        32.7890   17.3170   -8.4050 C.ar      1 B96500      0.0000 
     10 C33        31.8090   17.2050   -9.4090 C.ar      1 B96500      0.0000 
     11 C34        30.5700   17.7640   -9.2320 C.ar      1 B96500      0.0000 
     12 C7         28.6940   19.7460   -6.6770 C.ar      1 B96500      0.0000 
     13 C8         29.6660   19.8680   -5.6670 C.ar      1 B96500      0.0000 
     14 N9         33.0450   19.0010   -2.8750 N.am      1 B96500      0.0000 
     15 C10        33.2060   18.7340   -1.5080 C.2       1 B96500      0.0000 
     16 C14        32.5720   17.8360   -0.7410 C.2       1 B96500      0.0000 
     17 C13        33.0590   17.9400    0.5500 C.2       1 B96500      0.0000 
     18 N12        33.9970   18.8840    0.6070 N.2       1 B96500      0.0000 
     19 N11        34.0870   19.3750   -0.6930 N.pl3     1 B96500      0.0000 
     20 C15        34.9910   20.4400   -0.9640 C.ar      1 B96500      0.0000 
     21 C17        32.9070   18.0060    3.0370 C.3       1 B96500      0.0000 
     22 C18        31.1760   16.8000    1.7190 C.3       1 B96500      0.0000 
     23 C19        33.4980   15.8770    1.8790 C.3       1 B96500      0.0000 
     24 C16        32.6640   17.1600    1.7870 C.3       1 B96500      0.0000 
     25 C20        36.2920   20.3660   -0.5120 C.ar      1 B96500      0.0000 
     26 C21        37.1590   21.4270   -0.7330 C.ar      1 B96500      0.0000 
     27 C22        36.7360   22.5760   -1.4010 C.ar      1 B96500      0.0000 
     28 C23        35.4090   22.6310   -1.8300 C.ar      1 B96500      0.0000 
     29 C24        34.5390   21.5740   -1.6060 C.ar      1 B96500      0.0000 
     30 C25        37.6820   23.7270   -1.6440 C.3       1 B96500      0.0000 
     31 O41        28.1100   18.8760   -8.8910 O.3       1 B96500      0.0000 
     32 C42        26.7430   19.3190   -8.9570 C.3       1 B96500      0.0000 
     33 C43        25.8370   18.1730   -8.5720 C.3       1 B96500      0.0000 
     34 N44        25.8800   17.0450   -9.5130 N.4       1 B96500      0.0000 
     35 C45        26.5740   15.8260   -9.0450 C.3       1 B96500      0.0000 
     36 C46        25.6250   14.9200   -8.3120 C.3       1 B96500      0.0000 
     37 O47        24.4980   14.5950   -9.1040 O.3       1 B96500      0.0000 
     38 C48        23.7900   15.7770   -9.4230 C.3       1 B96500      0.0000 
     39 C49        24.6320   16.7160  -10.2320 C.3       1 B96500      0.0000 
@<TRIPOS>BOND
     1    1    2 2    
     2    1    3 am   
     3    1   14 am   
     4    3    4 1    
     5    4    5 ar   
     6    4   13 ar   
     7    5    6 ar   
     8    5    8 ar   
     9    6    7 ar   
    10    6   11 ar   
    11    7   12 ar   
    12    7   31 1    
    13    8    9 ar   
    14    9   10 ar   
    15   10   11 ar   
    16   12   13 ar   
    17   14   15 1    
    18   15   16 2    
    19   15   19 1    
    20   16   17 1    
    21   17   18 2    
    22   17   24 1    
    23   18   19 1    
    24   19   20 1    
    25   20   25 ar   
    26   20   29 ar   
    27   21   24 1    
    28   22   24 1    
    29   23   24 1    
    30   25   26 ar   
    31   26   27 ar   
    32   27   28 ar   
    33   27   30 1    
    34   28   29 ar   
    35   31   32 1    
    36   32   33 1    
    37   33   34 1    
    38   34   35 1    
    39   34   39 1    
    40   35   36 1    
    41   36   37 1    
    42   37   38 1    
    43   38   39 1    
@<TRIPOS>SUBSTRUCTURE
     1 B96500      1 GROUP   
@<TRIPOS>SET

