#    Name: 6h0m_1_NAD
#    Modification time : Fri May 22 19:34:14 2020

@<TRIPOS>MOLECULE
6h0m_1_NAD
   44    48     1     0     1
SMALL
NO_CHARGES


@<TRIPOS>ATOM
      1 PA        -15.8540   32.8210  -18.5660 P.3       1 NAD302      0.0000 
      2 O1A       -16.6900   31.7590  -17.9780 O.co2     1 NAD302      0.0000 
      3 O2A       -14.9660   32.4560  -19.7340 O.co2     1 NAD302      0.0000 
      4 O5B       -16.8210   34.0050  -19.0030 O.3       1 NAD302      0.0000 
      5 C5B       -16.2720   35.0840  -19.7680 C.3       1 NAD302      0.0000 
      6 C4B       -17.3720   35.6770  -20.6020 C.3       1 NAD302      0.0000 
      7 O4B       -16.7980   36.8090  -21.2970 O.3       1 NAD302      0.0000 
      8 C3B       -17.9200   34.7290  -21.6830 C.3       1 NAD302      0.0000 
      9 O3B       -19.3410   34.7860  -21.8030 O.3       1 NAD302      0.0000 
     10 C2B       -17.1720   35.1900  -22.9390 C.3       1 NAD302      0.0000 
     11 O2B       -17.8250   34.9290  -24.1750 O.3       1 NAD302      0.0000 
     12 C1B       -17.0660   36.6880  -22.6790 C.3       1 NAD302      0.0000 
     13 N9A       -15.9990   37.3370  -23.4210 N.pl3     1 NAD302      0.0000 
     14 C8A       -14.7290   36.8690  -23.6410 C.2       1 NAD302      0.0000 
     15 N7A       -14.0220   37.6090  -24.4590 N.2       1 NAD302      0.0000 
     16 C5A       -14.8830   38.6410  -24.7970 C.ar      1 NAD302      0.0000 
     17 C6A       -14.7550   39.7380  -25.6690 C.ar      1 NAD302      0.0000 
     18 N6A       -13.7010   39.9330  -26.4670 N.pl3     1 NAD302      0.0000 
     19 N1A       -15.7950   40.5970  -25.7540 N.ar      1 NAD302      0.0000 
     20 C2A       -16.9050   40.3410  -25.0550 C.ar      1 NAD302      0.0000 
     21 N3A       -17.1580   39.3150  -24.2410 N.ar      1 NAD302      0.0000 
     22 C4A       -16.0990   38.4970  -24.1530 C.ar      1 NAD302      0.0000 
     23 O3        -14.9010   33.4870  -17.4800 O.3       1 NAD302      0.0000 
     24 PN        -15.0990   33.7910  -15.9210 P.3       1 NAD302      0.0000 
     25 O1N       -14.4360   32.7180  -15.1350 O.co2     1 NAD302      0.0000 
     26 O2N       -16.5170   34.1290  -15.6730 O.co2     1 NAD302      0.0000 
     27 O5D       -14.1960   35.0940  -15.7430 O.3       1 NAD302      0.0000 
     28 C5D       -14.7450   36.3920  -16.0160 C.3       1 NAD302      0.0000 
     29 C4D       -13.6360   37.3980  -15.8890 C.3       1 NAD302      0.0000 
     30 O4D       -13.0650   37.3140  -14.5620 O.3       1 NAD302      0.0000 
     31 C3D       -12.4780   37.1920  -16.8630 C.3       1 NAD302      0.0000 
     32 O3D       -11.9300   38.4440  -17.2610 O.3       1 NAD302      0.0000 
     33 C2D       -11.4750   36.4070  -16.0230 C.3       1 NAD302      0.0000 
     34 O2D       -10.1280   36.5690  -16.4480 O.3       1 NAD302      0.0000 
     35 C1D       -11.6960   37.0530  -14.6600 C.3       1 NAD302      0.0000 
     36 N1N       -11.2970   36.2030  -13.4710 N.pl3     1 NAD302      0.0000 
     37 C2N       -11.8500   34.9850  -13.3150 C.ar      1 NAD302      0.0000 
     38 C3N       -11.5230   34.2140  -12.2160 C.ar      1 NAD302      0.0000 
     39 C7N       -12.1220   32.8720  -11.9040 C.2       1 NAD302      0.0000 
     40 O7N       -11.6590   32.2130  -10.9630 O.2       1 NAD302      0.0000 
     41 N7N       -13.1330   32.4270  -12.6600 N.am      1 NAD302      0.0000 
     42 C4N       -10.6210   34.7270  -11.2840 C.ar      1 NAD302      0.0000 
     43 C5N       -10.0890   35.9900  -11.4580 C.ar      1 NAD302      0.0000 
     44 C6N       -10.4360   36.7200  -12.5690 C.ar      1 NAD302      0.0000 
@<TRIPOS>BOND
     1    1    2 ar   
     2    1    3 ar   
     3    1    4 1    
     4    1   23 1    
     5    4    5 1    
     6    5    6 1    
     7    6    7 1    
     8    6    8 1    
     9    7   12 1    
    10    8    9 1    
    11    8   10 1    
    12   10   11 1    
    13   10   12 1    
    14   12   13 1    
    15   13   14 1    
    16   13   22 1    
    17   14   15 2    
    18   15   16 1    
    19   16   17 ar   
    20   16   22 ar   
    21   17   18 1    
    22   17   19 ar   
    23   19   20 ar   
    24   20   21 ar   
    25   21   22 ar   
    26   23   24 1    
    27   24   25 ar   
    28   24   26 ar   
    29   24   27 1    
    30   27   28 1    
    31   28   29 1    
    32   29   30 1    
    33   29   31 1    
    34   30   35 1    
    35   31   32 1    
    36   31   33 1    
    37   33   34 1    
    38   33   35 1    
    39   35   36 1    
    40   36   37 ar   
    41   36   44 ar   
    42   37   38 ar   
    43   38   39 1    
    44   38   42 ar   
    45   39   40 2    
    46   39   41 am   
    47   42   43 ar   
    48   43   44 ar   
@<TRIPOS>SUBSTRUCTURE
     1 NAD302      1 GROUP   
@<TRIPOS>SET
ATOM$ORANGE STATIC     ATOMS   COLORGROUP SYSTEM 
42 5 5 6 6 8 8 10 10 12 12 14 14 16 16 17 17 20 \
20 22 22 28 28 29 29 31 31 33 33 35 35 37 37 38 38 39 \
39 42 42 43 43 44 44 

