#    Name: 6h0m_1_NAD_CAVITY_N1_ALL
#    Modification time : Fri May 22 19:34:16 2020

@<TRIPOS>MOLECULE
6h0m_1_NAD_CAVITY_N1_ALL
   80     0     5     0     0
SMALL
NO_CHARGES


@<TRIPOS>ATOM
      1 OG        -13.7400   32.7700  -15.2500 O.3       1 SER1        0.0000 
      2 OG        -12.3900   32.6900  -13.6100 O.3       1 SER1        0.0000 
      3 OG        -11.2900   36.7200  -14.3400 O.3       1 SER1        0.0000 
      4 OG        -10.8900   35.6800  -13.3400 O.3       1 SER1        0.0000 
      5 OG        -10.5900   37.3000  -16.2600 O.3       1 SER1        0.0000 
      6 OG         -9.9400   36.6500  -12.7100 O.3       1 SER1        0.0000 
      7 OG         -9.5400   35.6000  -11.7100 O.3       1 SER1        0.0000 
      8 OG        -10.0400   39.3100  -16.6300 O.3       1 SER1        0.0000 
      9 OG         -9.6400   38.2700  -15.6300 O.3       1 SER1        0.0000 
     10 N         -14.9300   35.9000  -18.2500 N.am      2 ALA2        0.0000 
     11 O         -11.8600   30.2100  -14.1700 O.2       2 ALA2        0.0000 
     12 N         -14.6700   36.2900  -15.7000 N.am      2 ALA2        0.0000 
     13 N         -13.9800   36.8700  -17.6200 N.am      2 ALA2        0.0000 
     14 N         -12.0000   31.6500  -12.6100 N.am      2 ALA2        0.0000 
     15 N         -12.5000   35.3600  -17.5300 N.am      2 ALA2        0.0000 
     16 N         -13.7200   37.2600  -15.0600 N.am      2 ALA2        0.0000 
     17 O         -12.1400   33.0800  -11.0600 O.2       2 ALA2        0.0000 
     18 N         -13.0300   37.8400  -16.9800 N.am      2 ALA2        0.0000 
     19 N         -12.6300   36.7900  -15.9800 N.am      2 ALA2        0.0000 
     20 N         -11.0500   32.6200  -11.9800 N.am      2 ALA2        0.0000 
     21 N         -10.6500   31.5700  -10.9800 N.am      2 ALA2        0.0000 
     22 O         -10.4500   35.8600  -17.8200 O.2       2 ALA2        0.0000 
     23 O          -8.4700   30.6400  -12.8100 O.2       2 ALA2        0.0000 
     24 N         -13.1700   39.2800  -15.4300 N.am      2 ALA2        0.0000 
     25 N         -11.1800   34.0500  -10.4200 N.am      2 ALA2        0.0000 
     26 N         -12.0800   38.8100  -16.3500 N.am      2 ALA2        0.0000 
     27 N         -10.0900   33.5900  -11.3400 N.am      2 ALA2        0.0000 
     28 N          -9.0000   33.1200  -12.2600 N.am      2 ALA2        0.0000 
     29 O          -9.9000   37.8800  -18.1800 O.2       2 ALA2        0.0000 
     30 N         -11.4200   38.1600  -12.7900 N.am      2 ALA2        0.0000 
     31 N         -11.1300   39.7800  -15.7100 N.am      2 ALA2        0.0000 
     32 N         -10.7300   38.7300  -14.7100 N.am      2 ALA2        0.0000 
     33 N         -10.3300   37.6900  -13.7100 N.am      2 ALA2        0.0000 
     34 N         -10.4300   40.3600  -17.6300 N.am      2 ALA2        0.0000 
     35 N          -9.3500   39.8900  -18.5500 N.am      2 ALA2        0.0000 
     36 O          -8.9500   38.8500  -17.5500 O.2       2 ALA2        0.0000 
     37 N          -9.4800   41.3300  -17.0000 N.am      2 ALA2        0.0000 
     38 N          -9.0900   40.2800  -15.9900 N.am      2 ALA2        0.0000 
     39 O          -8.0000   39.8200  -16.9100 O.2       2 ALA2        0.0000 
     40 N          -8.1300   41.2500  -15.3600 N.am      2 ALA2        0.0000 
     41 CZ        -10.9100   31.1800  -13.5300 C.ar      3 PHE5        0.0000 
     42 CZ         -9.4200   29.6700  -13.4500 C.ar      3 PHE5        0.0000 
     43 CZ         -9.5600   31.1100  -11.9000 C.ar      3 PHE5        0.0000 
     44 CZ         -8.8700   31.6800  -13.8200 C.ar      3 PHE5        0.0000 
     45 CZ         -9.5000   36.8300  -17.1800 C.ar      3 PHE5        0.0000 
     46 CA        -15.0900   32.8400  -16.8800 C.3       4 GLY6        0.0000 
     47 CA        -15.2300   34.2800  -15.3300 C.3       4 GLY6        0.0000 
     48 CA        -14.8300   33.2300  -14.3300 C.3       4 GLY6        0.0000 
     49 CA        -14.1400   33.8100  -16.2500 C.3       4 GLY6        0.0000 
     50 CA        -13.4500   34.3900  -18.1700 C.3       4 GLY6        0.0000 
     51 CA        -12.2600   31.2500  -15.1700 C.3       4 GLY6        0.0000 
     52 CA        -14.2800   35.2500  -14.6900 C.3       4 GLY6        0.0000 
     53 CA        -13.8800   34.2000  -13.6900 C.3       4 GLY6        0.0000 
     54 CA        -13.4800   33.1600  -12.6900 C.3       4 GLY6        0.0000 
     55 CA        -13.1900   34.7800  -15.6100 C.3       4 GLY6        0.0000 
     56 CA        -12.7900   33.7400  -14.6100 C.3       4 GLY6        0.0000 
     57 CA        -12.1000   34.3100  -16.5300 C.3       4 GLY6        0.0000 
     58 CA        -11.3100   32.2200  -14.5300 C.3       4 GLY6        0.0000 
     59 CA         -9.8200   30.7100  -14.4500 C.3       4 GLY6        0.0000 
     60 CA        -13.3300   36.2200  -14.0600 C.3       4 GLY6        0.0000 
     61 CA        -12.9300   35.1700  -13.0600 C.3       4 GLY6        0.0000 
     62 CA        -12.5300   34.1300  -12.0600 C.3       4 GLY6        0.0000 
     63 CA        -11.9400   37.3700  -17.9000 C.3       4 GLY6        0.0000 
     64 CA        -11.5400   36.3300  -16.9000 C.3       4 GLY6        0.0000 
     65 CA        -11.1500   35.2800  -15.9000 C.3       4 GLY6        0.0000 
     66 CA        -12.7700   38.2300  -14.4300 C.3       4 GLY6        0.0000 
     67 CA        -12.3700   37.1900  -13.4200 C.3       4 GLY6        0.0000 
     68 CA        -11.9800   36.1400  -12.4200 C.3       4 GLY6        0.0000 
     69 CA        -11.5800   35.1000  -11.4200 C.3       4 GLY6        0.0000 
     70 CA        -11.6800   37.7600  -15.3400 C.3       4 GLY6        0.0000 
     71 CA        -10.9900   38.3400  -17.2600 C.3       4 GLY6        0.0000 
     72 CA        -10.6300   36.0700  -10.7900 C.3       4 GLY6        0.0000 
     73 CA         -8.3900   40.8600  -17.9100 C.3       4 GLY6        0.0000 
     74 DU        -14.5400   34.8500  -17.2500 H         5 CUB7        0.0000 
     75 DU        -13.5900   35.8200  -16.6100 H         5 CUB7        0.0000 
     76 DU        -12.2400   35.7500  -14.9800 H         5 CUB7        0.0000 
     77 DU        -11.8400   34.7100  -13.9800 H         5 CUB7        0.0000 
     78 DU        -11.4400   33.6600  -12.9800 H         5 CUB7        0.0000 
     79 DU         -9.9600   32.1500  -12.9000 H         5 CUB7        0.0000 
     80 DU        -10.4900   34.6300  -12.3400 H         5 CUB7        0.0000 
@<TRIPOS>BOND
@<TRIPOS>SUBSTRUCTURE
     1 SER1        1 GROUP   
     2 ALA2       10 GROUP   
     3 PHE5       41 GROUP   
     4 GLY6       46 GROUP   
     5 CUB7       74 GROUP   
@<TRIPOS>SET

