#    Name: 6nhc_2_H4B_CAVITY_N1_8
#    Modification time : Fri May 22 19:33:41 2020

@<TRIPOS>MOLECULE
6nhc_2_H4B_CAVITY_N1_8
   52     0     6     0     0
SMALL
NO_CHARGES


@<TRIPOS>ATOM
      1 OG        112.0100  250.0700  326.6200 O.3       1 SER1        0.0000 
      2 OG        111.0000  249.1900  327.3000 O.3       1 SER1        0.0000 
      3 N         119.2300  246.4700  326.1500 N.am      2 ALA2        0.0000 
      4 N         116.5200  248.3300  327.8000 N.am      2 ALA2        0.0000 
      5 N         117.5600  247.2600  327.9800 N.am      2 ALA2        0.0000 
      6 N         119.6100  247.0600  327.4800 N.am      2 ALA2        0.0000 
      7 N         116.9000  248.9200  329.1300 N.am      2 ALA2        0.0000 
      8 N         118.9800  246.7800  329.4900 N.am      2 ALA2        0.0000 
      9 N         117.9700  245.9100  330.1600 N.am      2 ALA2        0.0000 
     10 NZ        118.2200  245.6000  326.8300 N.4       3 LYS4        0.0000 
     11 NZ        119.2600  244.5300  327.0100 N.4       3 LYS4        0.0000 
     12 NZ        120.3000  243.4600  327.1900 N.4       3 LYS4        0.0000 
     13 NZ        117.5900  245.3200  328.8400 N.4       3 LYS4        0.0000 
     14 NZ        116.5700  244.4400  329.5200 N.4       3 LYS4        0.0000 
     15 NZ        119.6400  245.1200  328.3400 N.4       3 LYS4        0.0000 
     16 NZ        118.6200  244.2500  329.0200 N.4       3 LYS4        0.0000 
     17 NZ        119.6600  243.1800  329.2000 N.4       3 LYS4        0.0000 
     18 CZ        112.0400  248.1300  327.4800 C.ar      4 PHE5        0.0000 
     19 CZ        111.0300  247.2500  328.1600 C.ar      4 PHE5        0.0000 
     20 CZ        114.0900  247.9300  326.9800 C.ar      4 PHE5        0.0000 
     21 CZ        113.0800  247.0600  327.6600 C.ar      4 PHE5        0.0000 
     22 CZ        113.4300  249.5900  328.1300 C.ar      4 PHE5        0.0000 
     23 CZ        115.4800  249.3900  327.6300 C.ar      4 PHE5        0.0000 
     24 CZ        114.4700  248.5200  328.3000 C.ar      4 PHE5        0.0000 
     25 CZ        115.5100  247.4500  328.4800 C.ar      4 PHE5        0.0000 
     26 CZ        116.5500  246.3900  328.6600 C.ar      4 PHE5        0.0000 
     27 CA        112.6700  248.4100  325.4800 C.3       5 GLY6        0.0000 
     28 CA        113.7100  247.3400  325.6500 C.3       5 GLY6        0.0000 
     29 CA        117.5400  249.2000  327.1200 C.3       5 GLY6        0.0000 
     30 CA        118.5800  248.1300  327.3000 C.3       5 GLY6        0.0000 
     31 CA        120.6500  245.9900  327.6600 C.3       5 GLY6        0.0000 
     32 CA        121.6900  244.9300  327.8400 C.3       5 GLY6        0.0000 
     33 CA        120.6800  244.0500  328.5200 C.3       5 GLY6        0.0000 
     34 CA        121.7100  242.9900  328.6900 C.3       5 GLY6        0.0000 
     35 CA        114.8300  251.0500  328.7700 C.3       5 GLY6        0.0000 
     36 CA        116.8800  250.8600  328.2700 C.3       5 GLY6        0.0000 
     37 CA        115.8600  249.9800  328.9500 C.3       5 GLY6        0.0000 
     38 CA        120.0200  245.7100  329.6600 C.3       5 GLY6        0.0000 
     39 DU        111.6600  247.5400  326.1500 H         6 CUB7        0.0000 
     40 DU        110.6500  246.6600  326.8300 H         6 CUB7        0.0000 
     41 DU        113.0500  249.0000  326.8000 H         6 CUB7        0.0000 
     42 DU        115.1100  248.8000  326.3000 H         6 CUB7        0.0000 
     43 DU        117.1600  248.6100  325.8000 H         6 CUB7        0.0000 
     44 DU        116.1400  247.7300  326.4800 H         6 CUB7        0.0000 
     45 DU        115.1300  246.8600  327.1600 H         6 CUB7        0.0000 
     46 DU        118.2000  247.5400  325.9800 H         6 CUB7        0.0000 
     47 DU        117.1800  246.6700  326.6600 H         6 CUB7        0.0000 
     48 DU        120.2700  245.4000  326.3300 H         6 CUB7        0.0000 
     49 DU        114.4500  250.4600  327.4500 H         6 CUB7        0.0000 
     50 DU        116.5000  250.2700  326.9500 H         6 CUB7        0.0000 
     51 DU        118.6000  246.1900  328.1600 H         6 CUB7        0.0000 
     52 DU        119.0000  244.8400  330.3400 H         6 CUB7        0.0000 
@<TRIPOS>BOND
@<TRIPOS>SUBSTRUCTURE
     1 SER1        1 GROUP   
     2 ALA2        3 GROUP   
     3 LYS4       10 GROUP   
     4 PHE5       18 GROUP   
     5 GLY6       27 GROUP   
     6 CUB7       39 GROUP   
@<TRIPOS>SET

