#    Name: 6nhc_2_H4B_CAVITY_N1_4
#    Modification time : Fri May 22 19:33:41 2020

@<TRIPOS>MOLECULE
6nhc_2_H4B_CAVITY_N1_4
    2     0     2     0     0
SMALL
NO_CHARGES


@<TRIPOS>ATOM
      1 N         117.9700  245.9100  330.1600 N.am      1 ALA2        0.0000 
      2 NZ        116.5700  244.4400  329.5200 N.4       2 LYS4        0.0000 
@<TRIPOS>BOND
@<TRIPOS>SUBSTRUCTURE
     1 ALA2        1 GROUP   
     2 LYS4        2 GROUP   
@<TRIPOS>SET

