#    Name: 6nhc_2_H4B
#    Modification time : Fri May 22 19:33:40 2020

@<TRIPOS>MOLECULE
6nhc_2_H4B
   17    18     1     0     1
SMALL
NO_CHARGES


@<TRIPOS>ATOM
      1 N1        114.5520  246.2760  334.7360 N.2       1 H4B803      0.0000 
      2 C2        114.7020  245.6890  333.5210 C.2       1 H4B803      0.0000 
      3 N2        115.9480  245.4750  333.0210 N.pl3     1 H4B803      0.0000 
      4 N3        113.6120  245.3170  332.8060 N.am      1 H4B803      0.0000 
      5 C4        112.3670  245.5200  333.2790 C.2       1 H4B803      0.0000 
      6 O4        111.3940  245.1690  332.5720 O.2       1 H4B803      0.0000 
      7 C4A       112.2010  246.1280  334.5280 C.2       1 H4B803      0.0000 
      8 C8A       113.3230  246.4990  335.2490 C.2       1 H4B803      0.0000 
      9 N5        110.9840  246.3680  335.0490 N.3       1 H4B803      0.0000 
     10 N8        113.2130  247.0910  336.4620 N.pl3     1 H4B803      0.0000 
     11 C6        110.8690  247.4230  336.0560 C.3       1 H4B803      0.0000 
     12 C7        111.9330  247.2710  337.1360 C.3       1 H4B803      0.0000 
     13 C9        109.4820  247.5150  336.7050 C.3       1 H4B803      0.0000 
     14 O9        109.0740  246.2430  337.2100 O.3       1 H4B803      0.0000 
     15 C10       109.5290  248.5280  337.8280 C.3       1 H4B803      0.0000 
     16 C11       108.1980  248.6110  338.5670 C.3       1 H4B803      0.0000 
     17 O10       109.8550  249.7980  337.2620 O.3       1 H4B803      0.0000 
@<TRIPOS>BOND
     1    1    2 2    
     2    1    8 1    
     3    2    3 1    
     4    2    4 1    
     5    4    5 am   
     6    5    6 2    
     7    5    7 1    
     8    7    8 2    
     9    7    9 1    
    10    8   10 1    
    11    9   11 1    
    12   10   12 1    
    13   11   12 1    
    14   11   13 1    
    15   13   14 1    
    16   13   15 1    
    17   15   16 1    
    18   15   17 1    
@<TRIPOS>SUBSTRUCTURE
     1 H4B803      1 GROUP   
@<TRIPOS>SET
ATOM$ORANGE STATIC     ATOMS   COLORGROUP SYSTEM 
18 2 2 5 5 7 7 8 8 11 11 12 12 13 13 15 15 16 \
16 

