#    Name: 6nhc_2_H4B_CAVITY_N1_ALL
#    Modification time : Fri May 22 19:33:41 2020

@<TRIPOS>MOLECULE
6nhc_2_H4B_CAVITY_N1_ALL
   84     0     6     0     0
SMALL
NO_CHARGES


@<TRIPOS>ATOM
      1 OG        112.0100  250.0700  326.6200 O.3       1 SER1        0.0000 
      2 OG        111.0000  249.1900  327.3000 O.3       1 SER1        0.0000 
      3 N         119.2100  248.4100  325.3000 N.am      2 ALA2        0.0000 
      4 N         120.2500  247.3400  325.4800 N.am      2 ALA2        0.0000 
      5 N         119.2300  246.4700  326.1500 N.am      2 ALA2        0.0000 
      6 N         121.2900  246.2800  325.6500 N.am      2 ALA2        0.0000 
      7 O         122.3500  243.2700  326.6900 O.2       2 ALA2        0.0000 
      8 N         116.5200  248.3300  327.8000 N.am      2 ALA2        0.0000 
      9 N         117.5600  247.2600  327.9800 N.am      2 ALA2        0.0000 
     10 N         119.6100  247.0600  327.4800 N.am      2 ALA2        0.0000 
     11 N         121.6700  246.8700  326.9800 N.am      2 ALA2        0.0000 
     12 O         122.7000  245.8000  327.1600 O.2       2 ALA2        0.0000 
     13 N         116.9000  248.9200  329.1300 N.am      2 ALA2        0.0000 
     14 N         118.9800  246.7800  329.4900 N.am      2 ALA2        0.0000 
     15 N         117.9700  245.9100  330.1600 N.am      2 ALA2        0.0000 
     16 NZ        118.2200  245.6000  326.8300 N.4       3 LYS4        0.0000 
     17 NZ        119.2600  244.5300  327.0100 N.4       3 LYS4        0.0000 
     18 NZ        121.3100  244.3400  326.5100 N.4       3 LYS4        0.0000 
     19 NZ        120.3000  243.4600  327.1900 N.4       3 LYS4        0.0000 
     20 NZ        121.3400  242.4000  327.3700 N.4       3 LYS4        0.0000 
     21 NZ        117.5900  245.3200  328.8400 N.4       3 LYS4        0.0000 
     22 NZ        116.5700  244.4400  329.5200 N.4       3 LYS4        0.0000 
     23 NZ        119.6400  245.1200  328.3400 N.4       3 LYS4        0.0000 
     24 NZ        118.6200  244.2500  329.0200 N.4       3 LYS4        0.0000 
     25 NZ        119.6600  243.1800  329.2000 N.4       3 LYS4        0.0000 
     26 CZ        116.7500  249.9600  323.6200 C.ar      4 PHE5        0.0000 
     27 CZ        115.7400  249.0800  324.3000 C.ar      4 PHE5        0.0000 
     28 CZ        117.7900  248.8900  323.7900 C.ar      4 PHE5        0.0000 
     29 CZ        116.7800  248.0200  324.4700 C.ar      4 PHE5        0.0000 
     30 CZ        118.8300  247.8200  323.9700 C.ar      4 PHE5        0.0000 
     31 CZ        112.0400  248.1300  327.4800 C.ar      4 PHE5        0.0000 
     32 CZ        111.0300  247.2500  328.1600 C.ar      4 PHE5        0.0000 
     33 CZ        114.0900  247.9300  326.9800 C.ar      4 PHE5        0.0000 
     34 CZ        113.0800  247.0600  327.6600 C.ar      4 PHE5        0.0000 
     35 CZ        113.4300  249.5900  328.1300 C.ar      4 PHE5        0.0000 
     36 CZ        115.4800  249.3900  327.6300 C.ar      4 PHE5        0.0000 
     37 CZ        114.4700  248.5200  328.3000 C.ar      4 PHE5        0.0000 
     38 CZ        115.5100  247.4500  328.4800 C.ar      4 PHE5        0.0000 
     39 CZ        116.5500  246.3900  328.6600 C.ar      4 PHE5        0.0000 
     40 CA        111.6300  249.4800  325.3000 C.3       5 GLY6        0.0000 
     41 CA        114.7000  250.1500  324.1200 C.3       5 GLY6        0.0000 
     42 CA        113.6900  249.2800  324.8000 C.3       5 GLY6        0.0000 
     43 CA        112.6700  248.4100  325.4800 C.3       5 GLY6        0.0000 
     44 CA        114.7300  248.2100  324.9700 C.3       5 GLY6        0.0000 
     45 CA        113.7100  247.3400  325.6500 C.3       5 GLY6        0.0000 
     46 CA        113.0300  250.9400  325.9400 C.3       5 GLY6        0.0000 
     47 CA        116.0900  251.6200  324.7600 C.3       5 GLY6        0.0000 
     48 CA        115.0800  250.7400  325.4400 C.3       5 GLY6        0.0000 
     49 CA        114.0700  249.8700  326.1200 C.3       5 GLY6        0.0000 
     50 CA        118.1700  249.4800  325.1200 C.3       5 GLY6        0.0000 
     51 CA        122.3200  245.2100  325.8300 C.3       5 GLY6        0.0000 
     52 CA        123.3600  244.1400  326.0100 C.3       5 GLY6        0.0000 
     53 CA        116.4700  252.2100  326.0900 C.3       5 GLY6        0.0000 
     54 CA        117.5100  251.1400  326.2700 C.3       5 GLY6        0.0000 
     55 CA        118.5500  250.0700  326.4500 C.3       5 GLY6        0.0000 
     56 CA        117.5400  249.2000  327.1200 C.3       5 GLY6        0.0000 
     57 CA        118.5800  248.1300  327.3000 C.3       5 GLY6        0.0000 
     58 CA        120.6500  245.9900  327.6600 C.3       5 GLY6        0.0000 
     59 CA        121.6900  244.9300  327.8400 C.3       5 GLY6        0.0000 
     60 CA        120.6800  244.0500  328.5200 C.3       5 GLY6        0.0000 
     61 CA        123.7400  244.7300  327.3400 C.3       5 GLY6        0.0000 
     62 CA        122.7300  243.8600  328.0100 C.3       5 GLY6        0.0000 
     63 CA        121.7100  242.9900  328.6900 C.3       5 GLY6        0.0000 
     64 CA        114.8300  251.0500  328.7700 C.3       5 GLY6        0.0000 
     65 CA        116.8800  250.8600  328.2700 C.3       5 GLY6        0.0000 
     66 CA        115.8600  249.9800  328.9500 C.3       5 GLY6        0.0000 
     67 CA        120.0200  245.7100  329.6600 C.3       5 GLY6        0.0000 
     68 DU        111.6600  247.5400  326.1500 H         6 CUB7        0.0000 
     69 DU        110.6500  246.6600  326.8300 H         6 CUB7        0.0000 
     70 DU        113.0500  249.0000  326.8000 H         6 CUB7        0.0000 
     71 DU        117.1300  250.5500  324.9400 H         6 CUB7        0.0000 
     72 DU        116.1200  249.6800  325.6200 H         6 CUB7        0.0000 
     73 DU        115.1100  248.8000  326.3000 H         6 CUB7        0.0000 
     74 DU        117.1600  248.6100  325.8000 H         6 CUB7        0.0000 
     75 DU        116.1400  247.7300  326.4800 H         6 CUB7        0.0000 
     76 DU        115.1300  246.8600  327.1600 H         6 CUB7        0.0000 
     77 DU        118.2000  247.5400  325.9800 H         6 CUB7        0.0000 
     78 DU        117.1800  246.6700  326.6600 H         6 CUB7        0.0000 
     79 DU        120.2700  245.4000  326.3300 H         6 CUB7        0.0000 
     80 DU        115.4600  251.3300  326.7700 H         6 CUB7        0.0000 
     81 DU        114.4500  250.4600  327.4500 H         6 CUB7        0.0000 
     82 DU        116.5000  250.2700  326.9500 H         6 CUB7        0.0000 
     83 DU        118.6000  246.1900  328.1600 H         6 CUB7        0.0000 
     84 DU        119.0000  244.8400  330.3400 H         6 CUB7        0.0000 
@<TRIPOS>BOND
@<TRIPOS>SUBSTRUCTURE
     1 SER1        1 GROUP   
     2 ALA2        3 GROUP   
     3 LYS4       16 GROUP   
     4 PHE5       26 GROUP   
     5 GLY6       40 GROUP   
     6 CUB7       68 GROUP   
@<TRIPOS>SET

