#    Name: 6nhc_2_H4B_CAVITY_N1_6
#    Modification time : Fri May 22 19:33:41 2020

@<TRIPOS>MOLECULE
6nhc_2_H4B_CAVITY_N1_6
   20     0     5     0     0
SMALL
NO_CHARGES


@<TRIPOS>ATOM
      1 N         116.5200  248.3300  327.8000 N.am      1 ALA2        0.0000 
      2 N         117.5600  247.2600  327.9800 N.am      1 ALA2        0.0000 
      3 N         116.9000  248.9200  329.1300 N.am      1 ALA2        0.0000 
      4 N         118.9800  246.7800  329.4900 N.am      1 ALA2        0.0000 
      5 N         117.9700  245.9100  330.1600 N.am      1 ALA2        0.0000 
      6 NZ        117.5900  245.3200  328.8400 N.4       2 LYS4        0.0000 
      7 NZ        116.5700  244.4400  329.5200 N.4       2 LYS4        0.0000 
      8 NZ        119.6400  245.1200  328.3400 N.4       2 LYS4        0.0000 
      9 NZ        118.6200  244.2500  329.0200 N.4       2 LYS4        0.0000 
     10 NZ        119.6600  243.1800  329.2000 N.4       2 LYS4        0.0000 
     11 CZ        112.0400  248.1300  327.4800 C.ar      3 PHE5        0.0000 
     12 CZ        111.0300  247.2500  328.1600 C.ar      3 PHE5        0.0000 
     13 CZ        113.0800  247.0600  327.6600 C.ar      3 PHE5        0.0000 
     14 CZ        114.4700  248.5200  328.3000 C.ar      3 PHE5        0.0000 
     15 CZ        115.5100  247.4500  328.4800 C.ar      3 PHE5        0.0000 
     16 CZ        116.5500  246.3900  328.6600 C.ar      3 PHE5        0.0000 
     17 CA        120.0200  245.7100  329.6600 C.3       4 GLY6        0.0000 
     18 DU        110.6500  246.6600  326.8300 H         5 CUB7        0.0000 
     19 DU        118.6000  246.1900  328.1600 H         5 CUB7        0.0000 
     20 DU        119.0000  244.8400  330.3400 H         5 CUB7        0.0000 
@<TRIPOS>BOND
@<TRIPOS>SUBSTRUCTURE
     1 ALA2        1 GROUP   
     2 LYS4        6 GROUP   
     3 PHE5       11 GROUP   
     4 GLY6       17 GROUP   
     5 CUB7       18 GROUP   
@<TRIPOS>SET

