#    Name: 6jo6_11_LUT
#    Modification time : Fri May 22 19:36:13 2020

@<TRIPOS>MOLECULE
6jo6_11_LUT
   42    43     1     0     0
SMALL
NO_CHARGES


@<TRIPOS>ATOM
      1 C1        106.6130  201.1220  183.8700 C.3       1 LUT624      0.0000 
      2 C2        105.9630  202.3260  183.1900 C.3       1 LUT624      0.0000 
      3 C3        104.4820  202.5630  183.4470 C.3       1 LUT624      0.0000 
      4 C4        103.7470  201.2450  183.5590 C.3       1 LUT624      0.0000 
      5 C5        104.3660  200.4920  184.6990 C.2       1 LUT624      0.0000 
      6 C6        105.6850  200.2900  184.7370 C.2       1 LUT624      0.0000 
      7 C7        106.2750  199.2780  185.6580 C.2       1 LUT624      0.0000 
      8 C8        106.3520  197.9840  185.3340 C.2       1 LUT624      0.0000 
      9 C9        106.9340  196.9380  186.2030 C.2       1 LUT624      0.0000 
     10 C10       106.9040  195.6750  185.7520 C.2       1 LUT624      0.0000 
     11 C11       107.4310  194.4870  186.4130 C.2       1 LUT624      0.0000 
     12 C12       107.2360  193.3470  185.7560 C.2       1 LUT624      0.0000 
     13 C13       107.7140  192.0210  186.1830 C.2       1 LUT624      0.0000 
     14 C14       107.6520  191.0220  185.2890 C.2       1 LUT624      0.0000 
     15 C15       108.1530  189.6850  185.5810 C.2       1 LUT624      0.0000 
     16 C16       107.6910  201.6410  184.8000 C.3       1 LUT624      0.0000 
     17 C17       107.2660  200.2750  182.7820 C.3       1 LUT624      0.0000 
     18 C18       103.4600  200.0290  185.7940 C.3       1 LUT624      0.0000 
     19 C19       107.5340  197.2730  187.5330 C.3       1 LUT624      0.0000 
     20 C20       108.2790  191.8030  187.5540 C.3       1 LUT624      0.0000 
     21 O3        103.9370  203.3060  182.3540 O.3       1 LUT624      0.0000 
     22 C21       112.1360  177.5030  183.6650 C.3       1 LUT624      0.0000 
     23 C22       112.9030  176.3850  184.3630 C.3       1 LUT624      0.0000 
     24 C23       112.1080  175.6370  185.4250 C.3       1 LUT624      0.0000 
     25 C24       111.3290  176.5870  186.2940 C.2       1 LUT624      0.0000 
     26 C25       110.7910  177.6960  185.7790 C.2       1 LUT624      0.0000 
     27 C26       111.4920  178.4500  184.6810 C.3       1 LUT624      0.0000 
     28 C27       110.5460  179.4100  183.9930 C.2       1 LUT624      0.0000 
     29 C28       110.7770  180.7070  184.1500 C.2       1 LUT624      0.0000 
     30 C29       109.9480  181.7610  183.5470 C.2       1 LUT624      0.0000 
     31 C30       110.2180  183.0140  183.9270 C.2       1 LUT624      0.0000 
     32 C31       109.5260  184.1990  183.4430 C.2       1 LUT624      0.0000 
     33 C32       109.4010  185.2060  184.2970 C.2       1 LUT624      0.0000 
     34 C33       108.7480  186.4760  183.9410 C.2       1 LUT624      0.0000 
     35 C34       108.7960  187.4770  184.8320 C.2       1 LUT624      0.0000 
     36 C35       108.2390  188.8010  184.5890 C.2       1 LUT624      0.0000 
     37 C36       111.0990  176.9160  182.7150 C.3       1 LUT624      0.0000 
     38 C37       113.1380  178.2820  182.8240 C.3       1 LUT624      0.0000 
     39 C38       109.4740  178.1580  186.3210 C.3       1 LUT624      0.0000 
     40 C39       108.8600  181.4410  182.5670 C.3       1 LUT624      0.0000 
     41 C40       108.0590  186.6300  182.6210 C.3       1 LUT624      0.0000 
     42 O23       113.0100  174.8830  186.2420 O.3       1 LUT624      0.0000 
@<TRIPOS>BOND
     1    1    2 1    
     2    1    6 1    
     3    1   16 1    
     4    1   17 1    
     5    2    3 1    
     6    3    4 1    
     7    3   21 1    
     8    4    5 1    
     9    5    6 2    
    10    5   18 1    
    11    6    7 1    
    12    7    8 2    
    13    8    9 1    
    14    9   10 2    
    15    9   19 1    
    16   10   11 1    
    17   11   12 2    
    18   12   13 1    
    19   13   14 2    
    20   13   20 1    
    21   14   15 1    
    22   15   36 2    
    23   22   23 1    
    24   22   27 1    
    25   22   37 1    
    26   22   38 1    
    27   23   24 1    
    28   24   25 1    
    29   24   42 1    
    30   25   26 2    
    31   26   27 1    
    32   26   39 1    
    33   27   28 1    
    34   28   29 2    
    35   29   30 1    
    36   30   31 2    
    37   30   40 1    
    38   31   32 1    
    39   32   33 2    
    40   33   34 1    
    41   34   35 2    
    42   34   41 1    
    43   35   36 1    
@<TRIPOS>SUBSTRUCTURE
     1 LUT624      1 GROUP   
@<TRIPOS>SET

