#    Name: 6jo6_9_LUT
#    Modification time : Fri May 22 19:36:08 2020

@<TRIPOS>MOLECULE
6jo6_9_LUT
   42    43     1     0     0
SMALL
NO_CHARGES


@<TRIPOS>ATOM
      1 C1        100.4120  168.3040  149.8740 C.3       1 LUT624      0.0000 
      2 C2         99.7790  169.2800  148.8800 C.3       1 LUT624      0.0000 
      3 C3         98.4810  168.8670  148.1970 C.3       1 LUT624      0.0000 
      4 C4         98.4050  167.3640  148.0130 C.3       1 LUT624      0.0000 
      5 C5         98.5600  166.7290  149.3650 C.2       1 LUT624      0.0000 
      6 C6         99.5960  167.0510  150.1460 C.2       1 LUT624      0.0000 
      7 C7         99.9630  166.2160  151.3210 C.2       1 LUT624      0.0000 
      8 C8        100.6970  165.1040  151.2210 C.2       1 LUT624      0.0000 
      9 C9        101.0760  164.2900  152.3960 C.2       1 LUT624      0.0000 
     10 C10       101.8680  163.2280  152.1910 C.2       1 LUT624      0.0000 
     11 C11       102.3780  162.3190  153.2170 C.2       1 LUT624      0.0000 
     12 C12       103.3460  161.5180  152.7780 C.2       1 LUT624      0.0000 
     13 C13       104.1090  160.5030  153.5300 C.2       1 LUT624      0.0000 
     14 C14       104.9650  159.7420  152.8300 C.2       1 LUT624      0.0000 
     15 C15       105.8190  158.7260  153.4380 C.2       1 LUT624      0.0000 
     16 C16       100.5900  169.0280  151.2010 C.3       1 LUT624      0.0000 
     17 C17       101.7890  167.9510  149.3310 C.3       1 LUT624      0.0000 
     18 C18        97.5030  165.7640  149.8100 C.3       1 LUT624      0.0000 
     19 C19       100.6050  164.6450  153.7730 C.3       1 LUT624      0.0000 
     20 C20       103.9590  160.3430  155.0120 C.3       1 LUT624      0.0000 
     21 O3         98.4180  169.4980  146.9150 O.3       1 LUT624      0.0000 
     22 C21       114.6960  149.7740  155.6160 C.3       1 LUT624      0.0000 
     23 C22       115.4200  149.0620  156.7440 C.3       1 LUT624      0.0000 
     24 C23       114.7260  147.8070  157.2360 C.3       1 LUT624      0.0000 
     25 C24       113.2750  148.0840  157.5000 C.2       1 LUT624      0.0000 
     26 C25       112.5980  149.0160  156.8230 C.2       1 LUT624      0.0000 
     27 C26       113.2600  150.1130  156.0280 C.3       1 LUT624      0.0000 
     28 C27       112.4250  150.4910  154.8200 C.2       1 LUT624      0.0000 
     29 C28       111.9440  151.7280  154.7860 C.2       1 LUT624      0.0000 
     30 C29       111.1270  152.2820  153.6950 C.2       1 LUT624      0.0000 
     31 C30       110.6530  153.5140  153.8950 C.2       1 LUT624      0.0000 
     32 C31       109.8410  154.2670  152.9490 C.2       1 LUT624      0.0000 
     33 C32       108.9670  155.1120  153.4780 C.2       1 LUT624      0.0000 
     34 C33       108.0930  155.9740  152.6740 C.2       1 LUT624      0.0000 
     35 C34       107.3850  156.9110  153.3250 C.2       1 LUT624      0.0000 
     36 C35       106.5070  157.8780  152.6750 C.2       1 LUT624      0.0000 
     37 C36       114.7500  148.9300  154.3480 C.3       1 LUT624      0.0000 
     38 C37       115.4630  151.0590  155.3480 C.3       1 LUT624      0.0000 
     39 C38       111.1130  148.9530  156.8930 C.3       1 LUT624      0.0000 
     40 C39       110.8520  151.5150  152.4370 C.3       1 LUT624      0.0000 
     41 C40       108.0270  155.7950  151.1890 C.3       1 LUT624      0.0000 
     42 O23       115.3350  147.3820  158.4590 O.3       1 LUT624      0.0000 
@<TRIPOS>BOND
     1    1    2 1    
     2    1    6 1    
     3    1   16 1    
     4    1   17 1    
     5    2    3 1    
     6    3    4 1    
     7    3   21 1    
     8    4    5 1    
     9    5    6 2    
    10    5   18 1    
    11    6    7 1    
    12    7    8 2    
    13    8    9 1    
    14    9   10 2    
    15    9   19 1    
    16   10   11 1    
    17   11   12 2    
    18   12   13 1    
    19   13   14 2    
    20   13   20 1    
    21   14   15 1    
    22   15   36 2    
    23   22   23 1    
    24   22   27 1    
    25   22   37 1    
    26   22   38 1    
    27   23   24 1    
    28   24   25 1    
    29   24   42 1    
    30   25   26 2    
    31   26   27 1    
    32   26   39 1    
    33   27   28 1    
    34   28   29 2    
    35   29   30 1    
    36   30   31 2    
    37   30   40 1    
    38   31   32 1    
    39   32   33 2    
    40   33   34 1    
    41   34   35 2    
    42   34   41 1    
    43   35   36 1    
@<TRIPOS>SUBSTRUCTURE
     1 LUT624      1 GROUP   
@<TRIPOS>SET

