#    Name: 6jo6_11_LUT_CAVITY_N1_6
#    Modification time : Fri May 22 19:36:14 2020

@<TRIPOS>MOLECULE
6jo6_11_LUT_CAVITY_N1_6
   71     0     7     0     0
SMALL
NO_CHARGES


@<TRIPOS>ATOM
      1 OG        111.4400  185.6100  189.0100 O.3       1 SER1        0.0000 
      2 N         107.0300  175.9600  188.7200 N.am      2 ALA2        0.0000 
      3 N         110.2100  175.2600  187.0300 N.am      2 ALA2        0.0000 
      4 N         109.3400  176.3400  187.6100 N.am      2 ALA2        0.0000 
      5 N         108.2200  176.5600  189.3900 N.am      2 ALA2        0.0000 
      6 N         108.4800  177.4200  188.1900 N.am      2 ALA2        0.0000 
      7 N         110.2900  176.0800  189.4900 N.am      2 ALA2        0.0000 
      8 OD1       104.0200  176.7000  186.7400 O.co2     3 ASP3        0.0000 
      9 OD1       104.9600  176.4500  188.6200 O.co2     3 ASP3        0.0000 
     10 OD1       105.2200  177.3000  187.4100 O.co2     3 ASP3        0.0000 
     11 OD1       106.1600  177.0400  189.3000 O.co2     3 ASP3        0.0000 
     12 OD1       106.4100  177.9000  188.0900 O.co2     3 ASP3        0.0000 
     13 OD1       105.8000  179.8300  187.4600 O.co2     3 ASP3        0.0000 
     14 NZ        107.3600  177.6400  189.9700 N.4       4 LYS4        0.0000 
     15 NZ        107.6100  178.5000  188.7700 N.4       4 LYS4        0.0000 
     16 NZ        107.0000  180.4300  188.1400 N.4       4 LYS4        0.0000 
     17 NZ        111.1500  175.0000  188.9100 N.4       4 LYS4        0.0000 
     18 NZ        111.4100  175.8600  187.7000 N.4       4 LYS4        0.0000 
     19 NZ        111.6600  176.7100  186.5000 N.4       4 LYS4        0.0000 
     20 NZ        108.5600  178.2400  190.6500 N.4       4 LYS4        0.0000 
     21 NZ        108.8100  179.0900  189.4400 N.4       4 LYS4        0.0000 
     22 NZ        107.9400  180.1700  190.0200 N.4       4 LYS4        0.0000 
     23 NZ        108.2000  181.0300  188.8100 N.4       4 LYS4        0.0000 
     24 NZ        112.3500  175.6000  189.5900 N.4       4 LYS4        0.0000 
     25 NZ        112.6100  176.4500  188.3800 N.4       4 LYS4        0.0000 
     26 NZ        108.8900  179.9200  191.9000 N.4       4 LYS4        0.0000 
     27 CZ        104.8800  175.6200  186.1600 C.ar      5 PHE5        0.0000 
     28 CZ        105.1400  176.4800  184.9500 C.ar      5 PHE5        0.0000 
     29 CZ        104.2700  177.5500  185.5300 C.ar      5 PHE5        0.0000 
     30 CZ        106.0800  176.2200  186.8300 C.ar      5 PHE5        0.0000 
     31 CZ        105.4700  178.1500  186.2100 C.ar      5 PHE5        0.0000 
     32 CZ        107.2800  176.8200  187.5100 C.ar      5 PHE5        0.0000 
     33 CZ        110.4700  176.1100  185.8200 C.ar      5 PHE5        0.0000 
     34 CZ        109.6000  177.1900  186.4000 C.ar      5 PHE5        0.0000 
     35 CZ        110.2400  185.0100  188.3300 C.ar      5 PHE5        0.0000 
     36 CZ        113.2700  179.8100  190.8900 C.ar      5 PHE5        0.0000 
     37 CZ        113.5300  180.6600  189.6800 C.ar      5 PHE5        0.0000 
     38 CA        105.8300  175.3700  188.0400 C.3       6 GLY6        0.0000 
     39 CA        107.5900  182.9600  188.1900 C.3       6 GLY6        0.0000 
     40 CA        112.8600  177.3100  187.1700 C.3       6 GLY6        0.0000 
     41 CA        112.0000  178.3900  187.7500 C.3       6 GLY6        0.0000 
     42 CA        109.1400  180.7700  190.7000 C.3       6 GLY6        0.0000 
     43 CA        109.4000  181.6200  189.4900 C.3       6 GLY6        0.0000 
     44 CA        108.7900  183.5600  188.8600 C.3       6 GLY6        0.0000 
     45 CA        109.0400  184.4100  187.6600 C.3       6 GLY6        0.0000 
     46 CA        112.6800  177.2800  190.8400 C.3       6 GLY6        0.0000 
     47 CA        112.9400  178.1300  189.6300 C.3       6 GLY6        0.0000 
     48 CA        111.8200  178.3600  191.4200 C.3       6 GLY6        0.0000 
     49 CA        112.0700  179.2100  190.2100 C.3       6 GLY6        0.0000 
     50 CA        111.2100  180.2900  190.7900 C.3       6 GLY6        0.0000 
     51 CA        110.6000  182.2200  190.1700 C.3       6 GLY6        0.0000 
     52 CA        109.9900  184.1500  189.5400 C.3       6 GLY6        0.0000 
     53 DU        108.7300  178.2700  186.9800 H         7 CUB7        0.0000 
     54 DU        107.8700  179.3500  187.5600 H         7 CUB7        0.0000 
     55 DU        110.5400  176.9400  188.2800 H         7 CUB7        0.0000 
     56 DU        110.8000  177.7900  187.0800 H         7 CUB7        0.0000 
     57 DU        109.4200  177.1600  190.0700 H         7 CUB7        0.0000 
     58 DU        109.6800  178.0100  188.8600 H         7 CUB7        0.0000 
     59 DU        109.0700  179.9500  188.2300 H         7 CUB7        0.0000 
     60 DU        108.4600  181.8800  187.6100 H         7 CUB7        0.0000 
     61 DU        111.4800  176.6800  190.1700 H         7 CUB7        0.0000 
     62 DU        111.7400  177.5300  188.9600 H         7 CUB7        0.0000 
     63 DU        110.6200  177.7600  190.7500 H         7 CUB7        0.0000 
     64 DU        110.8700  178.6100  189.5400 H         7 CUB7        0.0000 
     65 DU        109.7500  178.8400  191.3200 H         7 CUB7        0.0000 
     66 DU        110.0100  179.6900  190.1200 H         7 CUB7        0.0000 
     67 DU        110.2600  180.5400  188.9100 H         7 CUB7        0.0000 
     68 DU        109.6500  182.4800  188.2800 H         7 CUB7        0.0000 
     69 DU        112.3300  180.0600  189.0100 H         7 CUB7        0.0000 
     70 DU        111.4600  181.1400  189.5900 H         7 CUB7        0.0000 
     71 DU        110.8500  183.0700  188.9600 H         7 CUB7        0.0000 
@<TRIPOS>BOND
@<TRIPOS>SUBSTRUCTURE
     1 SER1        1 GROUP   
     2 ALA2        2 GROUP   
     3 ASP3        8 GROUP   
     4 LYS4       14 GROUP   
     5 PHE5       27 GROUP   
     6 GLY6       38 GROUP   
     7 CUB7       53 GROUP   
@<TRIPOS>SET

