#    Name: 6jo6_11_LUT_CAVITY_N1_4
#    Modification time : Fri May 22 19:36:14 2020

@<TRIPOS>MOLECULE
6jo6_11_LUT_CAVITY_N1_4
   32     0     6     0     0
SMALL
NO_CHARGES


@<TRIPOS>ATOM
      1 N         110.2100  175.2600  187.0300 N.am      1 ALA2        0.0000 
      2 N         109.3400  176.3400  187.6100 N.am      1 ALA2        0.0000 
      3 N         108.2200  176.5600  189.3900 N.am      1 ALA2        0.0000 
      4 N         108.4800  177.4200  188.1900 N.am      1 ALA2        0.0000 
      5 N         110.2900  176.0800  189.4900 N.am      1 ALA2        0.0000 
      6 OD1       106.4100  177.9000  188.0900 O.co2     2 ASP3        0.0000 
      7 NZ        107.6100  178.5000  188.7700 N.4       3 LYS4        0.0000 
      8 NZ        107.0000  180.4300  188.1400 N.4       3 LYS4        0.0000 
      9 NZ        111.1500  175.0000  188.9100 N.4       3 LYS4        0.0000 
     10 NZ        111.4100  175.8600  187.7000 N.4       3 LYS4        0.0000 
     11 NZ        111.6600  176.7100  186.5000 N.4       3 LYS4        0.0000 
     12 NZ        108.8100  179.0900  189.4400 N.4       3 LYS4        0.0000 
     13 NZ        112.3500  175.6000  189.5900 N.4       3 LYS4        0.0000 
     14 NZ        112.6100  176.4500  188.3800 N.4       3 LYS4        0.0000 
     15 CZ        106.0800  176.2200  186.8300 C.ar      4 PHE5        0.0000 
     16 CZ        107.2800  176.8200  187.5100 C.ar      4 PHE5        0.0000 
     17 CZ        110.4700  176.1100  185.8200 C.ar      4 PHE5        0.0000 
     18 CZ        109.6000  177.1900  186.4000 C.ar      4 PHE5        0.0000 
     19 CA        112.8600  177.3100  187.1700 C.3       5 GLY6        0.0000 
     20 CA        112.0000  178.3900  187.7500 C.3       5 GLY6        0.0000 
     21 CA        109.0400  184.4100  187.6600 C.3       5 GLY6        0.0000 
     22 DU        108.7300  178.2700  186.9800 H         6 CUB7        0.0000 
     23 DU        107.8700  179.3500  187.5600 H         6 CUB7        0.0000 
     24 DU        110.5400  176.9400  188.2800 H         6 CUB7        0.0000 
     25 DU        110.8000  177.7900  187.0800 H         6 CUB7        0.0000 
     26 DU        109.4200  177.1600  190.0700 H         6 CUB7        0.0000 
     27 DU        109.6800  178.0100  188.8600 H         6 CUB7        0.0000 
     28 DU        109.0700  179.9500  188.2300 H         6 CUB7        0.0000 
     29 DU        111.4800  176.6800  190.1700 H         6 CUB7        0.0000 
     30 DU        111.7400  177.5300  188.9600 H         6 CUB7        0.0000 
     31 DU        110.8700  178.6100  189.5400 H         6 CUB7        0.0000 
     32 DU        110.2600  180.5400  188.9100 H         6 CUB7        0.0000 
@<TRIPOS>BOND
@<TRIPOS>SUBSTRUCTURE
     1 ALA2        1 GROUP   
     2 ASP3        6 GROUP   
     3 LYS4        7 GROUP   
     4 PHE5       15 GROUP   
     5 GLY6       19 GROUP   
     6 CUB7       22 GROUP   
@<TRIPOS>SET

