#    Name: 6jo6_11_LUT_CAVITY_N1_8
#    Modification time : Fri May 22 19:36:14 2020

@<TRIPOS>MOLECULE
6jo6_11_LUT_CAVITY_N1_8
   88     0     7     0     0
SMALL
NO_CHARGES


@<TRIPOS>ATOM
      1 OG        112.0500  183.6700  189.6400 O.3       1 SER1        0.0000 
      2 OG        111.1800  184.7500  190.2100 O.3       1 SER1        0.0000 
      3 OG        111.4400  185.6100  189.0100 O.3       1 SER1        0.0000 
      4 OG        113.2500  184.2700  190.3100 O.3       1 SER1        0.0000 
      5 N         107.0300  175.9600  188.7200 N.am      2 ALA2        0.0000 
      6 N         110.2100  175.2600  187.0300 N.am      2 ALA2        0.0000 
      7 N         109.3400  176.3400  187.6100 N.am      2 ALA2        0.0000 
      8 N         108.2200  176.5600  189.3900 N.am      2 ALA2        0.0000 
      9 N         108.4800  177.4200  188.1900 N.am      2 ALA2        0.0000 
     10 N         110.2900  176.0800  189.4900 N.am      2 ALA2        0.0000 
     11 N         110.3400  181.3700  191.3700 N.am      2 ALA2        0.0000 
     12 N         111.7900  182.8200  190.8400 N.am      2 ALA2        0.0000 
     13 O         110.9300  183.9000  191.4200 O.2       2 ALA2        0.0000 
     14 OD1       102.8200  176.1000  186.0600 O.co2     3 ASP3        0.0000 
     15 OD1       103.7600  175.8500  187.9400 O.co2     3 ASP3        0.0000 
     16 OD1       104.0200  176.7000  186.7400 O.co2     3 ASP3        0.0000 
     17 OD1       104.9600  176.4500  188.6200 O.co2     3 ASP3        0.0000 
     18 OD1       105.2200  177.3000  187.4100 O.co2     3 ASP3        0.0000 
     19 OD1       106.1600  177.0400  189.3000 O.co2     3 ASP3        0.0000 
     20 OD1       106.4100  177.9000  188.0900 O.co2     3 ASP3        0.0000 
     21 OD1       105.8000  179.8300  187.4600 O.co2     3 ASP3        0.0000 
     22 NZ        107.3600  177.6400  189.9700 N.4       4 LYS4        0.0000 
     23 NZ        107.6100  178.5000  188.7700 N.4       4 LYS4        0.0000 
     24 NZ        107.0000  180.4300  188.1400 N.4       4 LYS4        0.0000 
     25 NZ        111.1500  175.0000  188.9100 N.4       4 LYS4        0.0000 
     26 NZ        111.4100  175.8600  187.7000 N.4       4 LYS4        0.0000 
     27 NZ        111.6600  176.7100  186.5000 N.4       4 LYS4        0.0000 
     28 NZ        108.5600  178.2400  190.6500 N.4       4 LYS4        0.0000 
     29 NZ        108.8100  179.0900  189.4400 N.4       4 LYS4        0.0000 
     30 NZ        107.9400  180.1700  190.0200 N.4       4 LYS4        0.0000 
     31 NZ        108.2000  181.0300  188.8100 N.4       4 LYS4        0.0000 
     32 NZ        112.3500  175.6000  189.5900 N.4       4 LYS4        0.0000 
     33 NZ        112.6100  176.4500  188.3800 N.4       4 LYS4        0.0000 
     34 NZ        108.8900  179.9200  191.9000 N.4       4 LYS4        0.0000 
     35 CZ        103.9400  175.8800  184.2700 C.ar      5 PHE5        0.0000 
     36 CZ        102.5700  175.2500  187.2700 C.ar      5 PHE5        0.0000 
     37 CZ        104.8800  175.6200  186.1600 C.ar      5 PHE5        0.0000 
     38 CZ        105.1400  176.4800  184.9500 C.ar      5 PHE5        0.0000 
     39 CZ        104.2700  177.5500  185.5300 C.ar      5 PHE5        0.0000 
     40 CZ        106.0800  176.2200  186.8300 C.ar      5 PHE5        0.0000 
     41 CZ        105.4700  178.1500  186.2100 C.ar      5 PHE5        0.0000 
     42 CZ        107.2800  176.8200  187.5100 C.ar      5 PHE5        0.0000 
     43 CZ        110.4700  176.1100  185.8200 C.ar      5 PHE5        0.0000 
     44 CZ        109.6000  177.1900  186.4000 C.ar      5 PHE5        0.0000 
     45 CZ        110.2400  185.0100  188.3300 C.ar      5 PHE5        0.0000 
     46 CZ        113.2700  179.8100  190.8900 C.ar      5 PHE5        0.0000 
     47 CZ        113.5300  180.6600  189.6800 C.ar      5 PHE5        0.0000 
     48 CZ        112.6600  181.7400  190.2600 C.ar      5 PHE5        0.0000 
     49 CA        102.7400  175.2800  183.6000 C.3       6 GLY6        0.0000 
     50 CA        103.4300  174.1700  186.6900 C.3       6 GLY6        0.0000 
     51 CA        103.6900  175.0200  185.4800 C.3       6 GLY6        0.0000 
     52 CA        104.6300  174.7700  187.3600 C.3       6 GLY6        0.0000 
     53 CA        105.8300  175.3700  188.0400 C.3       6 GLY6        0.0000 
     54 CA        107.5900  182.9600  188.1900 C.3       6 GLY6        0.0000 
     55 CA        112.8600  177.3100  187.1700 C.3       6 GLY6        0.0000 
     56 CA        112.0000  178.3900  187.7500 C.3       6 GLY6        0.0000 
     57 CA        109.1400  180.7700  190.7000 C.3       6 GLY6        0.0000 
     58 CA        109.4000  181.6200  189.4900 C.3       6 GLY6        0.0000 
     59 CA        108.7900  183.5600  188.8600 C.3       6 GLY6        0.0000 
     60 CA        109.0400  184.4100  187.6600 C.3       6 GLY6        0.0000 
     61 CA        112.6800  177.2800  190.8400 C.3       6 GLY6        0.0000 
     62 CA        112.9400  178.1300  189.6300 C.3       6 GLY6        0.0000 
     63 CA        111.8200  178.3600  191.4200 C.3       6 GLY6        0.0000 
     64 CA        112.0700  179.2100  190.2100 C.3       6 GLY6        0.0000 
     65 CA        110.9500  179.4400  192.0000 C.3       6 GLY6        0.0000 
     66 CA        111.2100  180.2900  190.7900 C.3       6 GLY6        0.0000 
     67 CA        110.6000  182.2200  190.1700 C.3       6 GLY6        0.0000 
     68 CA        109.7300  183.3000  190.7500 C.3       6 GLY6        0.0000 
     69 CA        109.9900  184.1500  189.5400 C.3       6 GLY6        0.0000 
     70 DU        108.7300  178.2700  186.9800 H         7 CUB7        0.0000 
     71 DU        107.8700  179.3500  187.5600 H         7 CUB7        0.0000 
     72 DU        110.5400  176.9400  188.2800 H         7 CUB7        0.0000 
     73 DU        110.8000  177.7900  187.0800 H         7 CUB7        0.0000 
     74 DU        109.4200  177.1600  190.0700 H         7 CUB7        0.0000 
     75 DU        109.6800  178.0100  188.8600 H         7 CUB7        0.0000 
     76 DU        109.0700  179.9500  188.2300 H         7 CUB7        0.0000 
     77 DU        108.4600  181.8800  187.6100 H         7 CUB7        0.0000 
     78 DU        111.4800  176.6800  190.1700 H         7 CUB7        0.0000 
     79 DU        111.7400  177.5300  188.9600 H         7 CUB7        0.0000 
     80 DU        110.6200  177.7600  190.7500 H         7 CUB7        0.0000 
     81 DU        110.8700  178.6100  189.5400 H         7 CUB7        0.0000 
     82 DU        109.7500  178.8400  191.3200 H         7 CUB7        0.0000 
     83 DU        110.0100  179.6900  190.1200 H         7 CUB7        0.0000 
     84 DU        110.2600  180.5400  188.9100 H         7 CUB7        0.0000 
     85 DU        109.6500  182.4800  188.2800 H         7 CUB7        0.0000 
     86 DU        112.3300  180.0600  189.0100 H         7 CUB7        0.0000 
     87 DU        111.4600  181.1400  189.5900 H         7 CUB7        0.0000 
     88 DU        110.8500  183.0700  188.9600 H         7 CUB7        0.0000 
@<TRIPOS>BOND
@<TRIPOS>SUBSTRUCTURE
     1 SER1        1 GROUP   
     2 ALA2        5 GROUP   
     3 ASP3       14 GROUP   
     4 LYS4       22 GROUP   
     5 PHE5       35 GROUP   
     6 GLY6       49 GROUP   
     7 CUB7       70 GROUP   
@<TRIPOS>SET

