#    Name: 6jo6_9_LUT_CAVITY_N1_6
#    Modification time : Fri May 22 19:36:10 2020

@<TRIPOS>MOLECULE
6jo6_9_LUT_CAVITY_N1_6
   75     0     6     0     0
SMALL
NO_CHARGES


@<TRIPOS>ATOM
      1 OG        107.8800  154.9900  159.1600 O.3       1 SER1        0.0000 
      2 N         109.0500  145.8400  158.5300 N.am      2 ALA2        0.0000 
      3 N         110.2500  146.4400  159.2100 N.am      2 ALA2        0.0000 
      4 N         110.5000  147.2900  158.0000 N.am      2 ALA2        0.0000 
      5 N         112.5600  146.8100  158.1000 N.am      2 ALA2        0.0000 
      6 N         111.4400  147.0400  159.8900 N.am      2 ALA2        0.0000 
      7 N         111.7000  147.8900  158.6800 N.am      2 ALA2        0.0000 
      8 N         108.8500  150.2800  161.6200 N.am      2 ALA2        0.0000 
      9 N         109.1000  151.1300  160.4200 N.am      2 ALA2        0.0000 
     10 NZ        107.4900  148.0300  156.0200 N.4       3 LYS4        0.0000 
     11 NZ        108.1800  146.9200  159.1100 N.4       3 LYS4        0.0000 
     12 NZ        108.4400  147.7700  157.9100 N.4       3 LYS4        0.0000 
     13 NZ        108.6900  148.6300  156.7000 N.4       3 LYS4        0.0000 
     14 NZ        107.8300  149.7100  157.2800 N.4       3 LYS4        0.0000 
     15 NZ        108.0800  150.5600  156.0700 N.4       3 LYS4        0.0000 
     16 NZ        108.5100  148.6000  160.3700 N.4       3 LYS4        0.0000 
     17 NZ        108.7700  149.4500  159.1600 N.4       3 LYS4        0.0000 
     18 NZ        109.0200  150.3000  157.9500 N.4       3 LYS4        0.0000 
     19 NZ        113.7600  147.4100  158.7800 N.4       3 LYS4        0.0000 
     20 NZ        114.0200  148.2600  157.5700 N.4       3 LYS4        0.0000 
     21 NZ        112.6400  147.6400  160.5600 N.4       3 LYS4        0.0000 
     22 NZ        112.9000  148.4900  159.3600 N.4       3 LYS4        0.0000 
     23 CZ        108.1000  146.1000  156.6500 C.ar      4 PHE5        0.0000 
     24 CZ        109.3000  146.6900  157.3300 C.ar      4 PHE5        0.0000 
     25 CZ        109.5600  147.5500  156.1200 C.ar      4 PHE5        0.0000 
     26 CZ        110.7600  148.1500  156.8000 C.ar      4 PHE5        0.0000 
     27 CZ        112.8200  147.6700  156.8900 C.ar      4 PHE5        0.0000 
     28 CZ        112.1100  150.3900  162.4000 C.ar      4 PHE5        0.0000 
     29 CZ        112.3600  151.2500  161.1900 C.ar      4 PHE5        0.0000 
     30 CZ        111.5000  152.3200  161.7700 C.ar      4 PHE5        0.0000 
     31 CZ        113.5600  151.8400  161.8700 C.ar      4 PHE5        0.0000 
     32 CA        106.8800  149.9600  155.4000 C.3       5 GLY6        0.0000 
     33 CA        106.0200  151.0400  155.9800 C.3       5 GLY6        0.0000 
     34 CA        107.2200  151.6400  156.6500 C.3       5 GLY6        0.0000 
     35 CA        107.4700  152.4900  155.4400 C.3       5 GLY6        0.0000 
     36 CA        106.3500  152.7200  157.2300 C.3       5 GLY6        0.0000 
     37 CA        107.9000  150.5300  159.7400 C.3       5 GLY6        0.0000 
     38 CA        108.1600  151.3800  158.5300 C.3       5 GLY6        0.0000 
     39 CA        107.2900  152.4600  159.1100 C.3       5 GLY6        0.0000 
     40 CA        107.5500  153.3200  157.9100 C.3       5 GLY6        0.0000 
     41 CA        107.8000  154.1700  156.7000 C.3       5 GLY6        0.0000 
     42 CA        108.0600  155.0200  155.4900 C.3       5 GLY6        0.0000 
     43 CA        106.6800  154.3900  158.4900 C.3       5 GLY6        0.0000 
     44 CA        106.9400  155.2500  157.2800 C.3       5 GLY6        0.0000 
     45 CA        108.4900  153.0600  159.7900 C.3       5 GLY6        0.0000 
     46 CA        110.9100  149.7900  161.7200 C.3       5 GLY6        0.0000 
     47 CA        110.3000  151.7300  161.0900 C.3       5 GLY6        0.0000 
     48 CA        114.0900  149.0900  160.0300 C.3       5 GLY6        0.0000 
     49 CA        114.3500  149.9400  158.8200 C.3       5 GLY6        0.0000 
     50 CA        112.9700  149.3100  161.8200 C.3       5 GLY6        0.0000 
     51 CA        113.2300  150.1700  160.6100 C.3       5 GLY6        0.0000 
     52 CA        113.4800  151.0200  159.4000 C.3       5 GLY6        0.0000 
     53 DU        109.3800  147.5200  159.7900 H         6 CUB7        0.0000 
     54 DU        109.6400  148.3700  158.5800 H         6 CUB7        0.0000 
     55 DU        109.8900  149.2300  157.3800 H         6 CUB7        0.0000 
     56 DU        109.2800  151.1600  156.7500 H         6 CUB7        0.0000 
     57 DU        108.4100  152.2400  157.3300 H         6 CUB7        0.0000 
     58 DU        108.6700  153.0900  156.1200 H         6 CUB7        0.0000 
     59 DU        111.9500  148.7400  157.4700 H         6 CUB7        0.0000 
     60 DU        110.5800  148.1200  160.4700 H         6 CUB7        0.0000 
     61 DU        109.7100  149.2000  161.0500 H         6 CUB7        0.0000 
     62 DU        109.9700  150.0500  159.8400 H         6 CUB7        0.0000 
     63 DU        110.2200  150.9000  158.6300 H         6 CUB7        0.0000 
     64 DU        109.3600  151.9800  159.2100 H         6 CUB7        0.0000 
     65 DU        109.6100  152.8300  158.0000 H         6 CUB7        0.0000 
     66 DU        108.7500  153.9100  158.5800 H         6 CUB7        0.0000 
     67 DU        109.0000  154.7700  157.3800 H         6 CUB7        0.0000 
     68 DU        113.1500  149.3400  158.1500 H         6 CUB7        0.0000 
     69 DU        111.7800  148.7200  161.1400 H         6 CUB7        0.0000 
     70 DU        112.0300  149.5700  159.9300 H         6 CUB7        0.0000 
     71 DU        112.2900  150.4200  158.7300 H         6 CUB7        0.0000 
     72 DU        111.1700  150.6500  160.5100 H         6 CUB7        0.0000 
     73 DU        110.5500  152.5800  159.8900 H         6 CUB7        0.0000 
     74 DU        109.9400  154.5100  159.2600 H         6 CUB7        0.0000 
     75 DU        112.6200  152.1000  159.9800 H         6 CUB7        0.0000 
@<TRIPOS>BOND
@<TRIPOS>SUBSTRUCTURE
     1 SER1        1 GROUP   
     2 ALA2        2 GROUP   
     3 LYS4       10 GROUP   
     4 PHE5       23 GROUP   
     5 GLY6       32 GROUP   
     6 CUB7       53 GROUP   
@<TRIPOS>SET

