#    Name: 6jo6_9_LUT_CAVITY_N1_4
#    Modification time : Fri May 22 19:36:10 2020

@<TRIPOS>MOLECULE
6jo6_9_LUT_CAVITY_N1_4
   42     0     5     0     0
SMALL
NO_CHARGES


@<TRIPOS>ATOM
      1 N         110.2500  146.4400  159.2100 N.am      1 ALA2        0.0000 
      2 N         110.5000  147.2900  158.0000 N.am      1 ALA2        0.0000 
      3 N         112.5600  146.8100  158.1000 N.am      1 ALA2        0.0000 
      4 N         111.4400  147.0400  159.8900 N.am      1 ALA2        0.0000 
      5 N         111.7000  147.8900  158.6800 N.am      1 ALA2        0.0000 
      6 NZ        107.4900  148.0300  156.0200 N.4       2 LYS4        0.0000 
      7 NZ        108.4400  147.7700  157.9100 N.4       2 LYS4        0.0000 
      8 NZ        108.6900  148.6300  156.7000 N.4       2 LYS4        0.0000 
      9 NZ        107.8300  149.7100  157.2800 N.4       2 LYS4        0.0000 
     10 NZ        108.0800  150.5600  156.0700 N.4       2 LYS4        0.0000 
     11 NZ        108.7700  149.4500  159.1600 N.4       2 LYS4        0.0000 
     12 NZ        109.0200  150.3000  157.9500 N.4       2 LYS4        0.0000 
     13 NZ        113.7600  147.4100  158.7800 N.4       2 LYS4        0.0000 
     14 NZ        114.0200  148.2600  157.5700 N.4       2 LYS4        0.0000 
     15 NZ        112.6400  147.6400  160.5600 N.4       2 LYS4        0.0000 
     16 NZ        112.9000  148.4900  159.3600 N.4       2 LYS4        0.0000 
     17 CZ        109.3000  146.6900  157.3300 C.ar      3 PHE5        0.0000 
     18 CZ        109.5600  147.5500  156.1200 C.ar      3 PHE5        0.0000 
     19 CZ        110.7600  148.1500  156.8000 C.ar      3 PHE5        0.0000 
     20 CZ        112.8200  147.6700  156.8900 C.ar      3 PHE5        0.0000 
     21 CA        107.4700  152.4900  155.4400 C.3       4 GLY6        0.0000 
     22 CA        107.8000  154.1700  156.7000 C.3       4 GLY6        0.0000 
     23 CA        108.0600  155.0200  155.4900 C.3       4 GLY6        0.0000 
     24 CA        114.0900  149.0900  160.0300 C.3       4 GLY6        0.0000 
     25 CA        114.3500  149.9400  158.8200 C.3       4 GLY6        0.0000 
     26 CA        113.2300  150.1700  160.6100 C.3       4 GLY6        0.0000 
     27 CA        113.4800  151.0200  159.4000 C.3       4 GLY6        0.0000 
     28 DU        109.3800  147.5200  159.7900 H         5 CUB7        0.0000 
     29 DU        109.6400  148.3700  158.5800 H         5 CUB7        0.0000 
     30 DU        109.8900  149.2300  157.3800 H         5 CUB7        0.0000 
     31 DU        109.2800  151.1600  156.7500 H         5 CUB7        0.0000 
     32 DU        108.6700  153.0900  156.1200 H         5 CUB7        0.0000 
     33 DU        111.9500  148.7400  157.4700 H         5 CUB7        0.0000 
     34 DU        110.5800  148.1200  160.4700 H         5 CUB7        0.0000 
     35 DU        109.9700  150.0500  159.8400 H         5 CUB7        0.0000 
     36 DU        110.2200  150.9000  158.6300 H         5 CUB7        0.0000 
     37 DU        109.0000  154.7700  157.3800 H         5 CUB7        0.0000 
     38 DU        113.1500  149.3400  158.1500 H         5 CUB7        0.0000 
     39 DU        111.7800  148.7200  161.1400 H         5 CUB7        0.0000 
     40 DU        112.0300  149.5700  159.9300 H         5 CUB7        0.0000 
     41 DU        112.2900  150.4200  158.7300 H         5 CUB7        0.0000 
     42 DU        111.1700  150.6500  160.5100 H         5 CUB7        0.0000 
@<TRIPOS>BOND
@<TRIPOS>SUBSTRUCTURE
     1 ALA2        1 GROUP   
     2 LYS4        6 GROUP   
     3 PHE5       17 GROUP   
     4 GLY6       21 GROUP   
     5 CUB7       28 GROUP   
@<TRIPOS>SET

