#    Name: 6aa8_2_NAD_CAVITY_N1_4
#    Modification time : Fri May 22 19:28:59 2020

@<TRIPOS>MOLECULE
6aa8_2_NAD_CAVITY_N1_4
   87     0     5     0     0
SMALL
NO_CHARGES


@<TRIPOS>ATOM
      1 OG        -26.6500   80.8300   91.1100 O.3       1 SER1        0.0000 
      2 OG        -25.6400   80.9200   90.0100 O.3       1 SER1        0.0000 
      3 OG        -28.3600   81.9500   91.6700 O.3       1 SER1        0.0000 
      4 OG        -27.3500   82.0300   90.5600 O.3       1 SER1        0.0000 
      5 OG        -26.3400   82.1200   89.4600 O.3       1 SER1        0.0000 
      6 OG        -28.0600   83.2400   90.0200 O.3       1 SER1        0.0000 
      7 OG        -25.0900   80.5100   92.5100 O.3       1 SER1        0.0000 
      8 OG        -26.8000   81.6300   93.0700 O.3       1 SER1        0.0000 
      9 OG        -27.5100   82.8300   92.5200 O.3       1 SER1        0.0000 
     10 O         -34.5100   79.4200   89.9100 O.2       2 ALA2        0.0000 
     11 N         -34.2000   80.7200   88.2600 N.am      2 ALA2        0.0000 
     12 N         -33.1900   80.8100   87.1600 N.am      2 ALA2        0.0000 
     13 O         -33.6600   80.3100   90.7700 O.2       2 ALA2        0.0000 
     14 N         -33.3500   81.6100   89.1200 N.am      2 ALA2        0.0000 
     15 N         -32.3400   81.7000   88.0100 N.am      2 ALA2        0.0000 
     16 O         -30.6900   77.5800   93.2600 O.2       2 ALA2        0.0000 
     17 N         -33.5000   82.4000   91.0700 N.am      2 ALA2        0.0000 
     18 N         -32.4900   82.4900   89.9700 N.am      2 ALA2        0.0000 
     19 N         -31.4800   82.5800   88.8700 N.am      2 ALA2        0.0000 
     20 O         -27.4100   76.1400   94.1100 O.2       2 ALA2        0.0000 
     21 O         -28.1200   77.3500   93.5600 O.2       2 ALA2        0.0000 
     22 O         -28.8200   78.5600   93.0100 O.2       2 ALA2        0.0000 
     23 O         -31.6400   83.3800   90.8200 O.2       2 ALA2        0.0000 
     24 N         -30.6300   83.4700   89.7200 N.am      2 ALA2        0.0000 
     25 N         -31.3300   84.6800   89.1700 N.am      2 ALA2        0.0000 
     26 O         -29.0700   83.1500   91.1200 O.2       2 ALA2        0.0000 
     27 N         -29.7700   84.3600   90.5700 N.am      2 ALA2        0.0000 
     28 O         -28.5200   82.7400   93.6300 O.2       2 ALA2        0.0000 
     29 O         -25.5500   80.0100   96.1200 O.2       2 ALA2        0.0000 
     30 N         -26.2500   81.2200   95.5800 N.am      2 ALA2        0.0000 
     31 N         -26.9600   82.4200   95.0300 N.am      2 ALA2        0.0000 
     32 NZ        -29.6200   83.5600   88.6200 N.4       3 LYS4        0.0000 
     33 NZ        -28.7600   84.4500   89.4700 N.4       3 LYS4        0.0000 
     34 CA        -30.3800   78.8800   91.6100 C.3       4 GLY6        0.0000 
     35 CA        -31.0800   80.0800   91.0600 C.3       4 GLY6        0.0000 
     36 CA        -28.0500   80.3500   87.7500 C.3       4 GLY6        0.0000 
     37 CA        -32.8000   81.2000   91.6200 C.3       4 GLY6        0.0000 
     38 CA        -31.7900   81.2900   90.5200 C.3       4 GLY6        0.0000 
     39 CA        -28.7600   81.5600   87.2000 C.3       4 GLY6        0.0000 
     40 CA        -27.7500   81.6500   86.1000 C.3       4 GLY6        0.0000 
     41 CA        -30.4700   82.6700   87.7600 C.3       4 GLY6        0.0000 
     42 CA        -26.8000   78.7400   90.8000 C.3       4 GLY6        0.0000 
     43 CA        -29.5200   79.7600   92.4700 C.3       4 GLY6        0.0000 
     44 CA        -30.2300   80.9700   91.9200 C.3       4 GLY6        0.0000 
     45 CA        -26.1900   81.3300   87.5000 C.3       4 GLY6        0.0000 
     46 CA        -30.9300   82.1700   91.3700 C.3       4 GLY6        0.0000 
     47 CA        -27.9000   82.4400   88.0600 C.3       4 GLY6        0.0000 
     48 CA        -32.3400   84.5900   90.2800 C.3       4 GLY6        0.0000 
     49 CA        -26.5600   77.0300   94.9600 C.3       4 GLY6        0.0000 
     50 CA        -24.5300   77.2100   92.7500 C.3       4 GLY6        0.0000 
     51 CA        -27.2600   78.2400   94.4100 C.3       4 GLY6        0.0000 
     52 CA        -25.2400   78.4200   92.2000 C.3       4 GLY6        0.0000 
     53 CA        -27.9600   79.4400   93.8700 C.3       4 GLY6        0.0000 
     54 CA        -28.6700   80.6500   93.3200 C.3       4 GLY6        0.0000 
     55 CA        -29.3700   81.8600   92.7700 C.3       4 GLY6        0.0000 
     56 CA        -27.0500   83.3300   88.9100 C.3       4 GLY6        0.0000 
     57 CA        -30.4800   85.5600   90.0300 C.3       4 GLY6        0.0000 
     58 CA        -26.4000   79.1200   95.2700 C.3       4 GLY6        0.0000 
     59 CA        -28.1200   80.2400   95.8300 C.3       4 GLY6        0.0000 
     60 CA        -27.1100   80.3300   94.7200 C.3       4 GLY6        0.0000 
     61 CA        -27.8100   81.5400   94.1700 C.3       4 GLY6        0.0000 
     62 DU        -33.5000   79.5100   88.8100 H         5 CUB7        0.0000 
     63 DU        -32.6400   80.4000   89.6600 H         5 CUB7        0.0000 
     64 DU        -31.6300   80.4900   88.5600 H         5 CUB7        0.0000 
     65 DU        -30.0700   80.1700   89.9600 H         5 CUB7        0.0000 
     66 DU        -29.0600   80.2600   88.8500 H         5 CUB7        0.0000 
     67 DU        -30.7800   81.3800   89.4100 H         5 CUB7        0.0000 
     68 DU        -29.7700   81.4700   88.3100 H         5 CUB7        0.0000 
     69 DU        -27.1000   77.4400   92.4500 H         5 CUB7        0.0000 
     70 DU        -27.8100   78.6500   91.9100 H         5 CUB7        0.0000 
     71 DU        -28.5100   79.8500   91.3600 H         5 CUB7        0.0000 
     72 DU        -27.5000   79.9400   90.2600 H         5 CUB7        0.0000 
     73 DU        -29.2200   81.0600   90.8100 H         5 CUB7        0.0000 
     74 DU        -28.2100   81.1500   89.7100 H         5 CUB7        0.0000 
     75 DU        -27.2000   81.2400   88.6000 H         5 CUB7        0.0000 
     76 DU        -29.9200   82.2600   90.2700 H         5 CUB7        0.0000 
     77 DU        -28.9100   82.3500   89.1600 H         5 CUB7        0.0000 
     78 DU        -25.5400   77.1200   93.8600 H         5 CUB7        0.0000 
     79 DU        -26.2500   78.3300   93.3100 H         5 CUB7        0.0000 
     80 DU        -26.9500   79.5300   92.7600 H         5 CUB7        0.0000 
     81 DU        -25.9400   79.6200   91.6600 H         5 CUB7        0.0000 
     82 DU        -27.6600   80.7400   92.2200 H         5 CUB7        0.0000 
     83 DU        -24.6900   78.0100   94.7100 H         5 CUB7        0.0000 
     84 DU        -25.3900   79.2100   94.1600 H         5 CUB7        0.0000 
     85 DU        -24.3800   79.3000   93.0600 H         5 CUB7        0.0000 
     86 DU        -26.1000   80.4200   93.6200 H         5 CUB7        0.0000 
     87 DU        -24.5400   80.1000   95.0200 H         5 CUB7        0.0000 
@<TRIPOS>BOND
@<TRIPOS>SUBSTRUCTURE
     1 SER1        1 GROUP   
     2 ALA2       10 GROUP   
     3 LYS4       32 GROUP   
     4 GLY6       34 GROUP   
     5 CUB7       62 GROUP   
@<TRIPOS>SET

