#    Name: 6aa8_1_NAD
#    Modification time : Fri May 22 19:28:51 2020

@<TRIPOS>MOLECULE
6aa8_1_NAD
   44    48     1     0     1
SMALL
NO_CHARGES


@<TRIPOS>ATOM
      1 PA         33.2760   76.2710   74.3000 P.3       1 NAD301      0.0000 
      2 O1A        33.2070   76.3720   75.8110 O.co2     1 NAD301      0.0000 
      3 O2A        33.3030   74.9580   73.5440 O.co2     1 NAD301      0.0000 
      4 O5B        34.5980   77.0850   73.8780 O.3       1 NAD301      0.0000 
      5 C5B        34.8130   78.3820   74.4160 C.3       1 NAD301      0.0000 
      6 C4B        36.2810   78.7410   74.2680 C.3       1 NAD301      0.0000 
      7 O4B        36.4590   80.1490   74.4790 O.3       1 NAD301      0.0000 
      8 C3B        37.1400   77.9990   75.2920 C.3       1 NAD301      0.0000 
      9 O3B        38.1630   77.2480   74.6180 O.3       1 NAD301      0.0000 
     10 C2B        37.6940   79.0870   76.1880 C.3       1 NAD301      0.0000 
     11 O2B        39.0210   78.8200   76.6580 O.3       1 NAD301      0.0000 
     12 C1B        37.6590   80.2690   75.2290 C.3       1 NAD301      0.0000 
     13 N9A        37.7790   81.6070   75.8600 N.pl3     1 NAD301      0.0000 
     14 C8A        37.2590   82.0850   77.0070 C.2       1 NAD301      0.0000 
     15 N7A        37.6450   83.3780   77.1850 N.2       1 NAD301      0.0000 
     16 C5A        38.4250   83.7110   76.1480 C.ar      1 NAD301      0.0000 
     17 C6A        39.1740   84.8820   75.6910 C.ar      1 NAD301      0.0000 
     18 N6A        39.1680   86.0160   76.4110 N.pl3     1 NAD301      0.0000 
     19 N1A        39.8620   84.8020   74.5300 N.ar      1 NAD301      0.0000 
     20 C2A        39.9010   83.6850   73.7970 C.ar      1 NAD301      0.0000 
     21 N3A        39.2300   82.5840   74.1620 N.ar      1 NAD301      0.0000 
     22 C4A        38.5040   82.5440   75.2880 C.ar      1 NAD301      0.0000 
     23 O3         32.0670   77.1650   73.7490 O.3       1 NAD301      0.0000 
     24 PN         31.5090   77.1950   72.2470 P.3       1 NAD301      0.0000 
     25 O1N        30.6020   76.0110   72.0230 O.co2     1 NAD301      0.0000 
     26 O2N        32.6800   77.4240   71.3200 O.co2     1 NAD301      0.0000 
     27 O5D        30.5270   78.4930   72.3140 O.3       1 NAD301      0.0000 
     28 C5D        30.9990   79.8360   72.3900 C.3       1 NAD301      0.0000 
     29 C4D        30.0440   80.8740   71.7690 C.3       1 NAD301      0.0000 
     30 O4D        29.3300   80.3680   70.6260 O.3       1 NAD301      0.0000 
     31 C3D        28.9750   81.3940   72.7250 C.3       1 NAD301      0.0000 
     32 O3D        28.9440   82.8230   72.6340 O.3       1 NAD301      0.0000 
     33 C2D        27.6750   80.7630   72.2370 C.3       1 NAD301      0.0000 
     34 O2D        26.4870   81.5430   72.4510 O.3       1 NAD301      0.0000 
     35 C1D        27.9200   80.6020   70.7510 C.3       1 NAD301      0.0000 
     36 N1N        27.0980   79.5120   70.1880 N.pl3     1 NAD301      0.0000 
     37 C2N        27.4450   78.2240   70.3950 C.ar      1 NAD301      0.0000 
     38 C3N        26.6830   77.1670   69.8750 C.ar      1 NAD301      0.0000 
     39 C7N        27.0790   75.7190   70.0860 C.2       1 NAD301      0.0000 
     40 O7N        26.4720   74.8700   69.4620 O.2       1 NAD301      0.0000 
     41 N7N        28.0720   75.3540   70.9060 N.am      1 NAD301      0.0000 
     42 C4N        25.5380   77.4710   69.1250 C.ar      1 NAD301      0.0000 
     43 C5N        25.1890   78.8040   68.9250 C.ar      1 NAD301      0.0000 
     44 C6N        25.9910   79.8150   69.4710 C.ar      1 NAD301      0.0000 
@<TRIPOS>BOND
     1    1    2 ar   
     2    1    3 ar   
     3    1    4 1    
     4    1   23 1    
     5    4    5 1    
     6    5    6 1    
     7    6    7 1    
     8    6    8 1    
     9    7   12 1    
    10    8    9 1    
    11    8   10 1    
    12   10   11 1    
    13   10   12 1    
    14   12   13 1    
    15   13   14 1    
    16   13   22 1    
    17   14   15 2    
    18   15   16 1    
    19   16   17 ar   
    20   16   22 ar   
    21   17   18 1    
    22   17   19 ar   
    23   19   20 ar   
    24   20   21 ar   
    25   21   22 ar   
    26   23   24 1    
    27   24   25 ar   
    28   24   26 ar   
    29   24   27 1    
    30   27   28 1    
    31   28   29 1    
    32   29   30 1    
    33   29   31 1    
    34   30   35 1    
    35   31   32 1    
    36   31   33 1    
    37   33   34 1    
    38   33   35 1    
    39   35   36 1    
    40   36   37 ar   
    41   36   44 ar   
    42   37   38 ar   
    43   38   39 1    
    44   38   42 ar   
    45   39   40 2    
    46   39   41 am   
    47   42   43 ar   
    48   43   44 ar   
@<TRIPOS>SUBSTRUCTURE
     1 NAD301      1 GROUP   
@<TRIPOS>SET
ATOM$ORANGE STATIC     ATOMS   COLORGROUP SYSTEM 
42 5 5 6 6 8 8 10 10 12 12 14 14 16 16 17 17 20 \
20 22 22 28 28 29 29 31 31 33 33 35 35 37 37 38 38 39 \
39 42 42 43 43 44 44 

