#    Name: 6aa8_2_NAD
#    Modification time : Fri May 22 19:28:57 2020

@<TRIPOS>MOLECULE
6aa8_2_NAD
   44    48     1     0     1
SMALL
NO_CHARGES


@<TRIPOS>ATOM
      1 PA        -34.7700   78.5210   88.6010 P.3       1 NAD301      0.0000 
      2 O1A       -34.5900   78.1850   87.1490 O.co2     1 NAD301      0.0000 
      3 O2A       -34.8630   77.5100   89.7280 O.co2     1 NAD301      0.0000 
      4 O5B       -36.1320   79.3920   88.6830 O.3       1 NAD301      0.0000 
      5 C5B       -36.4100   80.4090   87.7370 C.3       1 NAD301      0.0000 
      6 C4B       -37.9050   80.6870   87.7830 C.3       1 NAD301      0.0000 
      7 O4B       -38.1670   81.9620   87.1900 O.3       1 NAD301      0.0000 
      8 C3B       -38.7480   79.6600   87.0380 C.3       1 NAD301      0.0000 
      9 O3B       -39.7440   79.1550   87.9360 O.3       1 NAD301      0.0000 
     10 C2B       -39.3910   80.4380   85.8970 C.3       1 NAD301      0.0000 
     11 O2B       -40.7190   80.0040   85.5860 O.3       1 NAD301      0.0000 
     12 C1B       -39.3870   81.8630   86.4560 C.3       1 NAD301      0.0000 
     13 N9A       -39.5050   82.9410   85.4420 N.pl3     1 NAD301      0.0000 
     14 C8A       -38.9890   82.9960   84.1830 C.2       1 NAD301      0.0000 
     15 N7A       -39.3450   84.1660   83.5970 N.2       1 NAD301      0.0000 
     16 C5A       -40.0980   84.8690   84.4550 C.ar      1 NAD301      0.0000 
     17 C6A       -40.7940   86.1710   84.4740 C.ar      1 NAD301      0.0000 
     18 N6A       -40.7900   87.0200   83.4260 N.pl3     1 NAD301      0.0000 
     19 N1A       -41.4620   86.4970   85.5860 N.ar      1 NAD301      0.0000 
     20 C2A       -41.5080   85.6950   86.6640 C.ar      1 NAD301      0.0000 
     21 N3A       -40.8940   84.5110   86.7190 N.ar      1 NAD301      0.0000 
     22 C4A       -40.2000   84.0510   85.6650 C.ar      1 NAD301      0.0000 
     23 O3        -33.6160   79.5990   88.9660 O.3       1 NAD301      0.0000 
     24 PN        -33.0940   79.8960   90.4610 P.3       1 NAD301      0.0000 
     25 O1N       -31.8010   79.1590   90.7000 O.co2     1 NAD301      0.0000 
     26 O2N       -34.2150   79.8640   91.4810 O.co2     1 NAD301      0.0000 
     27 O5D       -32.7280   81.4500   90.3540 O.3       1 NAD301      0.0000 
     28 C5D       -31.8320   81.8990   89.3760 C.3       1 NAD301      0.0000 
     29 C4D       -31.5260   83.3530   89.6780 C.3       1 NAD301      0.0000 
     30 O4D       -31.0010   83.5220   91.0000 O.3       1 NAD301      0.0000 
     31 C3D       -30.4500   83.7700   88.7130 C.3       1 NAD301      0.0000 
     32 O3D       -30.6570   85.1620   88.4300 O.3       1 NAD301      0.0000 
     33 C2D       -29.1750   83.4510   89.4880 C.3       1 NAD301      0.0000 
     34 O2D       -28.0700   84.2670   89.0710 O.3       1 NAD301      0.0000 
     35 C1D       -29.5740   83.7120   90.9420 C.3       1 NAD301      0.0000 
     36 N1N       -28.8600   82.8970   91.9580 N.pl3     1 NAD301      0.0000 
     37 C2N       -29.0130   81.5570   91.9650 C.ar      1 NAD301      0.0000 
     38 C3N       -28.3690   80.7440   92.9120 C.ar      1 NAD301      0.0000 
     39 C7N       -28.5710   79.2570   92.9000 C.2       1 NAD301      0.0000 
     40 O7N       -27.9530   78.5790   93.7010 O.2       1 NAD301      0.0000 
     41 N7N       -29.4360   78.6940   92.0460 N.am      1 NAD301      0.0000 
     42 C4N       -27.5440   81.3340   93.8820 C.ar      1 NAD301      0.0000 
     43 C5N       -27.3990   82.7220   93.8720 C.ar      1 NAD301      0.0000 
     44 C6N       -28.0690   83.4850   92.8980 C.ar      1 NAD301      0.0000 
@<TRIPOS>BOND
     1    1    2 ar   
     2    1    3 ar   
     3    1    4 1    
     4    1   23 1    
     5    4    5 1    
     6    5    6 1    
     7    6    7 1    
     8    6    8 1    
     9    7   12 1    
    10    8    9 1    
    11    8   10 1    
    12   10   11 1    
    13   10   12 1    
    14   12   13 1    
    15   13   14 1    
    16   13   22 1    
    17   14   15 2    
    18   15   16 1    
    19   16   17 ar   
    20   16   22 ar   
    21   17   18 1    
    22   17   19 ar   
    23   19   20 ar   
    24   20   21 ar   
    25   21   22 ar   
    26   23   24 1    
    27   24   25 ar   
    28   24   26 ar   
    29   24   27 1    
    30   27   28 1    
    31   28   29 1    
    32   29   30 1    
    33   29   31 1    
    34   30   35 1    
    35   31   32 1    
    36   31   33 1    
    37   33   34 1    
    38   33   35 1    
    39   35   36 1    
    40   36   37 ar   
    41   36   44 ar   
    42   37   38 ar   
    43   38   39 1    
    44   38   42 ar   
    45   39   40 2    
    46   39   41 am   
    47   42   43 ar   
    48   43   44 ar   
@<TRIPOS>SUBSTRUCTURE
     1 NAD301      1 GROUP   
@<TRIPOS>SET
ATOM$ORANGE STATIC     ATOMS   COLORGROUP SYSTEM 
42 5 5 6 6 8 8 10 10 12 12 14 14 16 16 17 17 20 \
20 22 22 28 28 29 29 31 31 33 33 35 35 37 37 38 38 39 \
39 42 42 43 43 44 44 

