#    Name: 6hl1_1_JN3
#    Modification time : Fri May 22 19:26:59 2020

@<TRIPOS>MOLECULE
6hl1_1_JN3
   28    31     1     0     0
SMALL
NO_CHARGES


@<TRIPOS>ATOM
      1 C1         12.0250   -9.8790   10.9080 C.3       1 JN3501      0.0000 
      2 C2         11.4370   -9.1730   12.1520 C.3       1 JN3501      0.0000 
      3 C3         12.6080   -8.7010   13.0060 C.3       1 JN3501      0.0000 
      4 O3         12.1480   -7.8850   14.1170 O.3       1 JN3501      0.0000 
      5 C4         13.3750   -9.9250   13.5120 C.3       1 JN3501      0.0000 
      6 C5         13.9660  -10.6960   12.3080 C.3       1 JN3501      0.0000 
      7 C6         14.8190  -11.9240   12.7250 C.3       1 JN3501      0.0000 
      8 C7         14.0000  -13.1040   13.2420 C.3       1 JN3501      0.0000 
      9 O7         13.4680  -12.7750   14.5490 O.3       1 JN3501      0.0000 
     10 C8         12.8610  -13.4480   12.2470 C.3       1 JN3501      0.0000 
     11 C9         11.9820  -12.2150   11.9640 C.3       1 JN3501      0.0000 
     12 C10        12.8530  -11.1120   11.3180 C.3       1 JN3501      0.0000 
     13 C11        10.8110  -12.6210   11.0390 C.3       1 JN3501      0.0000 
     14 C12        10.0030  -13.8240   11.6050 C.3       1 JN3501      0.0000 
     15 C13        10.9090  -15.0280   11.8860 C.3       1 JN3501      0.0000 
     16 C14        11.9870  -14.5750   12.8290 C.3       1 JN3501      0.0000 
     17 C15        12.7170  -15.8750   13.0530 C.3       1 JN3501      0.0000 
     18 C16        11.5810  -16.8810   13.2850 C.3       1 JN3501      0.0000 
     19 C17        10.3090  -16.1310   12.7990 C.3       1 JN3501      0.0000 
     20 C18        11.4880  -15.6280   10.5880 C.3       1 JN3501      0.0000 
     21 C19        13.5070  -11.6690   10.0350 C.3       1 JN3501      0.0000 
     22 C20         9.3690  -17.1590   12.1430 C.3       1 JN3501      0.0000 
     23 C21         8.0980  -16.5440   11.5270 C.3       1 JN3501      0.0000 
     24 C22         8.9280  -18.1900   13.2060 C.3       1 JN3501      0.0000 
     25 C23         8.3480  -19.4010   12.4680 C.3       1 JN3501      0.0000 
     26 O25         8.4360  -21.5920   13.3460 O.co2     1 JN3501      0.0000 
     27 C24         7.8560  -20.4890   13.4110 C.2       1 JN3501      0.0000 
     28 O26         6.8880  -20.2140   14.1430 O.co2     1 JN3501      0.0000 
@<TRIPOS>BOND
     1    1    2 1    
     2    1   12 1    
     3    2    3 1    
     4    3    4 1    
     5    3    5 1    
     6    5    6 1    
     7    6    7 1    
     8    6   12 1    
     9    7    8 1    
    10    8    9 1    
    11    8   10 1    
    12   10   11 1    
    13   10   16 1    
    14   11   12 1    
    15   11   13 1    
    16   12   21 1    
    17   13   14 1    
    18   14   15 1    
    19   15   16 1    
    20   15   19 1    
    21   15   20 1    
    22   16   17 1    
    23   17   18 1    
    24   18   19 1    
    25   19   22 1    
    26   22   23 1    
    27   22   24 1    
    28   24   25 1    
    29   25   27 1    
    30   26   27 ar   
    31   27   28 ar   
@<TRIPOS>SUBSTRUCTURE
     1 JN3501      1 GROUP   
@<TRIPOS>SET

