#    Name: 6erh_1_LYS_PRO_ARG_GLY_LEU_PHE_SER
#    Modification time : Fri May 22 19:35:41 2020

@<TRIPOS>MOLECULE
6erh_1_LYS_PRO_ARG_GLY_LEU_PHE_SER
   56    57     7     0     0
SMALL
NO_CHARGES


@<TRIPOS>ATOM
      1 N         -27.1600    7.1370  100.2800 N.4       1 LYS30       0.0000 
      2 CA        -26.1080    6.1780   99.9430 C.3       1 LYS30       0.0000 
      3 C         -26.7060    5.0100   99.1270 C.2       1 LYS30       0.0000 
      4 O         -27.7960    4.5660   99.5060 O.2       1 LYS30       0.0000 
      5 CB        -25.4540    5.6360  101.2350 C.3       1 LYS30       0.0000 
      6 CG        -24.1580    4.8470  101.0160 C.3       1 LYS30       0.0000 
      7 CD        -23.9350    3.7540  102.0600 C.3       1 LYS30       0.0000 
      8 CE        -22.7260    2.9170  101.7060 C.3       1 LYS30       0.0000 
      9 NZ        -22.3860    1.9350  102.7710 N.4       1 LYS30       0.0000 
     10 N         -26.0120    4.4710   98.0670 N.am      2 PRO31       0.0000 
     11 CA        -26.5770    3.3290   97.3060 C.3       2 PRO31       0.0000 
     12 C         -27.2490    2.2690   98.1740 C.2       2 PRO31       0.0000 
     13 O         -26.6880    1.8130   99.1780 O.2       2 PRO31       0.0000 
     14 CB        -25.3730    2.7700   96.5420 C.3       2 PRO31       0.0000 
     15 CG        -24.4940    3.9370   96.3390 C.3       2 PRO31       0.0000 
     16 CD        -24.7190    4.9030   97.4840 C.3       2 PRO31       0.0000 
     17 N         -28.4830    1.9180   97.7930 N.am      3 ARG32       0.0000 
     18 CA        -29.3290    0.9930   98.5320 C.3       3 ARG32       0.0000 
     19 C         -29.7350   -0.2420   97.7060 C.2       3 ARG32       0.0000 
     20 O         -29.6630   -0.2250   96.4710 O.2       3 ARG32       0.0000 
     21 CB        -30.5720    1.7620   99.0280 C.3       3 ARG32       0.0000 
     22 CG        -31.1760    1.2340  100.3220 C.3       3 ARG32       0.0000 
     23 CD        -32.3150    2.0910  100.8970 C.3       3 ARG32       0.0000 
     24 NE        -33.3560    2.5330   99.9480 N.pl3     3 ARG32       0.0000 
     25 CZ        -34.1920    1.7320   99.2830 C.cat     3 ARG32       0.0000 
     26 NH1       -34.0760    0.4170   99.3610 N.pl3     3 ARG32       0.0000 
     27 NH2       -35.1160    2.2540   98.4860 N.pl3     3 ARG32       0.0000 
     28 N         -30.1250   -1.2980   98.4210 N.am      4 GLY33       0.0000 
     29 CA        -30.6280   -2.5620   97.8980 C.3       4 GLY33       0.0000 
     30 C         -29.7200   -3.3750   97.0090 C.2       4 GLY33       0.0000 
     31 O         -28.7040   -3.9160   97.4550 O.2       4 GLY33       0.0000 
     32 N         -30.1310   -3.5060   95.7440 N.am      5 LEU34       0.0000 
     33 CA        -29.4480   -4.2630   94.6980 C.3       5 LEU34       0.0000 
     34 C         -28.0630   -3.6980   94.4260 C.2       5 LEU34       0.0000 
     35 O         -27.1380   -4.4480   94.1110 O.2       5 LEU34       0.0000 
     36 CB        -30.2960   -4.2280   93.4140 C.3       5 LEU34       0.0000 
     37 CG        -29.9990   -5.2800   92.3690 C.3       5 LEU34       0.0000 
     38 CD1       -30.8590   -6.4940   92.5660 C.3       5 LEU34       0.0000 
     39 CD2       -30.2240   -4.7320   90.9960 C.3       5 LEU34       0.0000 
     40 N         -27.9190   -2.3830   94.5650 N.am      6 PHE35       0.0000 
     41 CA        -26.6590   -1.7050   94.3050 C.3       6 PHE35       0.0000 
     42 C         -25.6840   -1.7820   95.4960 C.2       6 PHE35       0.0000 
     43 O         -24.4850   -1.9310   95.2730 O.2       6 PHE35       0.0000 
     44 CB        -26.9220   -0.2670   93.8270 C.3       6 PHE35       0.0000 
     45 CG        -27.8610   -0.2140   92.6360 C.ar      6 PHE35       0.0000 
     46 CD1       -27.4170   -0.5520   91.3630 C.ar      6 PHE35       0.0000 
     47 CD2       -29.1920    0.1460   92.7950 C.ar      6 PHE35       0.0000 
     48 CE1       -28.2880   -0.5390   90.2750 C.ar      6 PHE35       0.0000 
     49 CE2       -30.0600    0.1680   91.7000 C.ar      6 PHE35       0.0000 
     50 CZ        -29.6010   -0.1680   90.4470 C.ar      6 PHE35       0.0000 
     51 N         -26.2000   -1.7620   96.7430 N.am      7 SER36       0.0000 
     52 CA        -25.4200   -1.8550   97.9840 C.3       7 SER36       0.0000 
     53 C         -24.5270   -3.1090   98.0500 C.2       7 SER36       0.0000 
     54 O         -24.9970   -4.2500   98.0510 O.2       7 SER36       0.0000 
     55 CB        -26.3340   -1.7790   99.2070 C.3       7 SER36       0.0000 
     56 OG        -27.0490   -2.9890   99.4150 O.3       7 SER36       0.0000 
@<TRIPOS>BOND
     1    1    2 1    
     2    2    3 1    
     3    2    5 1    
     4    3    4 2    
     5    3   10 am   
     6    5    6 1    
     7    6    7 1    
     8    7    8 1    
     9    8    9 1    
    10   10   11 1    
    11   10   16 1    
    12   11   12 1    
    13   11   14 1    
    14   12   13 2    
    15   12   17 am   
    16   14   15 1    
    17   15   16 1    
    18   17   18 1    
    19   18   19 1    
    20   18   21 1    
    21   19   20 2    
    22   19   28 am   
    23   21   22 1    
    24   22   23 1    
    25   23   24 1    
    26   24   25 ar   
    27   25   26 ar   
    28   25   27 ar   
    29   28   29 1    
    30   29   30 1    
    31   30   31 2    
    32   30   32 am   
    33   32   33 1    
    34   33   34 1    
    35   33   36 1    
    36   34   35 2    
    37   34   40 am   
    38   36   37 1    
    39   37   38 1    
    40   37   39 1    
    41   40   41 1    
    42   41   42 1    
    43   41   44 1    
    44   42   43 2    
    45   42   51 am   
    46   44   45 1    
    47   45   46 ar   
    48   45   47 ar   
    49   46   48 ar   
    50   47   49 ar   
    51   48   50 ar   
    52   49   50 ar   
    53   51   52 1    
    54   52   53 1    
    55   52   55 1    
    56   53   54 2    
    57   55   56 1    
@<TRIPOS>SUBSTRUCTURE
     1 LYS30       1 RESIDUE 
     2 PRO31      10 RESIDUE 
     3 ARG32      17 RESIDUE 
     4 GLY33      28 RESIDUE 
     5 LEU34      32 RESIDUE 
     6 PHE35      40 RESIDUE 
     7 SER36      51 RESIDUE 
@<TRIPOS>SET

