#    Name: 6jcj_3_GTP_CAVITY_N1_12
#    Modification time : Fri May 22 19:30:09 2020

@<TRIPOS>MOLECULE
6jcj_3_GTP_CAVITY_N1_12
   73     0     6     0     0
SMALL
NO_CHARGES


@<TRIPOS>ATOM
      1 OG         -4.2200  -22.7600  -20.0300 O.3       1 SER1        0.0000 
      2 OG        -10.0300  -15.2700  -16.6700 O.3       1 SER1        0.0000 
      3 OG         -8.5900  -15.6900  -16.5900 O.3       1 SER1        0.0000 
      4 OG         -7.1600  -16.1200  -16.5000 O.3       1 SER1        0.0000 
      5 OG         -7.0200  -15.3900  -15.2000 O.3       1 SER1        0.0000 
      6 O          -5.3800  -20.9000  -17.5000 O.2       2 ALA2        0.0000 
      7 O          -6.2000  -13.8200  -21.3100 O.2       2 ALA2        0.0000 
      8 O          -4.8300  -18.9300  -16.9200 O.2       2 ALA2        0.0000 
      9 N          -9.7600  -14.7400  -18.7100 N.am      2 ALA2        0.0000 
     10 N          -5.9300  -12.3800  -18.6900 N.am      2 ALA2        0.0000 
     11 N          -5.7900  -11.6600  -17.3800 N.am      2 ALA2        0.0000 
     12 N          -6.4700  -13.4300  -14.6200 N.am      2 ALA2        0.0000 
     13 OD1        -4.4200  -17.6900  -17.6500 O.co2     3 ASP3        0.0000 
     14 OD1        -2.9900  -18.1100  -17.5600 O.co2     3 ASP3        0.0000 
     15 OD1        -4.0100  -16.4400  -18.3800 O.co2     3 ASP3        0.0000 
     16 OD1        -2.5800  -16.8700  -18.2900 O.co2     3 ASP3        0.0000 
     17 OD1        -4.7000  -18.2100  -15.6100 O.co2     3 ASP3        0.0000 
     18 OD1        -5.7200  -16.5400  -16.4200 O.co2     3 ASP3        0.0000 
     19 OD1        -9.6200  -14.0200  -17.4000 O.co2     3 ASP3        0.0000 
     20 OD1        -8.1800  -14.4500  -17.3200 O.co2     3 ASP3        0.0000 
     21 OD1        -5.3100  -15.2900  -17.1500 O.co2     3 ASP3        0.0000 
     22 OD1        -7.7700  -13.2000  -18.0400 O.co2     3 ASP3        0.0000 
     23 OD1        -4.9000  -14.0500  -17.8800 O.co2     3 ASP3        0.0000 
     24 OD1        -3.4700  -14.4700  -17.8000 O.co2     3 ASP3        0.0000 
     25 OD1        -4.4900  -12.8000  -18.6100 O.co2     3 ASP3        0.0000 
     26 OD1        -8.0500  -13.7200  -16.0100 O.co2     3 ASP3        0.0000 
     27 OD1        -6.6100  -14.1500  -15.9200 O.co2     3 ASP3        0.0000 
     28 OD1        -6.2000  -12.9000  -16.6500 O.co2     3 ASP3        0.0000 
     29 OD1        -4.3500  -12.0800  -17.3000 O.co2     3 ASP3        0.0000 
     30 CZ         -6.4100  -19.2300  -18.3100 C.ar      4 PHE5        0.0000 
     31 CZ         -4.9700  -19.6500  -18.2300 C.ar      4 PHE5        0.0000 
     32 CZ         -6.2700  -18.5100  -17.0000 C.ar      4 PHE5        0.0000 
     33 CZ         -8.7300  -16.4100  -17.8900 C.ar      4 PHE5        0.0000 
     34 CZ         -7.3000  -16.8400  -17.8100 C.ar      4 PHE5        0.0000 
     35 CZ         -5.8600  -17.2600  -17.7300 C.ar      4 PHE5        0.0000 
     36 CZ         -6.1300  -17.7800  -15.6900 C.ar      4 PHE5        0.0000 
     37 CA         -2.7800  -23.1900  -19.9500 C.3       5 GLY6        0.0000 
     38 CA         -3.8100  -21.5200  -20.7600 C.3       5 GLY6        0.0000 
     39 CA         -5.5200  -21.6200  -18.8000 C.3       5 GLY6        0.0000 
     40 CA         -4.0800  -22.0400  -18.7200 C.3       5 GLY6        0.0000 
     41 CA         -6.5500  -19.9500  -19.6200 C.3       5 GLY6        0.0000 
     42 CA         -5.1100  -20.3700  -19.5300 C.3       5 GLY6        0.0000 
     43 CA         -3.6700  -20.8000  -19.4500 C.3       5 GLY6        0.0000 
     44 CA         -3.5400  -20.0800  -18.1400 C.3       5 GLY6        0.0000 
     45 CA         -6.0000  -17.9800  -19.0400 C.3       5 GLY6        0.0000 
     46 CA         -4.5600  -18.4100  -18.9500 C.3       5 GLY6        0.0000 
     47 CA         -3.1200  -18.8300  -18.8700 C.3       5 GLY6        0.0000 
     48 CA         -5.5900  -16.7400  -19.7700 C.3       5 GLY6        0.0000 
     49 CA         -4.1500  -17.1600  -19.6800 C.3       5 GLY6        0.0000 
     50 CA         -2.7100  -17.5900  -19.6000 C.3       5 GLY6        0.0000 
     51 CA         -6.6100  -15.0700  -20.5800 C.3       5 GLY6        0.0000 
     52 CA         -5.1800  -15.4900  -20.5000 C.3       5 GLY6        0.0000 
     53 CA         -3.7400  -15.9200  -20.4100 C.3       5 GLY6        0.0000 
     54 CA         -2.3000  -16.3400  -20.3300 C.3       5 GLY6        0.0000 
     55 CA         -3.3300  -14.6700  -21.1400 C.3       5 GLY6        0.0000 
     56 CA         -8.3200  -15.1700  -18.6200 C.3       5 GLY6        0.0000 
     57 CA         -6.8900  -15.5900  -18.5400 C.3       5 GLY6        0.0000 
     58 CA         -9.3500  -13.5000  -19.4400 C.3       5 GLY6        0.0000 
     59 CA         -7.9100  -13.9200  -19.3500 C.3       5 GLY6        0.0000 
     60 CA         -3.6000  -15.2000  -19.1000 C.3       5 GLY6        0.0000 
     61 CA         -7.5000  -12.6800  -20.0800 C.3       5 GLY6        0.0000 
     62 CA         -3.1900  -13.9500  -19.8300 C.3       5 GLY6        0.0000 
     63 CA         -7.3600  -11.9600  -18.7700 C.3       5 GLY6        0.0000 
     64 CA         -3.0600  -13.2300  -18.5300 C.3       5 GLY6        0.0000 
     65 CA         -5.5800  -15.8200  -15.1100 C.3       5 GLY6        0.0000 
     66 DU         -4.7700  -14.2500  -21.2200 H         6 CUB7        0.0000 
     67 DU         -5.4500  -16.0200  -18.4600 H         6 CUB7        0.0000 
     68 DU         -6.4800  -14.3500  -19.2700 H         6 CUB7        0.0000 
     69 DU         -5.0400  -14.7700  -19.1900 H         6 CUB7        0.0000 
     70 DU         -6.0700  -13.1000  -20.0000 H         6 CUB7        0.0000 
     71 DU         -4.6300  -13.5300  -19.9200 H         6 CUB7        0.0000 
     72 DU         -6.7500  -14.8700  -17.2300 H         6 CUB7        0.0000 
     73 DU         -6.3400  -13.6300  -17.9600 H         6 CUB7        0.0000 
@<TRIPOS>BOND
@<TRIPOS>SUBSTRUCTURE
     1 SER1        1 GROUP   
     2 ALA2        6 GROUP   
     3 ASP3       13 GROUP   
     4 PHE5       30 GROUP   
     5 GLY6       37 GROUP   
     6 CUB7       66 GROUP   
@<TRIPOS>SET

