#    Name: 6jcj_3_GTP
#    Modification time : Fri May 22 19:30:06 2020

@<TRIPOS>MOLECULE
6jcj_3_GTP
   32    34     1     0     1
SMALL
NO_CHARGES


@<TRIPOS>ATOM
      1 PG        -19.9380  -18.2280  -16.6230 P.3       1 GTP501      0.0000 
      2 O1G       -18.8000  -18.4150  -17.5740 O.co2     1 GTP501      0.0000 
      3 O2G       -21.2250  -18.8020  -17.1530 O.co2     1 GTP501      0.0000 
      4 O3G       -20.0910  -16.8270  -16.0970 O.co2     1 GTP501      0.0000 
      5 O3B       -19.5670  -19.1260  -15.3330 O.3       1 GTP501      0.0000 
      6 PB        -18.4670  -20.2630  -15.1480 P.3       1 GTP501      0.0000 
      7 O1B       -18.1950  -20.9580  -16.4470 O.co2     1 GTP501      0.0000 
      8 O2B       -18.8160  -21.1190  -13.9500 O.co2     1 GTP501      0.0000 
      9 O3A       -17.2100  -19.3440  -14.7890 O.3       1 GTP501      0.0000 
     10 PA        -15.7570  -19.6720  -14.1890 P.3       1 GTP501      0.0000 
     11 O1A       -14.7150  -19.4870  -15.2250 O.co2     1 GTP501      0.0000 
     12 O2A       -15.6980  -20.9760  -13.4550 O.co2     1 GTP501      0.0000 
     13 O5'       -15.7220  -18.4810  -13.1220 O.3       1 GTP501      0.0000 
     14 C5'       -14.5840  -17.6090  -13.0410 C.3       1 GTP501      0.0000 
     15 C4'       -13.8290  -17.8660  -11.7650 C.3       1 GTP501      0.0000 
     16 O4'       -13.2960  -19.2160  -11.7810 O.3       1 GTP501      0.0000 
     17 C3'       -12.5960  -16.9840  -11.5380 C.3       1 GTP501      0.0000 
     18 O3'       -12.3060  -16.9090  -10.1500 O.3       1 GTP501      0.0000 
     19 C2'       -11.5310  -17.7700  -12.3070 C.3       1 GTP501      0.0000 
     20 O2'       -10.2200  -17.4310  -11.9280 O.3       1 GTP501      0.0000 
     21 C1'       -11.8820  -19.1860  -11.8740 C.3       1 GTP501      0.0000 
     22 N9        -11.4380  -20.2570  -12.7660 N.pl3     1 GTP501      0.0000 
     23 C8        -11.8800  -20.5420  -14.0340 C.2       1 GTP501      0.0000 
     24 N7        -11.3400  -21.6270  -14.5480 N.2       1 GTP501      0.0000 
     25 C5        -10.4980  -22.0890  -13.5450 C.2       1 GTP501      0.0000 
     26 C6         -9.6580  -23.2300  -13.5130 C.2       1 GTP501      0.0000 
     27 O6         -9.5050  -24.1020  -14.3920 O.2       1 GTP501      0.0000 
     28 N1         -9.0020  -23.3380  -12.2870 N.am      1 GTP501      0.0000 
     29 C2         -9.1020  -22.4530  -11.2460 C.2       1 GTP501      0.0000 
     30 N2         -8.3630  -22.7060  -10.1510 N.pl3     1 GTP501      0.0000 
     31 N3         -9.9050  -21.3920  -11.2710 N.2       1 GTP501      0.0000 
     32 C4        -10.5640  -21.2680  -12.4450 C.2       1 GTP501      0.0000 
@<TRIPOS>BOND
     1    1    2 ar   
     2    1    3 ar   
     3    1    4 ar   
     4    1    5 1    
     5    5    6 1    
     6    6    7 ar   
     7    6    8 ar   
     8    6    9 1    
     9    9   10 1    
    10   10   11 ar   
    11   10   12 ar   
    12   10   13 1    
    13   13   14 1    
    14   14   15 1    
    15   15   16 1    
    16   15   17 1    
    17   16   21 1    
    18   17   18 1    
    19   17   19 1    
    20   19   20 1    
    21   19   21 1    
    22   21   22 1    
    23   22   23 1    
    24   22   32 1    
    25   23   24 2    
    26   24   25 1    
    27   25   26 1    
    28   25   32 2    
    29   26   27 2    
    30   26   28 am   
    31   28   29 1    
    32   29   30 1    
    33   29   31 2    
    34   31   32 1    
@<TRIPOS>SUBSTRUCTURE
     1 GTP501      1 GROUP   
@<TRIPOS>SET
ATOM$ORANGE STATIC     ATOMS   COLORGROUP SYSTEM 
20 14 14 15 15 17 17 19 19 21 21 23 23 25 25 26 26 29 \
29 32 32 

