#    Name: 6jcj_1_GTP_CAVITY_N1_8
#    Modification time : Fri May 22 19:29:52 2020

@<TRIPOS>MOLECULE
6jcj_1_GTP_CAVITY_N1_8
   84     0     6     0     0
SMALL
NO_CHARGES


@<TRIPOS>ATOM
      1 OG        -20.6100  -75.7100   46.9800 O.3       1 SER1        0.0000 
      2 OG        -19.1800  -76.1300   47.0600 O.3       1 SER1        0.0000 
      3 OG        -18.7700  -74.8900   46.3300 O.3       1 SER1        0.0000 
      4 OG        -22.3200  -75.8100   48.9400 O.3       1 SER1        0.0000 
      5 OG        -20.8900  -76.2300   49.0200 O.3       1 SER1        0.0000 
      6 OG        -19.4500  -76.6600   49.1000 O.3       1 SER1        0.0000 
      7 OG        -21.9100  -74.5600   48.2100 O.3       1 SER1        0.0000 
      8 OG        -17.1900  -74.5900   47.7300 O.3       1 SER1        0.0000 
      9 OG        -22.6000  -76.3300   50.9700 O.3       1 SER1        0.0000 
     10 OG        -19.7200  -77.1800   51.1400 O.3       1 SER1        0.0000 
     11 OG        -22.1900  -75.0900   50.2400 O.3       1 SER1        0.0000 
     12 OG        -20.7500  -75.5100   50.3300 O.3       1 SER1        0.0000 
     13 OG        -19.5900  -76.4600   52.4500 O.3       1 SER1        0.0000 
     14 OG        -20.6100  -74.7900   51.6300 O.3       1 SER1        0.0000 
     15 OG        -19.1800  -75.2100   51.7200 O.3       1 SER1        0.0000 
     16 N         -19.5200  -83.1700   44.1000 N.am      2 ALA2        0.0000 
     17 N         -18.0900  -83.6000   44.1800 N.am      2 ALA2        0.0000 
     18 O         -16.6500  -84.0200   44.2700 O.2       2 ALA2        0.0000 
     19 N         -19.1100  -81.9300   43.3700 N.am      2 ALA2        0.0000 
     20 O         -17.6800  -82.3500   43.4600 O.2       2 ALA2        0.0000 
     21 N         -21.5700  -79.8300   42.4800 N.am      2 ALA2        0.0000 
     22 N         -20.1400  -80.2600   42.5600 N.am      2 ALA2        0.0000 
     23 N         -21.1600  -78.5900   41.7500 N.am      2 ALA2        0.0000 
     24 N         -20.7500  -77.3400   41.0200 N.am      2 ALA2        0.0000 
     25 N         -18.9700  -81.2100   44.6800 N.am      2 ALA2        0.0000 
     26 O         -17.5400  -81.6300   44.7600 O.2       2 ALA2        0.0000 
     27 N         -18.5600  -79.9600   43.9500 N.am      2 ALA2        0.0000 
     28 N         -21.0300  -77.8700   43.0600 N.am      2 ALA2        0.0000 
     29 N         -19.5900  -78.2900   43.1400 N.am      2 ALA2        0.0000 
     30 O         -18.1500  -78.7200   43.2200 O.2       2 ALA2        0.0000 
     31 N         -20.6200  -76.6200   42.3300 N.am      2 ALA2        0.0000 
     32 N         -19.1800  -77.0500   42.4100 N.am      2 ALA2        0.0000 
     33 N         -17.7400  -77.4700   42.4900 N.am      2 ALA2        0.0000 
     34 N         -18.4300  -79.2400   45.2600 N.am      2 ALA2        0.0000 
     35 O         -16.9900  -79.6700   45.3400 O.2       2 ALA2        0.0000 
     36 N         -19.4500  -77.5700   44.4500 N.am      2 ALA2        0.0000 
     37 N         -18.0200  -78.0000   44.5300 N.am      2 ALA2        0.0000 
     38 N         -20.4800  -75.9000   43.6400 N.am      2 ALA2        0.0000 
     39 N         -19.0400  -76.3300   43.7200 N.am      2 ALA2        0.0000 
     40 N         -20.7500  -76.4300   45.6700 N.am      2 ALA2        0.0000 
     41 O         -19.3200  -76.8500   45.7600 O.2       2 ALA2        0.0000 
     42 N         -17.8800  -77.2800   45.8400 N.am      2 ALA2        0.0000 
     43 N         -16.4400  -77.7000   45.9200 N.am      2 ALA2        0.0000 
     44 N         -18.9000  -75.6100   45.0300 N.am      2 ALA2        0.0000 
     45 N         -19.9300  -73.9400   44.2100 N.am      2 ALA2        0.0000 
     46 N         -18.4900  -74.3600   44.3000 N.am      2 ALA2        0.0000 
     47 N         -17.3300  -75.3100   46.4200 N.am      2 ALA2        0.0000 
     48 N         -16.9200  -74.0700   45.6900 N.am      2 ALA2        0.0000 
     49 O         -21.7100  -78.7200   50.4800 O.2       2 ALA2        0.0000 
     50 O         -21.3000  -77.4800   49.7500 O.2       2 ALA2        0.0000 
     51 O         -19.8600  -77.9000   49.8300 O.2       2 ALA2        0.0000 
     52 N         -16.7800  -73.3500   47.0000 N.am      2 ALA2        0.0000 
     53 N         -19.5200  -81.3400   53.4100 N.am      2 ALA2        0.0000 
     54 O         -23.6200  -74.6600   50.1600 O.2       2 ALA2        0.0000 
     55 O         -20.0000  -77.7000   53.1800 O.2       2 ALA2        0.0000 
     56 O         -20.8800  -75.3100   53.6700 O.2       2 ALA2        0.0000 
     57 O         -19.4500  -75.7400   53.7600 O.2       2 ALA2        0.0000 
     58 OD1       -21.9100  -75.4800   43.5500 O.co2     3 ASP3        0.0000 
     59 OD1       -25.3300  -75.6800   47.4600 O.co2     3 ASP3        0.0000 
     60 NZ        -22.0500  -74.3600   51.5500 N.4       4 LYS4        0.0000 
     61 NZ        -20.4700  -74.0700   52.9400 N.4       4 LYS4        0.0000 
     62 CZ        -17.7400  -76.5600   47.1500 C.ar      5 PHE5        0.0000 
     63 CZ        -16.3100  -76.9800   47.2300 C.ar      5 PHE5        0.0000 
     64 CZ        -19.1100  -80.0900   52.6800 C.ar      5 PHE5        0.0000 
     65 CZ        -20.1300  -78.4200   51.8700 C.ar      5 PHE5        0.0000 
     66 CA        -20.5500  -81.5000   43.2900 C.3       6 GLY6        0.0000 
     67 CA        -19.7300  -79.0100   41.8300 C.3       6 GLY6        0.0000 
     68 CA        -21.7800  -74.7600   44.8600 C.3       6 GLY6        0.0000 
     69 CA        -20.3400  -75.1800   44.9400 C.3       6 GLY6        0.0000 
     70 CA        -22.0500  -75.2800   46.9000 C.3       6 GLY6        0.0000 
     71 CA        -18.3600  -73.6400   45.6100 C.3       6 GLY6        0.0000 
     72 CA        -20.6800  -80.3900   51.2900 C.3       6 GLY6        0.0000 
     73 CA        -22.7300  -77.0500   49.6600 C.3       6 GLY6        0.0000 
     74 CA        -23.7600  -75.3800   48.8500 C.3       6 GLY6        0.0000 
     75 CA        -23.3500  -74.1400   48.1200 C.3       6 GLY6        0.0000 
     76 CA        -20.5400  -79.6700   52.6000 C.3       6 GLY6        0.0000 
     77 CA        -21.5700  -78.0000   51.7800 C.3       6 GLY6        0.0000 
     78 CA        -21.1600  -76.7600   51.0600 C.3       6 GLY6        0.0000 
     79 CA        -23.2100  -73.4200   49.4300 C.3       6 GLY6        0.0000 
     80 CA        -20.4100  -78.9500   53.9100 C.3       6 GLY6        0.0000 
     81 CA        -21.4300  -77.2800   53.0900 C.3       6 GLY6        0.0000 
     82 CA        -22.4600  -75.6100   52.2800 C.3       6 GLY6        0.0000 
     83 CA        -21.0200  -76.0300   52.3600 C.3       6 GLY6        0.0000 
     84 CA        -21.2900  -76.5600   54.4000 C.3       6 GLY6        0.0000 
@<TRIPOS>BOND
@<TRIPOS>SUBSTRUCTURE
     1 SER1        1 GROUP   
     2 ALA2       16 GROUP   
     3 ASP3       58 GROUP   
     4 LYS4       60 GROUP   
     5 PHE5       62 GROUP   
     6 GLY6       66 GROUP   
@<TRIPOS>SET

