#    Name: 6jcj_3_GTP_CAVITY_N1_8
#    Modification time : Fri May 22 19:30:09 2020

@<TRIPOS>MOLECULE
6jcj_3_GTP_CAVITY_N1_8
   34     0     6     0     0
SMALL
NO_CHARGES


@<TRIPOS>ATOM
      1 OG         -4.2200  -22.7600  -20.0300 O.3       1 SER1        0.0000 
      2 OG        -10.0300  -15.2700  -16.6700 O.3       1 SER1        0.0000 
      3 OG         -8.5900  -15.6900  -16.5900 O.3       1 SER1        0.0000 
      4 OG         -7.1600  -16.1200  -16.5000 O.3       1 SER1        0.0000 
      5 OG         -7.0200  -15.3900  -15.2000 O.3       1 SER1        0.0000 
      6 O          -5.3800  -20.9000  -17.5000 O.2       2 ALA2        0.0000 
      7 O          -4.8300  -18.9300  -16.9200 O.2       2 ALA2        0.0000 
      8 N          -9.7600  -14.7400  -18.7100 N.am      2 ALA2        0.0000 
      9 N          -6.4700  -13.4300  -14.6200 N.am      2 ALA2        0.0000 
     10 OD1        -4.7000  -18.2100  -15.6100 O.co2     3 ASP3        0.0000 
     11 OD1        -5.7200  -16.5400  -16.4200 O.co2     3 ASP3        0.0000 
     12 OD1        -9.6200  -14.0200  -17.4000 O.co2     3 ASP3        0.0000 
     13 OD1        -8.1800  -14.4500  -17.3200 O.co2     3 ASP3        0.0000 
     14 OD1        -5.3100  -15.2900  -17.1500 O.co2     3 ASP3        0.0000 
     15 OD1        -7.7700  -13.2000  -18.0400 O.co2     3 ASP3        0.0000 
     16 OD1        -8.0500  -13.7200  -16.0100 O.co2     3 ASP3        0.0000 
     17 OD1        -6.6100  -14.1500  -15.9200 O.co2     3 ASP3        0.0000 
     18 OD1        -6.2000  -12.9000  -16.6500 O.co2     3 ASP3        0.0000 
     19 CZ         -6.4100  -19.2300  -18.3100 C.ar      4 PHE5        0.0000 
     20 CZ         -4.9700  -19.6500  -18.2300 C.ar      4 PHE5        0.0000 
     21 CZ         -6.2700  -18.5100  -17.0000 C.ar      4 PHE5        0.0000 
     22 CZ         -8.7300  -16.4100  -17.8900 C.ar      4 PHE5        0.0000 
     23 CZ         -7.3000  -16.8400  -17.8100 C.ar      4 PHE5        0.0000 
     24 CZ         -5.8600  -17.2600  -17.7300 C.ar      4 PHE5        0.0000 
     25 CZ         -6.1300  -17.7800  -15.6900 C.ar      4 PHE5        0.0000 
     26 CA         -5.5200  -21.6200  -18.8000 C.3       5 GLY6        0.0000 
     27 CA         -4.0800  -22.0400  -18.7200 C.3       5 GLY6        0.0000 
     28 CA         -6.5500  -19.9500  -19.6200 C.3       5 GLY6        0.0000 
     29 CA         -5.1100  -20.3700  -19.5300 C.3       5 GLY6        0.0000 
     30 CA         -6.0000  -17.9800  -19.0400 C.3       5 GLY6        0.0000 
     31 CA         -8.3200  -15.1700  -18.6200 C.3       5 GLY6        0.0000 
     32 CA         -6.8900  -15.5900  -18.5400 C.3       5 GLY6        0.0000 
     33 CA         -5.5800  -15.8200  -15.1100 C.3       5 GLY6        0.0000 
     34 DU         -6.7500  -14.8700  -17.2300 H         6 CUB7        0.0000 
@<TRIPOS>BOND
@<TRIPOS>SUBSTRUCTURE
     1 SER1        1 GROUP   
     2 ALA2        6 GROUP   
     3 ASP3       10 GROUP   
     4 PHE5       19 GROUP   
     5 GLY6       26 GROUP   
     6 CUB7       34 GROUP   
@<TRIPOS>SET

