#    Name: 6jcj_4_GTP
#    Modification time : Fri May 22 19:30:14 2020

@<TRIPOS>MOLECULE
6jcj_4_GTP
   32    34     1     0     1
SMALL
NO_CHARGES


@<TRIPOS>ATOM
      1 PG        -26.8670   12.8060  -44.4580 P.3       1 GTP501      0.0000 
      2 O1G       -25.9460   13.6610  -45.3020 O.co2     1 GTP501      0.0000 
      3 O2G       -27.6570   11.7860  -45.2660 O.co2     1 GTP501      0.0000 
      4 O3G       -27.7200   13.6040  -43.4650 O.co2     1 GTP501      0.0000 
      5 O3B       -25.8420   11.9260  -43.5980 O.3       1 GTP501      0.0000 
      6 PB        -25.7540   11.6320  -42.0300 P.3       1 GTP501      0.0000 
      7 O1B       -25.2760   10.2170  -41.9290 O.co2     1 GTP501      0.0000 
      8 O2B       -26.9750   12.1070  -41.3140 O.co2     1 GTP501      0.0000 
      9 O3A       -24.6170   12.6570  -41.5870 O.3       1 GTP501      0.0000 
     10 PA        -23.0240   12.6330  -41.5150 P.3       1 GTP501      0.0000 
     11 O1A       -22.4600   13.3400  -42.7010 O.co2     1 GTP501      0.0000 
     12 O2A       -22.4940   11.2620  -41.2250 O.co2     1 GTP501      0.0000 
     13 O5'       -22.9560   13.5680  -40.2230 O.3       1 GTP501      0.0000 
     14 C5'       -22.1810   14.7870  -40.2000 C.3       1 GTP501      0.0000 
     15 C4'       -21.3480   14.7830  -38.9450 C.3       1 GTP501      0.0000 
     16 O4'       -20.5240   13.5950  -38.9530 O.3       1 GTP501      0.0000 
     17 C3'       -20.3750   15.9480  -38.7610 C.3       1 GTP501      0.0000 
     18 O3'       -20.2820   16.2680  -37.3790 O.3       1 GTP501      0.0000 
     19 C2'       -19.0840   15.4090  -39.3880 C.3       1 GTP501      0.0000 
     20 O2'       -17.9150   15.9670  -38.8280 O.3       1 GTP501      0.0000 
     21 C1'       -19.1600   13.9240  -39.0570 C.3       1 GTP501      0.0000 
     22 N9        -18.6000   13.0380  -40.0670 N.pl3     1 GTP501      0.0000 
     23 C8        -19.1160   12.8320  -41.3190 C.2       1 GTP501      0.0000 
     24 N7        -18.4470   11.9450  -42.0140 N.2       1 GTP501      0.0000 
     25 C5        -17.4420   11.5250  -41.1570 C.2       1 GTP501      0.0000 
     26 C6        -16.4200   10.5690  -41.3660 C.2       1 GTP501      0.0000 
     27 O6        -16.2160    9.8810  -42.3760 O.2       1 GTP501      0.0000 
     28 N1        -15.6150   10.4200  -40.2310 N.am      1 GTP501      0.0000 
     29 C2        -15.7710   11.1200  -39.0570 C.2       1 GTP501      0.0000 
     30 N2        -14.8840   10.8570  -38.0860 N.pl3     1 GTP501      0.0000 
     31 N3        -16.7270   12.0340  -38.8620 N.2       1 GTP501      0.0000 
     32 C4        -17.5260   12.1840  -39.9490 C.2       1 GTP501      0.0000 
@<TRIPOS>BOND
     1    1    2 ar   
     2    1    3 ar   
     3    1    4 ar   
     4    1    5 1    
     5    5    6 1    
     6    6    7 ar   
     7    6    8 ar   
     8    6    9 1    
     9    9   10 1    
    10   10   11 ar   
    11   10   12 ar   
    12   10   13 1    
    13   13   14 1    
    14   14   15 1    
    15   15   16 1    
    16   15   17 1    
    17   16   21 1    
    18   17   18 1    
    19   17   19 1    
    20   19   20 1    
    21   19   21 1    
    22   21   22 1    
    23   22   23 1    
    24   22   32 1    
    25   23   24 2    
    26   24   25 1    
    27   25   26 1    
    28   25   32 2    
    29   26   27 2    
    30   26   28 am   
    31   28   29 1    
    32   29   30 1    
    33   29   31 2    
    34   31   32 1    
@<TRIPOS>SUBSTRUCTURE
     1 GTP501      1 GROUP   
@<TRIPOS>SET
ATOM$ORANGE STATIC     ATOMS   COLORGROUP SYSTEM 
20 14 14 15 15 17 17 19 19 21 21 23 23 25 25 26 26 29 \
29 32 32 

