#    Name: 6jcj_1_GTP_CAVITY_N1_4
#    Modification time : Fri May 22 19:29:52 2020

@<TRIPOS>MOLECULE
6jcj_1_GTP_CAVITY_N1_4
   41     0     6     0     0
SMALL
NO_CHARGES


@<TRIPOS>ATOM
      1 OG        -20.6100  -75.7100   46.9800 O.3       1 SER1        0.0000 
      2 OG        -19.1800  -76.1300   47.0600 O.3       1 SER1        0.0000 
      3 OG        -22.3200  -75.8100   48.9400 O.3       1 SER1        0.0000 
      4 OG        -20.8900  -76.2300   49.0200 O.3       1 SER1        0.0000 
      5 OG        -19.4500  -76.6600   49.1000 O.3       1 SER1        0.0000 
      6 OG        -21.9100  -74.5600   48.2100 O.3       1 SER1        0.0000 
      7 OG        -22.6000  -76.3300   50.9700 O.3       1 SER1        0.0000 
      8 OG        -19.7200  -77.1800   51.1400 O.3       1 SER1        0.0000 
      9 OG        -22.1900  -75.0900   50.2400 O.3       1 SER1        0.0000 
     10 OG        -20.7500  -75.5100   50.3300 O.3       1 SER1        0.0000 
     11 OG        -19.5900  -76.4600   52.4500 O.3       1 SER1        0.0000 
     12 OG        -20.6100  -74.7900   51.6300 O.3       1 SER1        0.0000 
     13 OG        -19.1800  -75.2100   51.7200 O.3       1 SER1        0.0000 
     14 N         -20.7500  -76.4300   45.6700 N.am      2 ALA2        0.0000 
     15 O         -21.7100  -78.7200   50.4800 O.2       2 ALA2        0.0000 
     16 O         -21.3000  -77.4800   49.7500 O.2       2 ALA2        0.0000 
     17 O         -19.8600  -77.9000   49.8300 O.2       2 ALA2        0.0000 
     18 N         -19.5200  -81.3400   53.4100 N.am      2 ALA2        0.0000 
     19 O         -23.6200  -74.6600   50.1600 O.2       2 ALA2        0.0000 
     20 O         -20.0000  -77.7000   53.1800 O.2       2 ALA2        0.0000 
     21 O         -20.8800  -75.3100   53.6700 O.2       2 ALA2        0.0000 
     22 O         -19.4500  -75.7400   53.7600 O.2       2 ALA2        0.0000 
     23 OD1       -25.3300  -75.6800   47.4600 O.co2     3 ASP3        0.0000 
     24 NZ        -22.0500  -74.3600   51.5500 N.4       4 LYS4        0.0000 
     25 NZ        -20.4700  -74.0700   52.9400 N.4       4 LYS4        0.0000 
     26 CZ        -19.1100  -80.0900   52.6800 C.ar      5 PHE5        0.0000 
     27 CZ        -20.1300  -78.4200   51.8700 C.ar      5 PHE5        0.0000 
     28 CA        -22.0500  -75.2800   46.9000 C.3       6 GLY6        0.0000 
     29 CA        -20.6800  -80.3900   51.2900 C.3       6 GLY6        0.0000 
     30 CA        -22.7300  -77.0500   49.6600 C.3       6 GLY6        0.0000 
     31 CA        -23.7600  -75.3800   48.8500 C.3       6 GLY6        0.0000 
     32 CA        -23.3500  -74.1400   48.1200 C.3       6 GLY6        0.0000 
     33 CA        -20.5400  -79.6700   52.6000 C.3       6 GLY6        0.0000 
     34 CA        -21.5700  -78.0000   51.7800 C.3       6 GLY6        0.0000 
     35 CA        -21.1600  -76.7600   51.0600 C.3       6 GLY6        0.0000 
     36 CA        -23.2100  -73.4200   49.4300 C.3       6 GLY6        0.0000 
     37 CA        -20.4100  -78.9500   53.9100 C.3       6 GLY6        0.0000 
     38 CA        -21.4300  -77.2800   53.0900 C.3       6 GLY6        0.0000 
     39 CA        -22.4600  -75.6100   52.2800 C.3       6 GLY6        0.0000 
     40 CA        -21.0200  -76.0300   52.3600 C.3       6 GLY6        0.0000 
     41 CA        -21.2900  -76.5600   54.4000 C.3       6 GLY6        0.0000 
@<TRIPOS>BOND
@<TRIPOS>SUBSTRUCTURE
     1 SER1        1 GROUP   
     2 ALA2       14 GROUP   
     3 ASP3       23 GROUP   
     4 LYS4       24 GROUP   
     5 PHE5       26 GROUP   
     6 GLY6       28 GROUP   
@<TRIPOS>SET

