#    Name: 6jcj_4_GTP_CAVITY_N1_12
#    Modification time : Fri May 22 19:30:16 2020

@<TRIPOS>MOLECULE
6jcj_4_GTP_CAVITY_N1_12
  121     0     6     0     0
SMALL
NO_CHARGES


@<TRIPOS>ATOM
      1 OG        -28.5100   12.0400  -45.2500 O.3       1 SER1        0.0000 
      2 OG        -27.0700   11.6100  -45.1700 O.3       1 SER1        0.0000 
      3 OG        -27.3400   11.0900  -43.1300 O.3       1 SER1        0.0000 
      4 OG        -26.9300   12.3300  -43.8600 O.3       1 SER1        0.0000 
      5 OG        -24.3300   10.9600  -41.6500 O.3       1 SER1        0.0000 
      6 OG        -22.3500   12.5000  -40.9900 O.3       1 SER1        0.0000 
      7 OG        -20.0900   14.5700  -42.3700 O.3       1 SER1        0.0000 
      8 OG        -18.6600   14.1400  -42.2800 O.3       1 SER1        0.0000 
      9 OG        -22.2100   13.2200  -39.6800 O.3       1 SER1        0.0000 
     10 OG        -20.7700   12.8000  -39.6000 O.3       1 SER1        0.0000 
     11 OG        -18.5200   14.8600  -40.9800 O.3       1 SER1        0.0000 
     12 OG        -20.9800   16.9600  -41.8700 O.3       1 SER1        0.0000 
     13 OG        -19.5400   16.5300  -41.7900 O.3       1 SER1        0.0000 
     14 N         -23.9200   11.2900  -47.0400 N.am      2 ALA2        0.0000 
     15 O         -28.1000   13.2800  -45.9800 O.2       2 ALA2        0.0000 
     16 O         -26.6600   12.8600  -45.9000 O.2       2 ALA2        0.0000 
     17 N         -23.3800   13.2500  -46.4600 N.am      2 ALA2        0.0000 
     18 N         -16.2000   11.1300  -46.0400 N.am      2 ALA2        0.0000 
     19 O         -28.3700   12.7600  -43.9400 O.2       2 ALA2        0.0000 
     20 N         -18.3100    9.7800  -43.3600 N.am      2 ALA2        0.0000 
     21 N         -16.8800    9.3600  -43.2800 N.am      2 ALA2        0.0000 
     22 N         -26.5200   13.5800  -44.5900 N.am      2 ALA2        0.0000 
     23 N         -25.0900   13.1500  -44.5000 N.am      2 ALA2        0.0000 
     24 O         -17.9000   11.0300  -44.0900 O.2       2 ALA2        0.0000 
     25 N         -16.4700   10.6000  -44.0100 N.am      2 ALA2        0.0000 
     26 N         -26.1100   14.8200  -45.3200 N.am      2 ALA2        0.0000 
     27 N         -24.6800   14.4000  -45.2300 N.am      2 ALA2        0.0000 
     28 N         -23.2400   13.9700  -45.1500 N.am      2 ALA2        0.0000 
     29 O         -21.8000   13.5500  -45.0700 O.2       2 ALA2        0.0000 
     30 O         -17.4900   12.2700  -44.8200 O.2       2 ALA2        0.0000 
     31 O         -25.7700   11.3800  -41.7400 O.2       2 ALA2        0.0000 
     32 O         -26.7900   13.0500  -42.5500 O.2       2 ALA2        0.0000 
     33 O         -22.4900   11.7800  -42.3000 O.2       2 ALA2        0.0000 
     34 O         -21.0500   11.3500  -42.2200 O.2       2 ALA2        0.0000 
     35 O         -15.3000    9.6600  -41.8900 O.2       2 ALA2        0.0000 
     36 N         -24.9500   13.8700  -43.2000 N.am      2 ALA2        0.0000 
     37 N         -23.5100   13.4500  -43.1100 N.am      2 ALA2        0.0000 
     38 O         -20.6400   12.6000  -42.9500 O.2       2 ALA2        0.0000 
     39 O         -19.2000   12.1800  -42.8600 O.2       2 ALA2        0.0000 
     40 N         -23.1000   14.6900  -43.8400 N.am      2 ALA2        0.0000 
     41 O         -21.6700   14.2700  -43.7600 O.2       2 ALA2        0.0000 
     42 O         -20.2300   13.8400  -43.6800 O.2       2 ALA2        0.0000 
     43 O         -18.7900   13.4200  -43.5900 O.2       2 ALA2        0.0000 
     44 N         -15.5800    9.1300  -39.8500 N.am      2 ALA2        0.0000 
     45 N         -18.0400   11.2300  -40.7400 N.am      2 ALA2        0.0000 
     46 N         -16.6000   10.8000  -40.6600 N.am      2 ALA2        0.0000 
     47 N         -15.1700   10.3800  -40.5800 N.am      2 ALA2        0.0000 
     48 N         -23.3700   14.1700  -41.8000 N.am      2 ALA2        0.0000 
     49 N         -22.9600   15.4100  -42.5300 N.am      2 ALA2        0.0000 
     50 O         -22.5500   16.6600  -43.2600 O.2       2 ALA2        0.0000 
     51 N         -15.4400    9.8500  -38.5400 N.am      2 ALA2        0.0000 
     52 N         -19.3400   12.3700  -39.5200 N.am      2 ALA2        0.0000 
     53 N         -17.9000   11.9500  -39.4400 N.am      2 ALA2        0.0000 
     54 N         -16.4700   11.5200  -39.3500 N.am      2 ALA2        0.0000 
     55 N         -15.0300   11.1000  -39.2700 N.am      2 ALA2        0.0000 
     56 O         -23.2400   14.8900  -40.5000 O.2       2 ALA2        0.0000 
     57 O         -21.8000   14.4700  -40.4100 O.2       2 ALA2        0.0000 
     58 O         -21.3900   15.7100  -41.1400 O.2       2 ALA2        0.0000 
     59 O         -22.0700   13.9400  -38.3800 O.2       2 ALA2        0.0000 
     60 O         -19.2000   13.0900  -38.2100 O.2       2 ALA2        0.0000 
     61 O         -17.7600   12.6700  -38.1300 O.2       2 ALA2        0.0000 
     62 O         -21.6600   15.1900  -39.1000 O.2       2 ALA2        0.0000 
     63 O         -18.7900   14.3400  -38.9400 O.2       2 ALA2        0.0000 
     64 O         -17.3500   13.9100  -38.8600 O.2       2 ALA2        0.0000 
     65 N         -15.9200   13.4900  -38.7700 N.am      2 ALA2        0.0000 
     66 O         -22.6900   16.8600  -39.9200 O.2       2 ALA2        0.0000 
     67 O         -18.6500   15.0600  -37.6300 O.2       2 ALA2        0.0000 
     68 NZ        -27.2100   10.8900  -46.4700 N.4       3 LYS4        0.0000 
     69 NZ        -25.7700   10.4700  -46.3900 N.4       3 LYS4        0.0000 
     70 NZ        -24.3300   10.0400  -46.3100 N.4       3 LYS4        0.0000 
     71 NZ        -28.2300   12.5600  -47.2900 N.4       3 LYS4        0.0000 
     72 NZ        -26.8000   12.1400  -47.2000 N.4       3 LYS4        0.0000 
     73 NZ        -26.3900   13.3800  -47.9300 N.4       3 LYS4        0.0000 
     74 NZ        -26.0400    9.9400  -44.3500 N.4       3 LYS4        0.0000 
     75 NZ        -25.6300   11.1900  -45.0800 N.4       3 LYS4        0.0000 
     76 NZ        -21.2500   16.4300  -39.8300 N.4       3 LYS4        0.0000 
     77 NZ        -21.5300   15.9100  -37.8000 N.4       3 LYS4        0.0000 
     78 NZ        -20.0900   15.4800  -37.7100 N.4       3 LYS4        0.0000 
     79 CZ        -17.7700   11.7500  -42.7800 C.ar      4 PHE5        0.0000 
     80 CZ        -16.3300   11.3300  -42.7000 C.ar      4 PHE5        0.0000 
     81 CZ        -17.6300   12.4700  -41.4700 C.ar      4 PHE5        0.0000 
     82 CZ        -16.1900   12.0500  -41.3900 C.ar      4 PHE5        0.0000 
     83 CZ        -17.4900   13.1900  -40.1600 C.ar      4 PHE5        0.0000 
     84 CZ        -16.0600   12.7700  -40.0800 C.ar      4 PHE5        0.0000 
     85 CA        -25.3600   11.7100  -47.1200 C.3       5 GLY6        0.0000 
     86 CA        -24.9500   12.9600  -47.8500 C.3       5 GLY6        0.0000 
     87 CA        -24.2000   10.7600  -45.0000 C.3       5 GLY6        0.0000 
     88 CA        -23.7900   12.0100  -45.7300 C.3       5 GLY6        0.0000 
     89 CA        -26.2500   14.1000  -46.6200 C.3       5 GLY6        0.0000 
     90 CA        -25.9100   10.6600  -43.0500 C.3       5 GLY6        0.0000 
     91 CA        -24.0600   11.4800  -43.6900 C.3       5 GLY6        0.0000 
     92 CA        -23.6500   12.7300  -44.4200 C.3       5 GLY6        0.0000 
     93 CA        -22.2100   12.3000  -44.3400 C.3       5 GLY6        0.0000 
     94 CA        -17.1500    8.8400  -41.2400 C.3       5 GLY6        0.0000 
     95 CA        -25.3600   12.6300  -42.4700 C.3       5 GLY6        0.0000 
     96 CA        -18.1800   10.5100  -42.0500 C.3       5 GLY6        0.0000 
     97 CA        -16.7400   10.0800  -41.9700 C.3       5 GLY6        0.0000 
     98 CA        -22.0800   13.0200  -43.0300 C.3       5 GLY6        0.0000 
     99 CA        -23.7800   12.9200  -41.0800 C.3       5 GLY6        0.0000 
    100 CA        -20.9100   12.0800  -40.9100 C.3       5 GLY6        0.0000 
    101 CA        -19.4800   11.6500  -40.8300 C.3       5 GLY6        0.0000 
    102 CA        -19.6100   11.8500  -37.4800 C.3       5 GLY6        0.0000 
    103 CA        -20.6400   13.5200  -38.2900 C.3       5 GLY6        0.0000 
    104 CA        -19.8200   16.0100  -39.7500 C.3       5 GLY6        0.0000 
    105 CA        -18.3800   15.5800  -39.6700 C.3       5 GLY6        0.0000 
    106 CA        -16.9400   15.1600  -39.5800 C.3       5 GLY6        0.0000 
    107 CA        -20.5000   14.2400  -36.9800 C.3       5 GLY6        0.0000 
    108 CA        -18.2400   16.3000  -38.3600 C.3       5 GLY6        0.0000 
    109 DU        -25.2200   12.4300  -45.8100 H         6 CUB7        0.0000 
    110 DU        -24.8100   13.6800  -46.5400 H         6 CUB7        0.0000 
    111 DU        -25.5000   11.9100  -43.7700 H         6 CUB7        0.0000 
    112 DU        -23.9200   12.2000  -42.3800 H         6 CUB7        0.0000 
    113 DU        -21.9400   13.7500  -41.7200 H         6 CUB7        0.0000 
    114 DU        -20.5000   13.3200  -41.6400 H         6 CUB7        0.0000 
    115 DU        -19.0700   12.9000  -41.5600 H         6 CUB7        0.0000 
    116 DU        -21.5300   14.9900  -42.4500 H         6 CUB7        0.0000 
    117 DU        -21.1200   16.2400  -43.1800 H         6 CUB7        0.0000 
    118 DU        -20.3600   14.0400  -40.3300 H         6 CUB7        0.0000 
    119 DU        -18.9300   13.6200  -40.2500 H         6 CUB7        0.0000 
    120 DU        -19.9500   15.2900  -41.0600 H         6 CUB7        0.0000 
    121 DU        -20.2300   14.7600  -39.0200 H         6 CUB7        0.0000 
@<TRIPOS>BOND
@<TRIPOS>SUBSTRUCTURE
     1 SER1        1 GROUP   
     2 ALA2       14 GROUP   
     3 LYS4       68 GROUP   
     4 PHE5       79 GROUP   
     5 GLY6       85 GROUP   
     6 CUB7      109 GROUP   
@<TRIPOS>SET

