#    Name: 6jcj_3_GTP_CAVITY_N1_6
#    Modification time : Fri May 22 19:30:09 2020

@<TRIPOS>MOLECULE
6jcj_3_GTP_CAVITY_N1_6
    7     0     4     0     0
SMALL
NO_CHARGES


@<TRIPOS>ATOM
      1 OG        -10.0300  -15.2700  -16.6700 O.3       1 SER1        0.0000 
      2 OG         -8.5900  -15.6900  -16.5900 O.3       1 SER1        0.0000 
      3 OG         -7.1600  -16.1200  -16.5000 O.3       1 SER1        0.0000 
      4 OG         -7.0200  -15.3900  -15.2000 O.3       1 SER1        0.0000 
      5 OD1        -8.0500  -13.7200  -16.0100 O.co2     2 ASP3        0.0000 
      6 CZ         -6.1300  -17.7800  -15.6900 C.ar      3 PHE5        0.0000 
      7 CA         -5.5800  -15.8200  -15.1100 C.3       4 GLY6        0.0000 
@<TRIPOS>BOND
@<TRIPOS>SUBSTRUCTURE
     1 SER1        1 GROUP   
     2 ASP3        5 GROUP   
     3 PHE5        6 GROUP   
     4 GLY6        7 GROUP   
@<TRIPOS>SET

