#    Name: 6jcj_1_GTP
#    Modification time : Fri May 22 19:29:50 2020

@<TRIPOS>MOLECULE
6jcj_1_GTP
   32    34     1     0     1
SMALL
NO_CHARGES


@<TRIPOS>ATOM
      1 PG        -26.9080  -74.3710   46.0370 P.3       1 GTP501      0.0000 
      2 O1G       -25.8270  -75.0880   45.2760 O.co2     1 GTP501      0.0000 
      3 O2G       -28.2270  -74.5100   45.3590 O.co2     1 GTP501      0.0000 
      4 O3G       -26.5700  -72.9550   46.4870 O.co2     1 GTP501      0.0000 
      5 O3B       -26.9960  -75.1090   47.4810 O.3       1 GTP501      0.0000 
      6 PB        -26.3360  -76.4120   48.1320 P.3       1 GTP501      0.0000 
      7 O1B       -26.0060  -77.4520   47.1250 O.co2     1 GTP501      0.0000 
      8 O2B       -27.2010  -76.7700   49.2820 O.co2     1 GTP501      0.0000 
      9 O3A       -24.9710  -75.7740   48.6770 O.3       1 GTP501      0.0000 
     10 PA        -23.7450  -76.3620   49.5520 P.3       1 GTP501      0.0000 
     11 O1A       -22.5680  -76.5680   48.6710 O.co2     1 GTP501      0.0000 
     12 O2A       -24.2220  -77.5580   50.3070 O.co2     1 GTP501      0.0000 
     13 O5'       -23.5540  -75.1330   50.5560 O.3       1 GTP501      0.0000 
     14 C5'       -22.2960  -74.4620   50.7560 C.3       1 GTP501      0.0000 
     15 C4'       -21.8610  -74.6040   52.1990 C.3       1 GTP501      0.0000 
     16 O4'       -21.7900  -76.0140   52.5250 O.3       1 GTP501      0.0000 
     17 C3'       -20.4610  -74.0740   52.5220 C.3       1 GTP501      0.0000 
     18 O3'       -20.3390  -73.7040   53.8820 O.3       1 GTP501      0.0000 
     19 C2'       -19.5890  -75.2790   52.1870 C.3       1 GTP501      0.0000 
     20 O2'       -18.3480  -75.2120   52.8440 O.3       1 GTP501      0.0000 
     21 C1'       -20.4550  -76.4070   52.7270 C.3       1 GTP501      0.0000 
     22 N9        -20.2750  -77.7030   52.0810 N.pl3     1 GTP501      0.0000 
     23 C8        -20.5830  -78.0450   50.7900 C.2       1 GTP501      0.0000 
     24 N7        -20.3350  -79.3050   50.5060 N.2       1 GTP501      0.0000 
     25 C5        -19.8190  -79.8210   51.6820 C.2       1 GTP501      0.0000 
     26 C6        -19.3650  -81.1290   51.9810 C.2       1 GTP501      0.0000 
     27 O6        -19.3440  -82.1360   51.2490 O.2       1 GTP501      0.0000 
     28 N1        -18.9120  -81.2130   53.2950 N.am      1 GTP501      0.0000 
     29 C2        -18.8890  -80.1920   54.2000 C.2       1 GTP501      0.0000 
     30 N2        -18.4030  -80.4850   55.4140 N.pl3     1 GTP501      0.0000 
     31 N3        -19.3300  -78.9650   53.9290 N.2       1 GTP501      0.0000 
     32 C4        -19.7760  -78.8500   52.6560 C.2       1 GTP501      0.0000 
@<TRIPOS>BOND
     1    1    2 ar   
     2    1    3 ar   
     3    1    4 ar   
     4    1    5 1    
     5    5    6 1    
     6    6    7 ar   
     7    6    8 ar   
     8    6    9 1    
     9    9   10 1    
    10   10   11 ar   
    11   10   12 ar   
    12   10   13 1    
    13   13   14 1    
    14   14   15 1    
    15   15   16 1    
    16   15   17 1    
    17   16   21 1    
    18   17   18 1    
    19   17   19 1    
    20   19   20 1    
    21   19   21 1    
    22   21   22 1    
    23   22   23 1    
    24   22   32 1    
    25   23   24 2    
    26   24   25 1    
    27   25   26 1    
    28   25   32 2    
    29   26   27 2    
    30   26   28 am   
    31   28   29 1    
    32   29   30 1    
    33   29   31 2    
    34   31   32 1    
@<TRIPOS>SUBSTRUCTURE
     1 GTP501      1 GROUP   
@<TRIPOS>SET
ATOM$ORANGE STATIC     ATOMS   COLORGROUP SYSTEM 
20 14 14 15 15 17 17 19 19 21 21 23 23 25 25 26 26 29 \
29 32 32 

