#    Name: 6jcj_5_ACP
#    Modification time : Fri May 22 19:30:21 2020

@<TRIPOS>MOLECULE
6jcj_5_ACP
   31    33     1     0     1
SMALL
NO_CHARGES


@<TRIPOS>ATOM
      1 PG         -7.6870  -49.4570   93.3890 P.3       1 ACP401      0.0000 
      2 O1G        -7.0620  -48.6810   94.4800 O.co2     1 ACP401      0.0000 
      3 O2G        -6.6920  -50.6590   93.0250 O.co2     1 ACP401      0.0000 
      4 O3G        -7.9160  -48.5260   92.0930 O.co2     1 ACP401      0.0000 
      5 PB        -10.2840  -48.9660   94.7850 P.3       1 ACP401      0.0000 
      6 O1B       -11.2740  -48.4340   93.8140 O.co2     1 ACP401      0.0000 
      7 O2B        -9.3690  -47.7430   95.2900 O.co2     1 ACP401      0.0000 
      8 C3B        -9.2630  -50.1780   93.9180 C.3       1 ACP401      0.0000 
      9 PA        -10.4020  -50.2680   97.4050 P.3       1 ACP401      0.0000 
     10 O1A        -9.3290  -51.2910   97.0820 O.co2     1 ACP401      0.0000 
     11 O2A       -11.5620  -50.6720   98.2950 O.co2     1 ACP401      0.0000 
     12 O3A       -11.0500  -49.6550   96.0380 O.3       1 ACP401      0.0000 
     13 O5'        -9.6290  -49.0990   98.1990 O.3       1 ACP401      0.0000 
     14 C5'        -9.4050  -49.3980   99.5700 C.3       1 ACP401      0.0000 
     15 C4'        -8.6080  -48.3530  100.3290 C.3       1 ACP401      0.0000 
     16 O4'        -9.2170  -48.3230  101.6230 O.3       1 ACP401      0.0000 
     17 C3'        -7.1370  -48.7280  100.5180 C.3       1 ACP401      0.0000 
     18 O3'        -6.2480  -47.6240  100.2890 O.3       1 ACP401      0.0000 
     19 C2'        -7.0650  -49.2710  101.9460 C.3       1 ACP401      0.0000 
     20 O2'        -6.0530  -48.6840  102.7670 O.3       1 ACP401      0.0000 
     21 C1'        -8.4090  -48.9980  102.5880 C.3       1 ACP401      0.0000 
     22 N9         -8.9400  -50.3030  103.0240 N.pl3     1 ACP401      0.0000 
     23 C8         -9.8260  -51.1030  102.4110 C.2       1 ACP401      0.0000 
     24 N7        -10.0410  -52.2240  103.1470 N.2       1 ACP401      0.0000 
     25 C5         -9.2790  -52.1680  104.2440 C.ar      1 ACP401      0.0000 
     26 C6         -9.0200  -53.0190  105.4370 C.ar      1 ACP401      0.0000 
     27 N6         -9.6320  -54.2130  105.6370 N.pl3     1 ACP401      0.0000 
     28 N1         -8.1400  -52.5540  106.3520 N.ar      1 ACP401      0.0000 
     29 C2         -7.5100  -51.3690  106.2000 C.ar      1 ACP401      0.0000 
     30 N3         -7.6960  -50.5560  105.1360 N.ar      1 ACP401      0.0000 
     31 C4         -8.5550  -50.8940  104.1480 C.ar      1 ACP401      0.0000 
@<TRIPOS>BOND
     1    1    2 ar   
     2    1    3 ar   
     3    1    4 ar   
     4    1    8 1    
     5    5    6 ar   
     6    5    7 ar   
     7    5    8 1    
     8    5   12 1    
     9    9   10 ar   
    10    9   11 ar   
    11    9   12 1    
    12    9   13 1    
    13   13   14 1    
    14   14   15 1    
    15   15   16 1    
    16   15   17 1    
    17   16   21 1    
    18   17   18 1    
    19   17   19 1    
    20   19   20 1    
    21   19   21 1    
    22   21   22 1    
    23   22   23 1    
    24   22   31 1    
    25   23   24 2    
    26   24   25 1    
    27   25   26 ar   
    28   25   31 ar   
    29   26   27 1    
    30   26   28 ar   
    31   28   29 ar   
    32   29   30 ar   
    33   30   31 ar   
@<TRIPOS>SUBSTRUCTURE
     1 ACP401      1 GROUP   
@<TRIPOS>SET
ATOM$ORANGE STATIC     ATOMS   COLORGROUP SYSTEM 
22 8 8 14 14 15 15 17 17 19 19 21 21 23 23 25 25 26 \
26 29 29 31 31 

