#    Name: 6l5q_1_GDU
#    Modification time : Fri May 22 19:32:44 2020

@<TRIPOS>MOLECULE
6l5q_1_GDU
   36    38     1     0     0
SMALL
NO_CHARGES


@<TRIPOS>ATOM
      1 N1        -17.7910  -16.4340  -21.0520 N.am      1 GDU501      0.0000 
      2 C2        -16.8540  -16.4150  -22.0680 C.2       1 GDU501      0.0000 
      3 N3        -17.1770  -15.6130  -23.1330 N.am      1 GDU501      0.0000 
      4 C4        -18.3130  -14.8400  -23.2790 C.2       1 GDU501      0.0000 
      5 C5        -19.2320  -14.9110  -22.1800 C.2       1 GDU501      0.0000 
      6 C6        -18.9440  -15.6900  -21.1270 C.2       1 GDU501      0.0000 
      7 O2        -15.8200  -17.0680  -22.0290 O.2       1 GDU501      0.0000 
      8 O4        -18.4600  -14.1700  -24.3010 O.2       1 GDU501      0.0000 
      9 C1D       -17.5000  -17.2870  -19.8850 C.3       1 GDU501      0.0000 
     10 C2D       -17.1520  -16.5020  -18.6210 C.3       1 GDU501      0.0000 
     11 O2D       -15.7880  -16.1360  -18.6090 O.3       1 GDU501      0.0000 
     12 C3D       -17.5580  -17.5310  -17.5610 C.3       1 GDU501      0.0000 
     13 C4D       -18.8900  -18.0190  -18.1510 C.3       1 GDU501      0.0000 
     14 O4D       -18.6440  -18.0580  -19.5810 O.3       1 GDU501      0.0000 
     15 O3D       -16.6150  -18.5940  -17.5180 O.3       1 GDU501      0.0000 
     16 C5D       -20.0810  -17.1350  -17.8770 C.3       1 GDU501      0.0000 
     17 O5D       -20.4350  -17.2440  -16.4760 O.3       1 GDU501      0.0000 
     18 PA        -21.0720  -15.9780  -15.7280 P.3       1 GDU501      0.0000 
     19 O1A       -21.3300  -16.3360  -14.3020 O.co2     1 GDU501      0.0000 
     20 O2A       -20.2330  -14.7730  -15.9960 O.co2     1 GDU501      0.0000 
     21 O3A       -22.4760  -15.8000  -16.4880 O.3       1 GDU501      0.0000 
     22 PB        -23.8290  -16.6630  -16.5240 P.3       1 GDU501      0.0000 
     23 O1B       -24.9380  -15.8330  -17.0840 O.co2     1 GDU501      0.0000 
     24 O2B       -23.5580  -17.9780  -17.1780 O.co2     1 GDU501      0.0000 
     25 O3B       -24.0480  -16.8560  -14.9460 O.3       1 GDU501      0.0000 
     26 C1'       -25.1740  -17.4300  -14.3370 C.3       1 GDU501      0.0000 
     27 C2'       -25.5570  -16.5360  -13.1690 C.3       1 GDU501      0.0000 
     28 C3'       -24.3960  -16.4660  -12.1910 C.3       1 GDU501      0.0000 
     29 C4'       -24.0020  -17.8600  -11.7350 C.3       1 GDU501      0.0000 
     30 C5'       -23.7490  -18.7650  -12.9400 C.3       1 GDU501      0.0000 
     31 C6'       -23.5610  -20.2080  -12.5420 C.3       1 GDU501      0.0000 
     32 O2'       -25.9150  -15.2410  -13.6460 O.3       1 GDU501      0.0000 
     33 O3'       -24.7390  -15.6550  -11.0670 O.3       1 GDU501      0.0000 
     34 O4'       -25.0430  -18.4250  -10.9430 O.3       1 GDU501      0.0000 
     35 O5'       -24.8680  -18.7280  -13.8590 O.3       1 GDU501      0.0000 
     36 O6'       -24.6930  -20.6850  -11.8190 O.3       1 GDU501      0.0000 
@<TRIPOS>BOND
     1    1    2 1    
     2    1    6 1    
     3    1    9 1    
     4    2    3 1    
     5    2    7 2    
     6    3    4 1    
     7    4    5 1    
     8    4    8 2    
     9    5    6 2    
    10    9   10 1    
    11    9   14 1    
    12   10   11 1    
    13   10   12 1    
    14   12   13 1    
    15   12   15 1    
    16   13   14 1    
    17   13   16 1    
    18   16   17 1    
    19   17   18 1    
    20   18   19 ar   
    21   18   20 ar   
    22   18   21 1    
    23   21   22 1    
    24   22   23 ar   
    25   22   24 ar   
    26   22   25 1    
    27   25   26 1    
    28   26   27 1    
    29   26   35 1    
    30   27   28 1    
    31   27   32 1    
    32   28   29 1    
    33   28   33 1    
    34   29   30 1    
    35   29   34 1    
    36   30   31 1    
    37   30   35 1    
    38   31   36 1    
@<TRIPOS>SUBSTRUCTURE
     1 GDU501      1 GROUP   
@<TRIPOS>SET

