#    Name: 5g15_1_ACP
#    Modification time : Fri May 22 19:11:54 2020

@<TRIPOS>MOLECULE
5g15_1_ACP
   31    33     1     0     1
SMALL
NO_CHARGES


@<TRIPOS>ATOM
      1 PG        -27.1600   21.4900  -26.2270 P.3       1 ACP1391     0.0000 
      2 O1G       -27.8610   22.6700  -25.2790 O.co2     1 ACP1391     0.0000 
      3 O2G       -28.2680   20.3880  -26.6150 O.co2     1 ACP1391     0.0000 
      4 O3G       -25.9450   20.8630  -25.6450 O.co2     1 ACP1391     0.0000 
      5 PB        -27.5420   23.2860  -28.4810 P.3       1 ACP1391     0.0000 
      6 O1B       -28.2270   22.6440  -29.6440 O.co2     1 ACP1391     0.0000 
      7 O2B       -28.6210   23.7590  -27.3660 O.co2     1 ACP1391     0.0000 
      8 C3B       -26.4210   22.0750  -27.7660 C.3       1 ACP1391     0.0000 
      9 PA        -26.0070   25.6720  -28.0760 P.3       1 ACP1391     0.0000 
     10 O1A       -24.9380   25.1210  -27.1610 O.co2     1 ACP1391     0.0000 
     11 O2A       -27.0870   26.5820  -27.4820 O.co2     1 ACP1391     0.0000 
     12 O3A       -26.5310   24.4360  -28.9660 O.3       1 ACP1391     0.0000 
     13 O5'       -25.2990   26.4730  -29.2650 O.3       1 ACP1391     0.0000 
     14 C5'       -26.1160   26.9650  -30.3200 C.3       1 ACP1391     0.0000 
     15 C4'       -25.2600   27.5250  -31.4240 C.3       1 ACP1391     0.0000 
     16 O4'       -24.5770   28.6910  -30.9370 O.3       1 ACP1391     0.0000 
     17 C3'       -24.1810   26.5670  -31.8430 C.3       1 ACP1391     0.0000 
     18 O3'       -24.6120   25.6870  -32.8420 O.3       1 ACP1391     0.0000 
     19 C2'       -23.1110   27.5250  -32.3370 C.3       1 ACP1391     0.0000 
     20 O2'       -23.4080   28.0260  -33.6520 O.3       1 ACP1391     0.0000 
     21 C1'       -23.2170   28.6930  -31.3760 C.3       1 ACP1391     0.0000 
     22 N9        -22.3100   28.5950  -30.2060 N.pl3     1 ACP1391     0.0000 
     23 C8        -22.4810   27.8950  -29.0320 C.2       1 ACP1391     0.0000 
     24 N7        -21.4480   28.1030  -28.1580 N.2       1 ACP1391     0.0000 
     25 C5        -20.6100   28.9460  -28.7890 C.ar      1 ACP1391     0.0000 
     26 C6        -19.3570   29.5650  -28.4740 C.ar      1 ACP1391     0.0000 
     27 N6        -18.8680   29.2650  -27.2980 N.pl3     1 ACP1391     0.0000 
     28 N1        -18.7110   30.3740  -29.3100 N.ar      1 ACP1391     0.0000 
     29 C2        -19.2610   30.6510  -30.4970 C.ar      1 ACP1391     0.0000 
     30 N3        -20.4570   30.1290  -30.9030 N.ar      1 ACP1391     0.0000 
     31 C4        -21.1590   29.2750  -30.1100 C.ar      1 ACP1391     0.0000 
@<TRIPOS>BOND
     1    1    2 ar   
     2    1    3 ar   
     3    1    4 ar   
     4    1    8 1    
     5    5    6 ar   
     6    5    7 ar   
     7    5    8 1    
     8    5   12 1    
     9    9   10 ar   
    10    9   11 ar   
    11    9   12 1    
    12    9   13 1    
    13   13   14 1    
    14   14   15 1    
    15   15   16 1    
    16   15   17 1    
    17   16   21 1    
    18   17   18 1    
    19   17   19 1    
    20   19   20 1    
    21   19   21 1    
    22   21   22 1    
    23   22   23 1    
    24   22   31 1    
    25   23   24 2    
    26   24   25 1    
    27   25   26 ar   
    28   25   31 ar   
    29   26   27 1    
    30   26   28 ar   
    31   28   29 ar   
    32   29   30 ar   
    33   30   31 ar   
@<TRIPOS>SUBSTRUCTURE
     1 ACP1391     1 GROUP   
@<TRIPOS>SET
ATOM$ORANGE STATIC     ATOMS   COLORGROUP SYSTEM 
22 8 8 14 14 15 15 17 17 19 19 21 21 23 23 25 25 26 \
26 29 29 31 31 

