#    Name: 6tmf_2_ANP
#    Modification time : Fri May 22 19:37:47 2020

@<TRIPOS>MOLECULE
6tmf_2_ANP
   31    33     1     0     1
SMALL
NO_CHARGES


@<TRIPOS>ATOM
      1 PG        227.3840  134.6920  125.9490 P.3       1 ANP605      0.0000 
      2 O1G       226.0140  135.2670  125.7250 O.co2     1 ANP605      0.0000 
      3 O2G       227.2870  133.5210  126.8890 O.co2     1 ANP605      0.0000 
      4 O3G       228.3360  135.7250  126.4850 O.co2     1 ANP605      0.0000 
      5 PB        229.0290  132.8020  124.5290 P.3       1 ANP605      0.0000 
      6 O1B       229.5730  132.6270  125.9200 O.co2     1 ANP605      0.0000 
      7 O2B       230.1130  133.1230  123.5510 O.co2     1 ANP605      0.0000 
      8 N3B       227.9890  134.1340  124.4800 N.3       1 ANP605      0.0000 
      9 PA        228.7930  129.8990  124.2530 P.3       1 ANP605      0.0000 
     10 O1A       227.9640  129.2040  125.2940 O.co2     1 ANP605      0.0000 
     11 O2A       230.2270  129.8980  124.6800 O.co2     1 ANP605      0.0000 
     12 O3A       228.2560  131.4350  124.0530 O.3       1 ANP605      0.0000 
     13 O5'       228.6660  129.1050  122.8260 O.3       1 ANP605      0.0000 
     14 C5'       229.1390  129.7580  121.6930 C.3       1 ANP605      0.0000 
     15 C4'       228.5420  129.0480  120.4660 C.3       1 ANP605      0.0000 
     16 O4'       228.5220  127.7690  120.7010 O.3       1 ANP605      0.0000 
     17 C3'       227.0760  129.4800  120.3220 C.3       1 ANP605      0.0000 
     18 O3'       226.7900  129.7480  119.0270 O.3       1 ANP605      0.0000 
     19 C2'       226.2600  128.2620  120.7670 C.3       1 ANP605      0.0000 
     20 O2'       225.0030  128.2360  119.9710 O.3       1 ANP605      0.0000 
     21 C1'       227.0150  127.2600  120.4440 C.3       1 ANP605      0.0000 
     22 N9        226.7640  126.1490  121.3110 N.pl3     1 ANP605      0.0000 
     23 C8        226.7190  126.1460  122.6380 C.2       1 ANP605      0.0000 
     24 N7        226.4700  124.9050  123.0470 N.2       1 ANP605      0.0000 
     25 C5        226.3640  124.1380  121.9600 C.ar      1 ANP605      0.0000 
     26 C6        226.1120  122.7990  121.8030 C.ar      1 ANP605      0.0000 
     27 N6        225.8770  121.7450  122.7700 N.pl3     1 ANP605      0.0000 
     28 N1        226.0570  122.2800  120.5910 N.ar      1 ANP605      0.0000 
     29 C2        226.2470  123.0690  119.5110 C.ar      1 ANP605      0.0000 
     30 N3        226.4900  124.3840  119.6600 N.ar      1 ANP605      0.0000 
     31 C4        226.5460  124.9080  120.8890 C.ar      1 ANP605      0.0000 
@<TRIPOS>BOND
     1    1    2 ar   
     2    1    3 ar   
     3    1    4 ar   
     4    1    8 1    
     5    5    6 ar   
     6    5    7 ar   
     7    5    8 1    
     8    5   12 1    
     9    9   10 ar   
    10    9   11 ar   
    11    9   12 1    
    12    9   13 1    
    13   13   14 1    
    14   14   15 1    
    15   15   16 1    
    16   15   17 1    
    17   16   21 1    
    18   17   18 1    
    19   17   19 1    
    20   19   20 1    
    21   19   21 1    
    22   21   22 1    
    23   22   23 1    
    24   22   31 1    
    25   23   24 2    
    26   24   25 1    
    27   25   26 ar   
    28   25   31 ar   
    29   26   27 1    
    30   26   28 ar   
    31   28   29 ar   
    32   29   30 ar   
    33   30   31 ar   
@<TRIPOS>SUBSTRUCTURE
     1 ANP605      1 GROUP   
@<TRIPOS>SET
ATOM$ORANGE STATIC     ATOMS   COLORGROUP SYSTEM 
20 14 14 15 15 17 17 19 19 21 21 23 23 25 25 26 26 29 \
29 31 31 

