#    Name: 6tmf_1_ANP
#    Modification time : Fri May 22 19:37:39 2020

@<TRIPOS>MOLECULE
6tmf_1_ANP
   31    33     1     0     1
SMALL
NO_CHARGES


@<TRIPOS>ATOM
      1 PG        217.7930  142.5930  142.3310 P.3       1 ANP603      0.0000 
      2 O1G       218.2560  143.6070  141.3380 O.co2     1 ANP603      0.0000 
      3 O2G       218.9880  141.9450  142.9470 O.co2     1 ANP603      0.0000 
      4 O3G       216.9750  141.5460  141.6400 O.co2     1 ANP603      0.0000 
      5 PB        215.2510  143.3960  143.6840 P.3       1 ANP603      0.0000 
      6 O1B       214.7980  144.8180  143.7130 O.co2     1 ANP603      0.0000 
      7 O2B       214.6280  142.7350  142.5000 O.co2     1 ANP603      0.0000 
      8 N3B       216.9370  143.3490  143.5760 N.3       1 ANP603      0.0000 
      9 PA        213.2770  142.0050  145.2340 P.3       1 ANP603      0.0000 
     10 O1A       212.2580  142.8140  144.4890 O.co2     1 ANP603      0.0000 
     11 O2A       213.3210  140.6170  144.6690 O.co2     1 ANP603      0.0000 
     12 O3A       214.7530  142.6760  145.0630 O.3       1 ANP603      0.0000 
     13 O5'       212.8560  141.9920  146.8160 O.3       1 ANP603      0.0000 
     14 C5'       213.6950  142.6370  147.7170 C.3       1 ANP603      0.0000 
     15 C4'       213.8870  141.7470  148.9640 C.3       1 ANP603      0.0000 
     16 O4'       212.7910  141.0920  149.1870 O.3       1 ANP603      0.0000 
     17 C3'       214.9730  140.7020  148.6790 C.3       1 ANP603      0.0000 
     18 O3'       216.0010  140.8770  149.5340 O.3       1 ANP603      0.0000 
     19 C2'       214.3350  139.3320  148.9310 C.3       1 ANP603      0.0000 
     20 O2'       215.1440  138.5610  149.9140 O.3       1 ANP603      0.0000 
     21 C1'       213.1720  139.5510  149.4470 C.3       1 ANP603      0.0000 
     22 N9        212.2580  138.7510  148.7080 N.pl3     1 ANP603      0.0000 
     23 C8        212.0980  138.7510  147.3910 C.2       1 ANP603      0.0000 
     24 N7        211.1510  137.8630  147.1010 N.2       1 ANP603      0.0000 
     25 C5        210.7370  137.3170  148.2450 C.ar      1 ANP603      0.0000 
     26 C6        209.7840  136.3760  148.5180 C.ar      1 ANP603      0.0000 
     27 N6        208.9160  135.6190  147.6430 N.pl3     1 ANP603      0.0000 
     28 N1        209.5700  135.9920  149.7600 N.ar      1 ANP603      0.0000 
     29 C2        210.2700  136.5450  150.7710 C.ar      1 ANP603      0.0000 
     30 N3        211.1980  137.4840  150.5060 N.ar      1 ANP603      0.0000 
     31 C4        211.4210  137.8640  149.2410 C.ar      1 ANP603      0.0000 
@<TRIPOS>BOND
     1    1    2 ar   
     2    1    3 ar   
     3    1    4 ar   
     4    1    8 1    
     5    5    6 ar   
     6    5    7 ar   
     7    5    8 1    
     8    5   12 1    
     9    9   10 ar   
    10    9   11 ar   
    11    9   12 1    
    12    9   13 1    
    13   13   14 1    
    14   14   15 1    
    15   15   16 1    
    16   15   17 1    
    17   16   21 1    
    18   17   18 1    
    19   17   19 1    
    20   19   20 1    
    21   19   21 1    
    22   21   22 1    
    23   22   23 1    
    24   22   31 1    
    25   23   24 2    
    26   24   25 1    
    27   25   26 ar   
    28   25   31 ar   
    29   26   27 1    
    30   26   28 ar   
    31   28   29 ar   
    32   29   30 ar   
    33   30   31 ar   
@<TRIPOS>SUBSTRUCTURE
     1 ANP603      1 GROUP   
@<TRIPOS>SET
ATOM$ORANGE STATIC     ATOMS   COLORGROUP SYSTEM 
20 14 14 15 15 17 17 19 19 21 21 23 23 25 25 26 26 29 \
29 31 31 

