#    Name: 6el2_1_DCC
#    Modification time : Fri May 22 19:28:45 2020

@<TRIPOS>MOLECULE
6el2_1_DCC
   61    63     1     0     0
SMALL
NO_CHARGES


@<TRIPOS>ATOM
      1 C2        -16.2270   20.7080    8.6290 C.ar      1 DCC901      0.0000 
      2 C4        -13.9100   21.2400    8.8470 C.ar      1 DCC901      0.0000 
      3 C5        -14.2040   22.1010   10.0060 C.ar      1 DCC901      0.0000 
      4 C6        -15.6420   22.1910   10.3950 C.ar      1 DCC901      0.0000 
      5 C8        -12.0400   22.1220    9.6030 C.2       1 DCC901      0.0000 
      6 C10       -11.3530    5.5390    0.2000 C.3       1 DCC901      0.0000 
      7 C11       -12.4280    6.4710   -0.3600 C.3       1 DCC901      0.0000 
      8 C12       -12.0630    7.0460   -1.7080 C.3       1 DCC901      0.0000 
      9 N9        -12.5780   21.3060    8.6600 N.pl3     1 DCC901      0.0000 
     10 N7        -13.0150   22.6070   10.4150 N.2       1 DCC901      0.0000 
     11 N3        -14.9470   20.5890    8.2190 N.ar      1 DCC901      0.0000 
     12 N1        -16.5630   21.4840    9.6800 N.ar      1 DCC901      0.0000 
     13 N6        -16.0360   22.9550   11.4400 N.pl3     1 DCC901      0.0000 
     14 C1'       -11.8980   20.5350    7.5760 C.3       1 DCC901      0.0000 
     15 C2'       -10.7540   21.2600    6.9040 C.3       1 DCC901      0.0000 
     16 O2'       -11.2750   21.6730    5.6470 O.3       1 DCC901      0.0000 
     17 C3'        -9.5950   20.2750    6.8250 C.3       1 DCC901      0.0000 
     18 O3'        -9.2290   20.0240    5.4470 O.3       1 DCC901      0.0000 
     19 C4'       -10.0940   19.0310    7.5530 C.3       1 DCC901      0.0000 
     20 O4'       -11.3530   19.3390    8.1170 O.3       1 DCC901      0.0000 
     21 C5'        -9.2930   18.4800    8.7290 C.3       1 DCC901      0.0000 
     22 O5'        -8.9730   19.4380    9.7210 O.3       1 DCC901      0.0000 
     23 P1         -7.4590   19.5430   10.3360 P.3       1 DCC901      0.0000 
     24 O11        -6.5900   20.2000    9.2840 O.co2     1 DCC901      0.0000 
     25 O12        -7.4470   20.1450   11.7170 O.co2     1 DCC901      0.0000 
     26 O6         -7.0150   18.0100   10.6770 O.3       1 DCC901      0.0000 
     27 P2         -5.5430   17.4280   10.2660 P.3       1 DCC901      0.0000 
     28 O21        -5.5600   17.2380    8.7870 O.co2     1 DCC901      0.0000 
     29 O22        -4.4790   18.3470   10.8150 O.co2     1 DCC901      0.0000 
     30 O7         -5.4790   16.0960   11.1230 O.3       1 DCC901      0.0000 
     31 CPA        -5.7230   14.8260   10.5580 C.3       1 DCC901      0.0000 
     32 CPB        -4.9170   13.7400   11.2650 C.3       1 DCC901      0.0000 
     33 CP8        -4.5340   13.8430   12.7410 C.3       1 DCC901      0.0000 
     34 CP7        -4.8030   12.4440   10.4800 C.3       1 DCC901      0.0000 
     35 CP9        -3.5280   14.3120   10.7260 C.3       1 DCC901      0.0000 
     36 OP3        -5.7120   13.3090   13.3630 O.3       1 DCC901      0.0000 
     37 CP6        -3.3610   13.0100   13.2390 C.2       1 DCC901      0.0000 
     38 OP2        -2.1990   13.4180   13.1940 O.2       1 DCC901      0.0000 
     39 NP2        -3.6480   11.7600   13.6110 N.am      1 DCC901      0.0000 
     40 CP5        -2.6080   10.7520   13.6880 C.3       1 DCC901      0.0000 
     41 CP4        -3.1470    9.3660   14.0180 C.3       1 DCC901      0.0000 
     42 CP3        -4.1120    8.8260   12.9650 C.2       1 DCC901      0.0000 
     43 OP1        -5.1220    9.4650   12.6920 O.2       1 DCC901      0.0000 
     44 NP1        -3.7860    7.6800   12.3720 N.am      1 DCC901      0.0000 
     45 CP2        -4.4720    7.1020   11.2130 C.3       1 DCC901      0.0000 
     46 CP1        -4.2920    7.9630    9.9710 C.3       1 DCC901      0.0000 
     47 S          -5.3240    7.4870    8.5720 S.3       1 DCC901      0.0000 
     48 P3         -8.4170   21.1280    4.5390 P.3       1 DCC901      0.0000 
     49 O31        -7.4230   20.4560    3.6250 O.co2     1 DCC901      0.0000 
     50 O32        -9.4310   21.8850    3.6830 O.co2     1 DCC901      0.0000 
     51 O33        -7.7740   21.9330    5.6500 O.co2     1 DCC901      0.0000 
     52 CA1        -4.3010    6.5580    7.6130 C.2       1 DCC901      0.0000 
     53 CA2        -4.8870    5.7370    6.5110 C.3       1 DCC901      0.0000 
     54 OA1        -3.1170    6.5550    7.8310 O.2       1 DCC901      0.0000 
     55 CA3        -4.1650    5.7720    5.1770 C.3       1 DCC901      0.0000 
     56 CA4        -4.9470    4.9750    4.1340 C.3       1 DCC901      0.0000 
     57 CA5        -6.0940    5.8160    3.5870 C.3       1 DCC901      0.0000 
     58 CA6        -6.9430    5.0290    2.5800 C.3       1 DCC901      0.0000 
     59 CA7        -7.9300    5.9700    1.8680 C.3       1 DCC901      0.0000 
     60 CA8        -9.2630    5.3230    1.5340 C.3       1 DCC901      0.0000 
     61 CA9       -10.1820    6.3220    0.8130 C.3       1 DCC901      0.0000 
@<TRIPOS>BOND
     1    1   11 ar   
     2    1   12 ar   
     3    2    3 ar   
     4    2    9 1    
     5    2   11 ar   
     6    3    4 ar   
     7    3   10 1    
     8    4   12 ar   
     9    4   13 1    
    10    5    9 1    
    11    5   10 2    
    12    6    7 1    
    13    6   61 1    
    14    7    8 1    
    15    9   14 1    
    16   14   15 1    
    17   14   20 1    
    18   15   16 1    
    19   15   17 1    
    20   17   18 1    
    21   17   19 1    
    22   18   48 1    
    23   19   20 1    
    24   19   21 1    
    25   21   22 1    
    26   22   23 1    
    27   23   24 ar   
    28   23   25 ar   
    29   23   26 1    
    30   26   27 1    
    31   27   28 ar   
    32   27   29 ar   
    33   27   30 1    
    34   30   31 1    
    35   31   32 1    
    36   32   33 1    
    37   32   34 1    
    38   32   35 1    
    39   33   36 1    
    40   33   37 1    
    41   37   38 2    
    42   37   39 am   
    43   39   40 1    
    44   40   41 1    
    45   41   42 1    
    46   42   43 2    
    47   42   44 am   
    48   44   45 1    
    49   45   46 1    
    50   46   47 1    
    51   47   52 1    
    52   48   49 ar   
    53   48   50 ar   
    54   48   51 ar   
    55   52   53 1    
    56   52   54 2    
    57   53   55 1    
    58   55   56 1    
    59   56   57 1    
    60   57   58 1    
    61   58   59 1    
    62   59   60 1    
    63   60   61 1    
@<TRIPOS>SUBSTRUCTURE
     1 DCC901      1 GROUP   
@<TRIPOS>SET

