#    Name: 6el2_2_DCC
#    Modification time : Fri May 22 19:28:51 2020

@<TRIPOS>MOLECULE
6el2_2_DCC
   61    63     1     0     0
SMALL
NO_CHARGES


@<TRIPOS>ATOM
      1 C2         14.8480  -22.6930   -4.0420 C.ar      1 DCC901      0.0000 
      2 C4         13.6120  -21.3900   -5.6280 C.ar      1 DCC901      0.0000 
      3 C5         14.7260  -21.5200   -6.6080 C.ar      1 DCC901      0.0000 
      4 C6         15.9140  -22.3190   -6.1460 C.ar      1 DCC901      0.0000 
      5 C8         13.1340  -20.3100   -7.5140 C.2       1 DCC901      0.0000 
      6 C10         5.3330   -5.1710   -8.8620 C.3       1 DCC901      0.0000 
      7 C11         5.1950   -5.7200  -10.2950 C.3       1 DCC901      0.0000 
      8 C12         4.0090   -6.6450  -10.5000 C.3       1 DCC901      0.0000 
      9 N9         12.6800  -20.6470   -6.2710 N.pl3     1 DCC901      0.0000 
     10 N7         14.3720  -20.8310   -7.7330 N.2       1 DCC901      0.0000 
     11 N3         13.7350  -21.9930   -4.3860 N.ar      1 DCC901      0.0000 
     12 N1         15.8910  -22.8640   -4.8830 N.ar      1 DCC901      0.0000 
     13 N6         16.9780  -22.4890   -6.9790 N.pl3     1 DCC901      0.0000 
     14 C1'        11.3780  -20.1650   -5.7250 C.3       1 DCC901      0.0000 
     15 C2'        10.5020  -21.0850   -4.8910 C.3       1 DCC901      0.0000 
     16 O2'         9.6590  -21.8560   -5.7420 O.3       1 DCC901      0.0000 
     17 C3'         9.6480  -20.1100   -4.1070 C.3       1 DCC901      0.0000 
     18 O3'         8.3800  -19.8770   -4.7130 O.3       1 DCC901      0.0000 
     19 C4'        10.3880  -18.7910   -4.2130 C.3       1 DCC901      0.0000 
     20 O4'        11.6420  -19.0870   -4.8190 O.3       1 DCC901      0.0000 
     21 C5'        10.5200  -18.1410   -2.8660 C.3       1 DCC901      0.0000 
     22 O5'        11.3200  -18.9380   -2.0610 O.3       1 DCC901      0.0000 
     23 P1         10.8580  -19.1940   -0.5530 P.3       1 DCC901      0.0000 
     24 O11         9.4230  -19.6660   -0.4920 O.co2     1 DCC901      0.0000 
     25 O12        11.8450  -19.8830    0.3320 O.co2     1 DCC901      0.0000 
     26 O6         10.8950  -17.6210   -0.0430 O.3       1 DCC901      0.0000 
     27 P2          9.9860  -17.1160    1.1780 P.3       1 DCC901      0.0000 
     28 O21         8.6200  -16.7790    0.6640 O.co2     1 DCC901      0.0000 
     29 O22         9.9920  -18.1680    2.2430 O.co2     1 DCC901      0.0000 
     30 O7         10.7910  -15.8350    1.7080 O.3       1 DCC901      0.0000 
     31 CPA        10.4800  -14.5710    1.1770 C.3       1 DCC901      0.0000 
     32 CPB        10.5640  -13.5280    2.2560 C.3       1 DCC901      0.0000 
     33 CP8        11.5800  -13.7270    3.4140 C.3       1 DCC901      0.0000 
     34 CP7         9.9050  -12.1310    1.9700 C.3       1 DCC901      0.0000 
     35 CP9         9.2980  -14.0940    3.0170 C.3       1 DCC901      0.0000 
     36 OP3        12.7440  -13.2040    2.7440 O.3       1 DCC901      0.0000 
     37 CP6        11.3860  -12.9000    4.6860 C.2       1 DCC901      0.0000 
     38 OP2        10.8370  -13.3120    5.7010 O.2       1 DCC901      0.0000 
     39 NP2        11.7650  -11.6330    4.6660 N.am      1 DCC901      0.0000 
     40 CP5        11.4260  -10.7140    5.7430 C.3       1 DCC901      0.0000 
     41 CP4        11.9890   -9.3150    5.5130 C.3       1 DCC901      0.0000 
     42 CP3        11.6370   -8.7930    4.1220 C.2       1 DCC901      0.0000 
     43 OP1        12.0870   -9.2890    3.1230 O.2       1 DCC901      0.0000 
     44 NP1        10.8160   -7.7780    4.0560 N.am      1 DCC901      0.0000 
     45 CP2        10.3250   -7.2040    2.8280 C.3       1 DCC901      0.0000 
     46 CP1         8.9920   -7.7800    2.4210 C.3       1 DCC901      0.0000 
     47 S           8.6020   -7.3570    0.7070 S.3       1 DCC901      0.0000 
     48 P3          7.0700  -20.7170   -4.3000 P.3       1 DCC901      0.0000 
     49 O31         7.5560  -22.0080   -3.6690 O.co2     1 DCC901      0.0000 
     50 O32         6.3490  -19.9550   -3.2290 O.co2     1 DCC901      0.0000 
     51 O33         6.4240  -20.7780   -5.6550 O.co2     1 DCC901      0.0000 
     52 CA1         7.1880   -6.5340    1.0110 C.2       1 DCC901      0.0000 
     53 CA2         6.6160   -5.8090   -0.2050 C.3       1 DCC901      0.0000 
     54 OA1         6.7250   -6.5400    2.1280 O.2       1 DCC901      0.0000 
     55 CA3         5.1890   -5.2820   -0.1010 C.3       1 DCC901      0.0000 
     56 CA4         4.6540   -4.6260   -1.3760 C.3       1 DCC901      0.0000 
     57 CA5         4.9160   -5.4850   -2.6350 C.3       1 DCC901      0.0000 
     58 CA6         4.3820   -4.8970   -3.9210 C.3       1 DCC901      0.0000 
     59 CA7         4.6710   -5.8150   -5.1160 C.3       1 DCC901      0.0000 
     60 CA8         4.8680   -5.0390   -6.4060 C.3       1 DCC901      0.0000 
     61 CA9         4.6410   -5.9020   -7.6780 C.3       1 DCC901      0.0000 
@<TRIPOS>BOND
     1   17   19 1    
     2   18   48 1    
     3   19   20 1    
     4   19   21 1    
     5   21   22 1    
     6   22   23 1    
     7   23   24 ar   
     8   23   25 ar   
     9   23   26 1    
    10   26   27 1    
    11   27   28 ar   
    12   27   29 ar   
    13   27   30 1    
    14   30   31 1    
    15   31   32 1    
    16   32   33 1    
    17   32   34 1    
    18   32   35 1    
    19   33   36 1    
    20   33   37 1    
    21   37   38 2    
    22   37   39 am   
    23   39   40 1    
    24   40   41 1    
    25   41   42 1    
    26   42   43 2    
    27   42   44 am   
    28   44   45 1    
    29   45   46 1    
    30   46   47 1    
    31   47   52 1    
    32   48   49 ar   
    33   48   50 ar   
    34   48   51 ar   
    35   52   53 1    
    36   52   54 2    
    37   53   55 1    
    38   55   56 1    
    39   56   57 1    
    40   57   58 1    
    41   58   59 1    
    42   59   60 1    
    43   60   61 1    
    44    1   11 ar   
    45    1   12 ar   
    46    2    3 ar   
    47    2    9 1    
    48    2   11 ar   
    49    3    4 ar   
    50    3   10 1    
    51    4   12 ar   
    52    4   13 1    
    53    5    9 1    
    54    5   10 2    
    55    6   61 1    
    56    6    7 1    
    57    7    8 1    
    58    9   14 1    
    59   14   15 1    
    60   14   20 1    
    61   15   16 1    
    62   15   17 1    
    63   17   18 1    
@<TRIPOS>SUBSTRUCTURE
     1 DCC901      1 GROUP   
@<TRIPOS>SET

