#    Name: 6d2e_1_GDU
#    Modification time : Fri May 22 19:23:39 2020

@<TRIPOS>MOLECULE
6d2e_1_GDU
   36    38     1     0     0
SMALL
NO_CHARGES


@<TRIPOS>ATOM
      1 N1         17.1620   -5.5190   -8.2620 N.am      1 GDU402      0.0000 
      2 C2         16.0080   -6.2690   -8.1530 C.2       1 GDU402      0.0000 
      3 N3         14.8330   -5.5570   -8.2560 N.am      1 GDU402      0.0000 
      4 C4         14.7010   -4.2000   -8.4590 C.2       1 GDU402      0.0000 
      5 C5         15.9430   -3.4840   -8.5540 C.2       1 GDU402      0.0000 
      6 C6         17.1110   -4.1520   -8.4560 C.2       1 GDU402      0.0000 
      7 O2         16.0190   -7.4790   -7.9860 O.2       1 GDU402      0.0000 
      8 O4         13.5610   -3.7010   -8.5540 O.2       1 GDU402      0.0000 
      9 C1D        18.4410   -6.2640   -8.1650 C.3       1 GDU402      0.0000 
     10 C2D        18.7390   -7.1080   -9.4100 C.3       1 GDU402      0.0000 
     11 O2D        19.4870   -8.2700   -9.0690 O.3       1 GDU402      0.0000 
     12 C3D        19.5750   -6.1300  -10.2280 C.3       1 GDU402      0.0000 
     13 C4D        20.4140   -5.4680   -9.1450 C.3       1 GDU402      0.0000 
     14 O4D        19.5140   -5.3470   -8.0180 O.3       1 GDU402      0.0000 
     15 O3D        20.3570   -6.8100  -11.2070 O.3       1 GDU402      0.0000 
     16 C5D        20.9780   -4.1120   -9.4930 C.3       1 GDU402      0.0000 
     17 O5D        19.8950   -3.1600   -9.5590 O.3       1 GDU402      0.0000 
     18 PA         19.8620   -2.0210  -10.6880 P.3       1 GDU402      0.0000 
     19 O1A        18.4980   -1.8080  -11.2430 O.co2     1 GDU402      0.0000 
     20 O2A        20.8540   -2.3220  -11.8150 O.co2     1 GDU402      0.0000 
     21 O3A        20.3460   -0.6840   -9.9650 O.3       1 GDU402      0.0000 
     22 PB         21.6590   -0.2530   -9.1730 P.3       1 GDU402      0.0000 
     23 O1B        21.3000    0.1520   -7.7920 O.co2     1 GDU402      0.0000 
     24 O2B        22.6680   -1.4110   -9.1610 O.co2     1 GDU402      0.0000 
     25 O3B        22.3670    0.9220  -10.0340 O.3       1 GDU402      0.0000 
     26 C1'        21.5840    1.9580  -10.5470 C.3       1 GDU402      0.0000 
     27 C2'        21.2710    1.8190  -12.0340 C.3       1 GDU402      0.0000 
     28 C3'        22.5480    2.0030  -12.8450 C.3       1 GDU402      0.0000 
     29 C4'        23.2070    3.3290  -12.4880 C.3       1 GDU402      0.0000 
     30 C5'        23.4810    3.3750  -10.9850 C.3       1 GDU402      0.0000 
     31 C6'        24.0690    4.7000  -10.5280 C.3       1 GDU402      0.0000 
     32 O2'        20.7380    0.5200  -12.2720 O.3       1 GDU402      0.0000 
     33 O3'        22.2730    1.9380  -14.2390 O.3       1 GDU402      0.0000 
     34 O4'        22.3400    4.4050  -12.8380 O.3       1 GDU402      0.0000 
     35 O5'        22.2480    3.1860  -10.2650 O.3       1 GDU402      0.0000 
     36 O6'        24.9640    4.5690   -9.4260 O.3       1 GDU402      0.0000 
@<TRIPOS>BOND
     1    1    2 1    
     2    1    6 1    
     3    1    9 1    
     4    2    3 1    
     5    2    7 2    
     6    3    4 1    
     7    4    5 1    
     8    4    8 2    
     9    5    6 2    
    10    9   10 1    
    11    9   14 1    
    12   10   11 1    
    13   10   12 1    
    14   12   13 1    
    15   12   15 1    
    16   13   14 1    
    17   13   16 1    
    18   16   17 1    
    19   17   18 1    
    20   18   19 ar   
    21   18   20 ar   
    22   18   21 1    
    23   21   22 1    
    24   22   23 ar   
    25   22   24 ar   
    26   22   25 1    
    27   25   26 1    
    28   26   27 1    
    29   26   35 1    
    30   27   28 1    
    31   27   32 1    
    32   28   29 1    
    33   28   33 1    
    34   29   30 1    
    35   29   34 1    
    36   30   31 1    
    37   30   35 1    
    38   31   36 1    
@<TRIPOS>SUBSTRUCTURE
     1 GDU402      1 GROUP   
@<TRIPOS>SET

