#    Name: 6d2e_1_GDU_CAVITY_N1_4
#    Modification time : Fri May 22 19:23:40 2020

@<TRIPOS>MOLECULE
6d2e_1_GDU_CAVITY_N1_4
   68     0     5     0     0
SMALL
NO_CHARGES


@<TRIPOS>ATOM
      1 OG         19.8800   -8.7100  -10.2800 O.3       1 SER1        0.0000 
      2 OG         19.1300   -7.4200  -10.3900 O.3       1 SER1        0.0000 
      3 OG         20.0300  -10.2500   -8.8200 O.3       1 SER1        0.0000 
      4 OG         18.5100   -7.6700   -9.0400 O.3       1 SER1        0.0000 
      5 OG         18.6600   -9.2000   -7.5900 O.3       1 SER1        0.0000 
      6 OG         17.9000   -7.9100   -7.7000 O.3       1 SER1        0.0000 
      7 OG         20.4100   -8.2300   -8.2800 O.3       1 SER1        0.0000 
      8 OG         18.5200   -2.3500   -8.0700 O.3       1 SER1        0.0000 
      9 OG         17.9100   -2.5900   -6.7300 O.3       1 SER1        0.0000 
     10 OG         19.0500   -1.8700   -6.0700 O.3       1 SER1        0.0000 
     11 N          15.2400   -6.0600   -8.5700 N.am      2 ALA2        0.0000 
     12 N          14.4900   -4.7700   -8.6800 N.am      2 ALA2        0.0000 
     13 N          15.7700   -5.5800   -6.5700 N.am      2 ALA2        0.0000 
     14 O          21.6400   -7.7400  -10.9700 O.2       2 ALA2        0.0000 
     15 O          21.7800   -9.2800   -9.5200 O.2       2 ALA2        0.0000 
     16 O          21.0200   -7.9900   -9.6300 O.2       2 ALA2        0.0000 
     17 N          20.2700   -6.7000   -9.7400 N.am      2 ALA2        0.0000 
     18 N          19.5100   -5.4100   -9.8500 N.am      2 ALA2        0.0000 
     19 O          23.5400   -8.3100  -10.2100 O.2       2 ALA2        0.0000 
     20 O          22.7800   -7.0200  -10.3200 O.2       2 ALA2        0.0000 
     21 O          22.9200   -8.5500   -8.8700 O.2       2 ALA2        0.0000 
     22 N          22.3100   -8.8000   -7.5200 N.am      2 ALA2        0.0000 
     23 CZ         16.6200   -7.1000   -9.8100 C.ar      3 PHE5        0.0000 
     24 CZ         18.3700   -6.1300  -10.5000 C.ar      3 PHE5        0.0000 
     25 CZ         17.7600   -6.3800   -9.1500 C.ar      3 PHE5        0.0000 
     26 CZ         17.0000   -5.0900   -9.2600 C.ar      3 PHE5        0.0000 
     27 CZ         16.2400   -3.8000   -9.3700 C.ar      3 PHE5        0.0000 
     28 CZ         16.3800   -5.3300   -7.9200 C.ar      3 PHE5        0.0000 
     29 CZ         15.6300   -4.0400   -8.0300 C.ar      3 PHE5        0.0000 
     30 CZ         18.7500   -4.1200   -9.9600 C.ar      3 PHE5        0.0000 
     31 CZ         17.9900   -2.8300  -10.0700 C.ar      3 PHE5        0.0000 
     32 CZ         18.1400   -4.3600   -8.6100 C.ar      3 PHE5        0.0000 
     33 CZ         17.3800   -3.0700   -8.7200 C.ar      3 PHE5        0.0000 
     34 CZ         16.7700   -3.3200   -7.3800 C.ar      3 PHE5        0.0000 
     35 CZ         16.9100   -4.8500   -5.9200 C.ar      3 PHE5        0.0000 
     36 CZ         16.1500   -3.5600   -6.0300 C.ar      3 PHE5        0.0000 
     37 CZ         16.3000   -5.1000   -4.5700 C.ar      3 PHE5        0.0000 
     38 CZ         17.2900   -2.8400   -5.3800 C.ar      3 PHE5        0.0000 
     39 CZ         20.5700    0.8700   -4.8800 C.ar      3 PHE5        0.0000 
     40 CA         16.0000   -7.3500   -8.4600 C.3       4 GLY6        0.0000 
     41 CA         15.3900   -7.5900   -7.1100 C.3       4 GLY6        0.0000 
     42 CA         19.4100  -10.4900   -7.4700 C.3       4 GLY6        0.0000 
     43 CA         17.2900   -8.1600   -6.3500 C.3       4 GLY6        0.0000 
     44 CA         16.5300   -6.8700   -6.4600 C.3       4 GLY6        0.0000 
     45 CA         15.1600   -5.8200   -5.2200 C.3       4 GLY6        0.0000 
     46 CA         21.1700   -9.5200   -8.1700 C.3       4 GLY6        0.0000 
     47 CA         20.5500   -9.7700   -6.8200 C.3       4 GLY6        0.0000 
     48 CA         19.1800   -8.7200   -5.5900 C.3       4 GLY6        0.0000 
     49 CA         18.4300   -7.4300   -5.7000 C.3       4 GLY6        0.0000 
     50 CA         17.0500   -6.3900   -4.4600 C.3       4 GLY6        0.0000 
     51 CA         21.6900   -9.0400   -6.1700 C.3       4 GLY6        0.0000 
     52 DU         17.1400   -6.6200   -7.8100 H         5 CUB7        0.0000 
     53 DU         19.6500   -6.9400   -8.3900 H         5 CUB7        0.0000 
     54 DU         18.9000   -5.6500   -8.5000 H         5 CUB7        0.0000 
     55 DU         19.8000   -8.4800   -6.9300 H         5 CUB7        0.0000 
     56 DU         19.0400   -7.1900   -7.0400 H         5 CUB7        0.0000 
     57 DU         17.5200   -4.6100   -7.2700 H         5 CUB7        0.0000 
     58 DU         17.6700   -6.1400   -5.8100 H         5 CUB7        0.0000 
     59 DU         22.1600   -7.2600   -8.9800 H         5 CUB7        0.0000 
     60 DU         21.5500   -7.5100   -7.6300 H         5 CUB7        0.0000 
     61 DU         19.2800   -3.6400   -7.9600 H         5 CUB7        0.0000 
     62 DU         20.9400   -7.7500   -6.2800 H         5 CUB7        0.0000 
     63 DU         18.6600   -3.8800   -6.6100 H         5 CUB7        0.0000 
     64 DU         19.5700   -6.7100   -5.0500 H         5 CUB7        0.0000 
     65 DU         18.8100   -5.4200   -5.1600 H         5 CUB7        0.0000 
     66 DU         18.0500   -4.1300   -5.2700 H         5 CUB7        0.0000 
     67 DU         19.8000   -3.1600   -5.9600 H         5 CUB7        0.0000 
     68 DU         19.9500   -4.6900   -4.5100 H         5 CUB7        0.0000 
@<TRIPOS>BOND
@<TRIPOS>SUBSTRUCTURE
     1 SER1        1 GROUP   
     2 ALA2       11 GROUP   
     3 PHE5       23 GROUP   
     4 GLY6       40 GROUP   
     5 CUB7       52 GROUP   
@<TRIPOS>SET

