#    Name: 6r4n_4_ERG
#    Modification time : Fri May 22 19:28:38 2020

@<TRIPOS>MOLECULE
6r4n_4_ERG
   29    32     1     0     0
SMALL
NO_CHARGES


@<TRIPOS>ATOM
      1 C1        -47.5710  -69.8600  -57.5450 C.3       1 ERG302      0.0000 
      2 C2        -48.2880  -70.1630  -58.8640 C.3       1 ERG302      0.0000 
      3 C3        -48.5740  -71.6470  -59.0160 C.3       1 ERG302      0.0000 
      4 C4        -49.3780  -72.1530  -57.8330 C.3       1 ERG302      0.0000 
      5 C5        -48.7370  -71.7760  -56.5200 C.2       1 ERG302      0.0000 
      6 C6        -48.4960  -72.6950  -55.5810 C.2       1 ERG302      0.0000 
      7 C7        -47.8680  -72.3860  -54.3630 C.2       1 ERG302      0.0000 
      8 C8        -47.4380  -71.1790  -54.0820 C.2       1 ERG302      0.0000 
      9 C9        -47.6070  -70.0190  -55.0320 C.3       1 ERG302      0.0000 
     10 C10       -48.4050  -70.3020  -56.3340 C.3       1 ERG302      0.0000 
     11 C11       -48.1900  -68.8080  -54.2890 C.3       1 ERG302      0.0000 
     12 C12       -47.4840  -68.4970  -52.9670 C.3       1 ERG302      0.0000 
     13 C13       -47.4250  -69.7050  -52.0150 C.3       1 ERG302      0.0000 
     14 C14       -46.7210  -70.8330  -52.8080 C.3       1 ERG302      0.0000 
     15 C15       -46.4360  -71.9020  -51.7460 C.3       1 ERG302      0.0000 
     16 C16       -46.1530  -71.0980  -50.4650 C.3       1 ERG302      0.0000 
     17 C17       -46.4660  -69.6240  -50.8000 C.3       1 ERG302      0.0000 
     18 C18       -48.8410  -70.1540  -51.6150 C.3       1 ERG302      0.0000 
     19 C19       -49.7310  -69.5150  -56.3310 C.3       1 ERG302      0.0000 
     20 C20       -46.8860  -68.8490  -49.5340 C.3       1 ERG302      0.0000 
     21 C21       -47.5200  -67.4840  -49.8190 C.3       1 ERG302      0.0000 
     22 C22       -45.6790  -68.6410  -48.6590 C.2       1 ERG302      0.0000 
     23 C23       -45.6270  -67.8630  -47.6020 C.2       1 ERG302      0.0000 
     24 C24       -44.4410  -67.0580  -47.1500 C.3       1 ERG302      0.0000 
     25 C25       -44.3120  -65.7360  -47.9430 C.3       1 ERG302      0.0000 
     26 C26       -45.6450  -65.0660  -48.2850 C.3       1 ERG302      0.0000 
     27 C27       -43.3470  -64.7230  -47.3200 C.3       1 ERG302      0.0000 
     28 C28       -44.5140  -66.8290  -45.6400 C.3       1 ERG302      0.0000 
     29 O1        -49.3180  -71.8780  -60.2150 O.3       1 ERG302      0.0000 
@<TRIPOS>BOND
     1    1    2 1    
     2    1   10 1    
     3    2    3 1    
     4    3    4 1    
     5    3   29 1    
     6    4    5 1    
     7    5    6 2    
     8    5   10 1    
     9    6    7 1    
    10    7    8 2    
    11    8    9 1    
    12    8   14 1    
    13    9   10 1    
    14    9   11 1    
    15   10   19 1    
    16   11   12 1    
    17   12   13 1    
    18   13   14 1    
    19   13   17 1    
    20   13   18 1    
    21   14   15 1    
    22   15   16 1    
    23   16   17 1    
    24   17   20 1    
    25   20   21 1    
    26   20   22 1    
    27   22   23 2    
    28   23   24 1    
    29   24   25 1    
    30   24   28 1    
    31   25   26 1    
    32   25   27 1    
@<TRIPOS>SUBSTRUCTURE
     1 ERG302      1 GROUP   
@<TRIPOS>SET

