#    Name: 6r4n_5_ERG
#    Modification time : Fri May 22 19:28:40 2020

@<TRIPOS>MOLECULE
6r4n_5_ERG
   29    32     1     0     0
SMALL
NO_CHARGES


@<TRIPOS>ATOM
      1 C1        -51.2260  -91.6030   57.7070 C.3       1 ERG304      0.0000 
      2 C2        -51.9800  -92.8770   57.3500 C.3       1 ERG304      0.0000 
      3 C3        -51.1760  -94.0690   57.8050 C.3       1 ERG304      0.0000 
      4 C4        -51.0190  -94.0450   59.3110 C.3       1 ERG304      0.0000 
      5 C5        -50.5160  -92.7250   59.8630 C.2       1 ERG304      0.0000 
      6 C6        -49.8200  -92.7280   61.0050 C.2       1 ERG304      0.0000 
      7 C7        -49.3430  -91.5250   61.5540 C.2       1 ERG304      0.0000 
      8 C8        -49.4220  -90.3750   60.9030 C.2       1 ERG304      0.0000 
      9 C9        -49.9850  -90.3140   59.4800 C.3       1 ERG304      0.0000 
     10 C10       -51.0380  -91.4360   59.2240 C.3       1 ERG304      0.0000 
     11 C11       -50.2860  -88.9070   58.9290 C.3       1 ERG304      0.0000 
     12 C12       -49.2320  -87.8880   59.3550 C.3       1 ERG304      0.0000 
     13 C13       -49.2150  -87.7360   60.8820 C.3       1 ERG304      0.0000 
     14 C14       -48.7730  -89.1110   61.4440 C.3       1 ERG304      0.0000 
     15 C15       -48.6490  -88.8510   62.9510 C.3       1 ERG304      0.0000 
     16 C16       -47.9580  -87.4660   62.9750 C.3       1 ERG304      0.0000 
     17 C17       -48.0790  -86.8900   61.5330 C.3       1 ERG304      0.0000 
     18 C18       -50.6220  -87.3850   61.4030 C.3       1 ERG304      0.0000 
     19 C19       -52.3920  -91.0940   59.8740 C.3       1 ERG304      0.0000 
     20 C20       -48.1290  -85.3450   61.5410 C.3       1 ERG304      0.0000 
     21 C21       -48.9900  -84.7230   60.4440 C.3       1 ERG304      0.0000 
     22 C22       -46.7250  -84.8040   61.3910 C.2       1 ERG304      0.0000 
     23 C23       -46.3100  -83.6030   61.7370 C.2       1 ERG304      0.0000 
     24 C24       -45.3310  -82.7360   60.9810 C.3       1 ERG304      0.0000 
     25 C25       -45.5730  -82.7200   59.4540 C.3       1 ERG304      0.0000 
     26 C26       -47.0080  -82.3920   59.0460 C.3       1 ERG304      0.0000 
     27 C27       -44.6030  -81.7900   58.7150 C.3       1 ERG304      0.0000 
     28 C28       -45.3580  -81.3310   61.5770 C.3       1 ERG304      0.0000 
     29 O1        -51.8370  -95.2840   57.4310 O.3       1 ERG304      0.0000 
@<TRIPOS>BOND
     1    1    2 1    
     2    1   10 1    
     3    2    3 1    
     4    3    4 1    
     5    3   29 1    
     6    4    5 1    
     7    5    6 2    
     8    5   10 1    
     9    6    7 1    
    10    7    8 2    
    11    8    9 1    
    12    8   14 1    
    13    9   10 1    
    14    9   11 1    
    15   10   19 1    
    16   11   12 1    
    17   12   13 1    
    18   13   14 1    
    19   13   17 1    
    20   13   18 1    
    21   14   15 1    
    22   15   16 1    
    23   16   17 1    
    24   17   20 1    
    25   20   21 1    
    26   20   22 1    
    27   22   23 2    
    28   23   24 1    
    29   24   25 1    
    30   24   28 1    
    31   25   26 1    
    32   25   27 1    
@<TRIPOS>SUBSTRUCTURE
     1 ERG304      1 GROUP   
@<TRIPOS>SET

