#    Name: 6r4n_3_ERG
#    Modification time : Fri May 22 19:28:36 2020

@<TRIPOS>MOLECULE
6r4n_3_ERG
   29    32     1     0     0
SMALL
NO_CHARGES


@<TRIPOS>ATOM
      1 C1        -39.2580  -36.8880   42.9680 C.3       1 ERG305      0.0000 
      2 C2        -39.0100  -35.5980   42.2020 C.3       1 ERG305      0.0000 
      3 C3        -40.2700  -35.2350   41.4620 C.3       1 ERG305      0.0000 
      4 C4        -41.3870  -34.9420   42.4470 C.3       1 ERG305      0.0000 
      5 C5        -41.5940  -36.0230   43.4940 C.2       1 ERG305      0.0000 
      6 C6        -42.8120  -36.1970   44.0340 C.2       1 ERG305      0.0000 
      7 C7        -43.0180  -37.1980   45.0330 C.2       1 ERG305      0.0000 
      8 C8        -42.0610  -38.0860   45.3390 C.2       1 ERG305      0.0000 
      9 C9        -40.7780  -38.1440   44.5100 C.3       1 ERG305      0.0000 
     10 C10       -40.3490  -36.7240   44.0420 C.3       1 ERG305      0.0000 
     11 C11       -39.6050  -38.9880   45.0550 C.3       1 ERG305      0.0000 
     12 C12       -39.9270  -40.0050   46.1500 C.3       1 ERG305      0.0000 
     13 C13       -40.8510  -39.4100   47.2190 C.3       1 ERG305      0.0000 
     14 C14       -42.1750  -39.1130   46.4590 C.3       1 ERG305      0.0000 
     15 C15       -43.1970  -38.9620   47.5760 C.3       1 ERG305      0.0000 
     16 C16       -42.9100  -40.2630   48.3240 C.3       1 ERG305      0.0000 
     17 C17       -41.3680  -40.4090   48.3260 C.3       1 ERG305      0.0000 
     18 C18       -40.2710  -38.0850   47.7540 C.3       1 ERG305      0.0000 
     19 C19       -39.7880  -35.8810   45.2040 C.3       1 ERG305      0.0000 
     20 C20       -40.8150  -40.3550   49.7720 C.3       1 ERG305      0.0000 
     21 C21       -39.3360  -39.9850   49.8940 C.3       1 ERG305      0.0000 
     22 C22       -40.8700  -41.7140   50.4240 C.2       1 ERG305      0.0000 
     23 C23       -39.9050  -42.6170   50.3580 C.2       1 ERG305      0.0000 
     24 C24       -39.0820  -43.1530   51.5200 C.3       1 ERG305      0.0000 
     25 C25       -38.6580  -44.6310   51.3590 C.3       1 ERG305      0.0000 
     26 C26       -37.1440  -44.7850   51.1660 C.3       1 ERG305      0.0000 
     27 C27       -39.1380  -45.5360   52.4990 C.3       1 ERG305      0.0000 
     28 C28       -37.8690  -42.2410   51.7340 C.3       1 ERG305      0.0000 
     29 O1        -40.0370  -34.1060   40.6190 O.3       1 ERG305      0.0000 
@<TRIPOS>BOND
     1    1    2 1    
     2    1   10 1    
     3    2    3 1    
     4    3    4 1    
     5    3   29 1    
     6    4    5 1    
     7    5    6 2    
     8    5   10 1    
     9    6    7 1    
    10    7    8 2    
    11    8    9 1    
    12    8   14 1    
    13    9   10 1    
    14    9   11 1    
    15   10   19 1    
    16   11   12 1    
    17   12   13 1    
    18   13   14 1    
    19   13   17 1    
    20   13   18 1    
    21   14   15 1    
    22   15   16 1    
    23   16   17 1    
    24   17   20 1    
    25   20   21 1    
    26   20   22 1    
    27   22   23 2    
    28   23   24 1    
    29   24   25 1    
    30   24   28 1    
    31   25   26 1    
    32   25   27 1    
@<TRIPOS>SUBSTRUCTURE
     1 ERG305      1 GROUP   
@<TRIPOS>SET

