#    Name: 6r4n_1_ERG
#    Modification time : Fri May 22 19:28:30 2020

@<TRIPOS>MOLECULE
6r4n_1_ERG
   29    32     1     0     0
SMALL
NO_CHARGES


@<TRIPOS>ATOM
      1 C1        -62.0850  -79.2110   -1.1620 C.3       1 ERG302      0.0000 
      2 C2        -63.3070  -79.8900   -1.7890 C.3       1 ERG302      0.0000 
      3 C3        -63.1010  -81.3880   -1.9040 C.3       1 ERG302      0.0000 
      4 C4        -62.7920  -81.9830   -0.5420 C.3       1 ERG302      0.0000 
      5 C5        -61.6670  -81.2550    0.1570 C.2       1 ERG302      0.0000 
      6 C6        -60.6260  -81.9210    0.6680 C.2       1 ERG302      0.0000 
      7 C7        -59.5480  -81.2840    1.3120 C.2       1 ERG302      0.0000 
      8 C8        -59.4660  -79.9700    1.4050 C.2       1 ERG302      0.0000 
      9 C9        -60.5230  -79.0540    0.8140 C.3       1 ERG302      0.0000 
     10 C10       -61.8030  -79.7420    0.2530 C.3       1 ERG302      0.0000 
     11 C11       -60.8810  -77.9130    1.7810 C.3       1 ERG302      0.0000 
     12 C12       -59.6710  -77.2370    2.4340 C.3       1 ERG302      0.0000 
     13 C13       -58.7470  -78.2400    3.1500 C.3       1 ERG302      0.0000 
     14 C14       -58.3070  -79.2590    2.0670 C.3       1 ERG302      0.0000 
     15 C15       -57.1870  -80.0530    2.7490 C.3       1 ERG302      0.0000 
     16 C16       -56.4930  -79.0310    3.6660 C.3       1 ERG302      0.0000 
     17 C17       -57.3520  -77.7490    3.6250 C.3       1 ERG302      0.0000 
     18 C18       -59.5000  -78.9640    4.2780 C.3       1 ERG302      0.0000 
     19 C19       -63.0220  -79.4330    1.1490 C.3       1 ERG302      0.0000 
     20 C20       -57.2260  -76.9620    4.9450 C.3       1 ERG302      0.0000 
     21 C21       -58.2590  -75.8410    5.0910 C.3       1 ERG302      0.0000 
     22 C22       -55.8450  -76.3600    5.0550 C.2       1 ERG302      0.0000 
     23 C23       -55.1890  -76.1060    6.1700 C.2       1 ERG302      0.0000 
     24 C24       -54.6540  -74.7510    6.6000 C.3       1 ERG302      0.0000 
     25 C25       -53.5300  -74.1720    5.7120 C.3       1 ERG302      0.0000 
     26 C26       -53.4060  -72.6590    5.9010 C.3       1 ERG302      0.0000 
     27 C27       -52.1640  -74.8250    5.9150 C.3       1 ERG302      0.0000 
     28 C28       -55.8260  -73.7760    6.7410 C.3       1 ERG302      0.0000 
     29 O1        -64.2820  -82.0010   -2.4280 O.3       1 ERG302      0.0000 
@<TRIPOS>BOND
     1    1    2 1    
     2    1   10 1    
     3    2    3 1    
     4    3    4 1    
     5    3   29 1    
     6    4    5 1    
     7    5    6 2    
     8    5   10 1    
     9    6    7 1    
    10    7    8 2    
    11    8    9 1    
    12    8   14 1    
    13    9   10 1    
    14    9   11 1    
    15   10   19 1    
    16   11   12 1    
    17   12   13 1    
    18   13   14 1    
    19   13   17 1    
    20   13   18 1    
    21   14   15 1    
    22   15   16 1    
    23   16   17 1    
    24   17   20 1    
    25   20   21 1    
    26   20   22 1    
    27   22   23 2    
    28   23   24 1    
    29   24   25 1    
    30   24   28 1    
    31   25   26 1    
    32   25   27 1    
@<TRIPOS>SUBSTRUCTURE
     1 ERG302      1 GROUP   
@<TRIPOS>SET

