#    Name: 6r4n_2_ERG
#    Modification time : Fri May 22 19:28:32 2020

@<TRIPOS>MOLECULE
6r4n_2_ERG
   29    32     1     0     0
SMALL
NO_CHARGES


@<TRIPOS>ATOM
      1 C1        -48.1510  -29.2070   23.0710 C.3       1 ERG302      0.0000 
      2 C2        -48.7650  -27.9390   23.6700 C.3       1 ERG302      0.0000 
      3 C3        -49.5780  -28.2640   24.9080 C.3       1 ERG302      0.0000 
      4 C4        -48.7080  -28.9560   25.9400 C.3       1 ERG302      0.0000 
      5 C5        -47.9680  -30.1370   25.3570 C.2       1 ERG302      0.0000 
      6 C6        -47.9770  -31.3250   25.9740 C.2       1 ERG302      0.0000 
      7 C7        -47.3200  -32.4610   25.4610 C.2       1 ERG302      0.0000 
      8 C8        -46.7000  -32.4380   24.3000 C.2       1 ERG302      0.0000 
      9 C9        -46.6540  -31.1940   23.4290 C.3       1 ERG302      0.0000 
     10 C10       -47.1990  -29.8840   24.0640 C.3       1 ERG302      0.0000 
     11 C11       -45.2570  -30.9570   22.8370 C.3       1 ERG302      0.0000 
     12 C12       -44.6020  -32.2200   22.2790 C.3       1 ERG302      0.0000 
     13 C13       -44.5550  -33.3640   23.3060 C.3       1 ERG302      0.0000 
     14 C14       -46.0240  -33.6450   23.7060 C.3       1 ERG302      0.0000 
     15 C15       -45.9510  -34.9730   24.4760 C.3       1 ERG302      0.0000 
     16 C16       -44.8000  -35.7440   23.8020 C.3       1 ERG302      0.0000 
     17 C17       -44.1620  -34.7700   22.7850 C.3       1 ERG302      0.0000 
     18 C18       -43.7480  -32.9490   24.5490 C.3       1 ERG302      0.0000 
     19 C19       -46.0470  -28.9060   24.3730 C.3       1 ERG302      0.0000 
     20 C20       -42.6770  -35.1030   22.5400 C.3       1 ERG302      0.0000 
     21 C21       -41.9780  -34.1500   21.5680 C.3       1 ERG302      0.0000 
     22 C22       -42.5570  -36.4810   21.9710 C.2       1 ERG302      0.0000 
     23 C23       -41.4500  -37.0300   21.5250 C.2       1 ERG302      0.0000 
     24 C24       -41.3350  -38.2500   20.6470 C.3       1 ERG302      0.0000 
     25 C25       -42.3780  -39.3510   20.9310 C.3       1 ERG302      0.0000 
     26 C26       -43.8020  -38.9560   20.5660 C.3       1 ERG302      0.0000 
     27 C27       -41.9930  -40.6150   20.1830 C.3       1 ERG302      0.0000 
     28 C28       -41.3130  -37.8400   19.1720 C.3       1 ERG302      0.0000 
     29 O1        -50.1210  -27.0730   25.4820 O.3       1 ERG302      0.0000 
@<TRIPOS>BOND
     1    1    2 1    
     2    1   10 1    
     3    2    3 1    
     4    3    4 1    
     5    3   29 1    
     6    4    5 1    
     7    5    6 2    
     8    5   10 1    
     9    6    7 1    
    10    7    8 2    
    11    8    9 1    
    12    8   14 1    
    13    9   10 1    
    14    9   11 1    
    15   10   19 1    
    16   11   12 1    
    17   12   13 1    
    18   13   14 1    
    19   13   17 1    
    20   13   18 1    
    21   14   15 1    
    22   15   16 1    
    23   16   17 1    
    24   17   20 1    
    25   20   21 1    
    26   20   22 1    
    27   22   23 2    
    28   23   24 1    
    29   24   25 1    
    30   24   28 1    
    31   25   26 1    
    32   25   27 1    
@<TRIPOS>SUBSTRUCTURE
     1 ERG302      1 GROUP   
@<TRIPOS>SET

