#    Name: 5wkc_5_FAD
#    Modification time : Fri May 22 19:13:45 2020

@<TRIPOS>MOLECULE
5wkc_5_FAD
   53    58     1     0     1
SMALL
NO_CHARGES


@<TRIPOS>ATOM
      1 PA         16.9200  471.4770  113.3880 P.3       1 FAD703      0.0000 
      2 O1A        17.1130  472.0110  114.6900 O.co2     1 FAD703      0.0000 
      3 O2A        17.6020  470.2810  113.2960 O.co2     1 FAD703      0.0000 
      4 O5B        15.3830  471.2720  113.1240 O.3       1 FAD703      0.0000 
      5 C5B        14.9250  470.7240  111.8900 C.3       1 FAD703      0.0000 
      6 C4B        13.4160  470.6480  111.8230 C.3       1 FAD703      0.0000 
      7 O4B        13.0090  469.9110  110.7090 O.3       1 FAD703      0.0000 
      8 C3B        12.9080  469.9120  112.9830 C.3       1 FAD703      0.0000 
      9 O3B        11.7150  470.4970  113.4400 O.3       1 FAD703      0.0000 
     10 C2B        12.8220  468.5420  112.5140 C.3       1 FAD703      0.0000 
     11 O2B        11.8320  467.8630  113.1970 O.3       1 FAD703      0.0000 
     12 C1B        12.4770  468.6860  111.1300 C.3       1 FAD703      0.0000 
     13 N9A        12.8120  467.6310  110.3010 N.pl3     1 FAD703      0.0000 
     14 C8A        13.7700  466.7960  110.4340 C.2       1 FAD703      0.0000 
     15 N7A        13.7490  465.9620  109.4650 N.2       1 FAD703      0.0000 
     16 C5A        12.7460  466.2430  108.6600 C.ar      1 FAD703      0.0000 
     17 C6A        12.2460  465.6810  107.4670 C.ar      1 FAD703      0.0000 
     18 N6A        12.8600  464.6020  106.9390 N.pl3     1 FAD703      0.0000 
     19 N1A        11.1970  466.2600  106.9160 N.ar      1 FAD703      0.0000 
     20 C2A        10.6560  467.2890  107.4860 C.ar      1 FAD703      0.0000 
     21 N3A        11.0800  467.8390  108.6030 N.ar      1 FAD703      0.0000 
     22 C4A        12.1320  467.3370  109.2130 C.ar      1 FAD703      0.0000 
     23 N1         21.0170  479.2440  113.4830 N.2       1 FAD703      0.0000 
     24 C2         20.6340  480.0330  112.4280 C.2       1 FAD703      0.0000 
     25 O2         19.9740  479.5700  111.5970 O.2       1 FAD703      0.0000 
     26 N3         21.0390  481.3040  112.3270 N.am      1 FAD703      0.0000 
     27 C4         21.8170  481.8360  113.2840 C.2       1 FAD703      0.0000 
     28 O4         22.1280  482.9390  113.1650 O.2       1 FAD703      0.0000 
     29 C4X        22.2450  481.0120  114.4470 C.2       1 FAD703      0.0000 
     30 N5         23.0490  481.5180  115.4010 N.2       1 FAD703      0.0000 
     31 C5X        23.6960  480.6630  116.1720 C.ar      1 FAD703      0.0000 
     32 C6         24.7950  481.1050  116.8890 C.ar      1 FAD703      0.0000 
     33 C7         25.4820  480.2210  117.6960 C.ar      1 FAD703      0.0000 
     34 C7M        26.6890  480.6280  118.5020 C.3       1 FAD703      0.0000 
     35 C8         25.0610  478.9190  117.8020 C.ar      1 FAD703      0.0000 
     36 C8M        25.7870  477.9300  118.6920 C.3       1 FAD703      0.0000 
     37 C9         23.9760  478.5060  117.1040 C.ar      1 FAD703      0.0000 
     38 C9A        23.2710  479.3620  116.2660 C.ar      1 FAD703      0.0000 
     39 N10        22.1960  478.9340  115.5460 N.pl3     1 FAD703      0.0000 
     40 C10        21.8260  479.7230  114.5190 C.2       1 FAD703      0.0000 
     41 C1'        21.8400  477.5880  115.4760 C.3       1 FAD703      0.0000 
     42 C2'        20.4640  477.3510  116.0980 C.3       1 FAD703      0.0000 
     43 O2'        20.5930  477.3730  117.4640 O.3       1 FAD703      0.0000 
     44 C3'        19.7820  476.0430  115.6010 C.3       1 FAD703      0.0000 
     45 O3'        20.6100  475.0280  115.7700 O.3       1 FAD703      0.0000 
     46 C4'        19.2670  476.0990  114.1890 C.3       1 FAD703      0.0000 
     47 O4'        18.7370  477.3460  113.8960 O.3       1 FAD703      0.0000 
     48 C5'        18.2600  475.0560  113.8990 C.3       1 FAD703      0.0000 
     49 O5'        18.3220  474.7320  112.5670 O.3       1 FAD703      0.0000 
     50 P          17.2690  473.8450  111.9300 P.3       1 FAD703      0.0000 
     51 O1P        15.9870  474.3490  112.3170 O.co2     1 FAD703      0.0000 
     52 O2P        17.3810  473.8770  110.5510 O.co2     1 FAD703      0.0000 
     53 O3P        17.5020  472.3720  112.3390 O.3       1 FAD703      0.0000 
@<TRIPOS>BOND
     1    1    2 ar   
     2    1    3 ar   
     3    1    4 1    
     4    1   53 1    
     5    4    5 1    
     6    5    6 1    
     7    6    7 1    
     8    6    8 1    
     9    7   12 1    
    10    8    9 1    
    11    8   10 1    
    12   10   11 1    
    13   10   12 1    
    14   12   13 1    
    15   13   14 1    
    16   13   22 1    
    17   14   15 2    
    18   15   16 1    
    19   16   17 ar   
    20   16   22 ar   
    21   17   18 1    
    22   17   19 ar   
    23   19   20 ar   
    24   20   21 ar   
    25   21   22 ar   
    26   23   24 1    
    27   23   40 2    
    28   24   25 2    
    29   24   26 am   
    30   26   27 am   
    31   27   28 2    
    32   27   29 1    
    33   29   30 2    
    34   29   40 1    
    35   30   31 1    
    36   31   32 ar   
    37   31   38 ar   
    38   32   33 ar   
    39   33   34 1    
    40   33   35 ar   
    41   35   36 1    
    42   35   37 ar   
    43   37   38 ar   
    44   38   39 1    
    45   39   40 1    
    46   39   41 1    
    47   41   42 1    
    48   42   43 1    
    49   42   44 1    
    50   44   45 1    
    51   44   46 1    
    52   46   47 1    
    53   46   48 1    
    54   48   49 1    
    55   49   50 1    
    56   50   51 ar   
    57   50   52 ar   
    58   50   53 1    
@<TRIPOS>SUBSTRUCTURE
     1 FAD703      1 GROUP   
@<TRIPOS>SET
ATOM$ORANGE STATIC     ATOMS   COLORGROUP SYSTEM 
54 5 5 6 6 8 8 10 10 12 12 14 14 16 16 17 17 20 \
20 22 22 24 24 27 27 29 29 31 31 32 32 33 33 34 34 35 \
35 36 36 37 37 38 38 40 40 41 41 42 42 44 44 46 46 48 \
48 

