#    Name: 6da9_1_FMN
#    Modification time : Fri May 22 19:27:44 2020

@<TRIPOS>MOLECULE
6da9_1_FMN
   31    33     1     0     1
SMALL
NO_CHARGES


@<TRIPOS>ATOM
      1 N1          9.0350   23.6310   19.3860 N.2       1 FMN501      0.0000 
      2 C2         10.1180   24.0290   18.6630 C.2       1 FMN501      0.0000 
      3 O2          9.9850   24.4630   17.5130 O.2       1 FMN501      0.0000 
      4 N3         11.3960   23.9560   19.2130 N.am      1 FMN501      0.0000 
      5 C4         11.7140   23.4860   20.4750 C.2       1 FMN501      0.0000 
      6 O4         12.8860   23.5220   20.8560 O.2       1 FMN501      0.0000 
      7 C4A        10.5210   23.0520   21.2650 C.2       1 FMN501      0.0000 
      8 N5         10.7050   22.6320   22.4930 N.2       1 FMN501      0.0000 
      9 C5A         9.5830   22.3090   23.2560 C.ar      1 FMN501      0.0000 
     10 C6          9.7680   21.7870   24.5430 C.ar      1 FMN501      0.0000 
     11 C7          8.6810   21.3840   25.3180 C.ar      1 FMN501      0.0000 
     12 C7M         8.9170   20.6720   26.6270 C.3       1 FMN501      0.0000 
     13 C8          7.3730   21.5820   24.8320 C.ar      1 FMN501      0.0000 
     14 C8M         6.1750   21.3170   25.7040 C.3       1 FMN501      0.0000 
     15 C9          7.1840   22.1140   23.5600 C.ar      1 FMN501      0.0000 
     16 C9A         8.2710   22.4470   22.7500 C.ar      1 FMN501      0.0000 
     17 N10         8.1170   22.8810   21.3950 N.pl3     1 FMN501      0.0000 
     18 C10         9.2210   23.1900   20.6240 C.2       1 FMN501      0.0000 
     19 C1'         6.8100   22.9330   20.7120 C.3       1 FMN501      0.0000 
     20 C2'         6.3340   24.3720   20.5770 C.3       1 FMN501      0.0000 
     21 O2'         6.2390   24.9980   21.8590 O.3       1 FMN501      0.0000 
     22 C3'         4.9830   24.4120   19.8640 C.3       1 FMN501      0.0000 
     23 O3'         5.1680   24.0040   18.5060 O.3       1 FMN501      0.0000 
     24 C4'         4.3100   25.7840   19.9360 C.3       1 FMN501      0.0000 
     25 O4'         2.9870   25.7390   19.4050 O.3       1 FMN501      0.0000 
     26 C5'         5.1390   26.8670   19.2800 C.3       1 FMN501      0.0000 
     27 O5'         4.4530   28.1190   19.4390 O.3       1 FMN501      0.0000 
     28 P           3.6770   28.8140   18.1880 P.3       1 FMN501      0.0000 
     29 O1P         3.3130   30.1930   18.6700 O.co2     1 FMN501      0.0000 
     30 O2P         4.6520   28.8540   17.0090 O.co2     1 FMN501      0.0000 
     31 O3P         2.4630   27.9310   17.9130 O.co2     1 FMN501      0.0000 
@<TRIPOS>BOND
     1    1    2 1    
     2    1   18 2    
     3    2    3 2    
     4    2    4 am   
     5    4    5 am   
     6    5    6 2    
     7    5    7 1    
     8    7    8 2    
     9    7   18 1    
    10    8    9 1    
    11    9   10 ar   
    12    9   16 ar   
    13   10   11 ar   
    14   11   12 1    
    15   11   13 ar   
    16   13   14 1    
    17   13   15 ar   
    18   15   16 ar   
    19   16   17 1    
    20   17   18 1    
    21   17   19 1    
    22   19   20 1    
    23   20   21 1    
    24   20   22 1    
    25   22   23 1    
    26   22   24 1    
    27   24   25 1    
    28   24   26 1    
    29   26   27 1    
    30   27   28 1    
    31   28   29 ar   
    32   28   30 ar   
    33   28   31 ar   
@<TRIPOS>SUBSTRUCTURE
     1 FMN501      1 GROUP   
@<TRIPOS>SET
ATOM$ORANGE STATIC     ATOMS   COLORGROUP SYSTEM 
34 2 2 5 5 7 7 9 9 10 10 11 11 12 12 13 13 14 \
14 15 15 16 16 18 18 19 19 20 20 22 22 24 24 26 26 

