#    Name: 6gb5_1_PHE_ALA_PRO_GLY_ASN_TYR_PRO
#    Modification time : Fri May 22 19:28:39 2020

@<TRIPOS>MOLECULE
6gb5_1_PHE_ALA_PRO_GLY_ASN_TYR_PRO
   55    58     7     0     0
SMALL
NO_CHARGES


@<TRIPOS>ATOM
      1 N           4.6780  -37.6830  112.2480 N.4       1 PHE1        0.0000 
      2 CA          3.7440  -37.9340  113.3740 C.3       1 PHE1        0.0000 
      3 C           2.3250  -38.0830  112.8160 C.2       1 PHE1        0.0000 
      4 O           1.6830  -37.1030  112.4110 O.2       1 PHE1        0.0000 
      5 CB          3.8420  -36.7870  114.3900 C.3       1 PHE1        0.0000 
      6 CG          3.1680  -37.0670  115.7020 C.ar      1 PHE1        0.0000 
      7 CD1         3.8590  -37.6620  116.7400 C.ar      1 PHE1        0.0000 
      8 CD2         1.8590  -36.6930  115.9100 C.ar      1 PHE1        0.0000 
      9 CE1         3.2430  -37.9020  117.9490 C.ar      1 PHE1        0.0000 
     10 CE2         1.2260  -36.9390  117.1150 C.ar      1 PHE1        0.0000 
     11 CZ          1.9250  -37.5340  118.1470 C.ar      1 PHE1        0.0000 
     12 N           1.8620  -39.3210  112.8000 N.am      2 ALA2        0.0000 
     13 CA          0.5830  -39.7040  112.2260 C.3       2 ALA2        0.0000 
     14 C          -0.6030  -39.2180  113.0000 C.2       2 ALA2        0.0000 
     15 O          -0.5230  -39.0050  114.1670 O.2       2 ALA2        0.0000 
     16 CB          0.4800  -41.2200  112.0970 C.3       2 ALA2        0.0000 
     17 N          -1.7470  -39.0790  112.3210 N.am      3 PRO3        0.0000 
     18 CA         -2.9440  -38.7050  113.0300 C.3       3 PRO3        0.0000 
     19 C          -3.6220  -39.9140  113.5820 C.2       3 PRO3        0.0000 
     20 O          -3.4290  -41.0190  113.0670 O.2       3 PRO3        0.0000 
     21 CB         -3.8120  -38.0860  111.9350 C.3       3 PRO3        0.0000 
     22 CG         -3.4180  -38.8470  110.7060 C.3       3 PRO3        0.0000 
     23 CD         -1.9610  -39.1480  110.8610 C.3       3 PRO3        0.0000 
     24 N          -4.4430  -39.6760  114.6000 N.am      4 GLY4        0.0000 
     25 CA         -5.3500  -40.6670  115.1250 C.3       4 GLY4        0.0000 
     26 C          -6.7510  -40.1440  114.9630 C.2       4 GLY4        0.0000 
     27 O          -7.0760  -39.0400  115.4010 O.2       4 GLY4        0.0000 
     28 N          -7.6040  -40.9170  114.3300 N.am      5 ASN5        0.0000 
     29 CA         -8.8840  -40.3680  113.9770 C.3       5 ASN5        0.0000 
     30 C          -9.7550  -40.2670  115.1850 C.2       5 ASN5        0.0000 
     31 O          -9.5540  -40.9910  116.1440 O.2       5 ASN5        0.0000 
     32 CB         -9.5590  -41.1510  112.8690 C.3       5 ASN5        0.0000 
     33 CG         -8.9340  -40.8790  111.5010 C.2       5 ASN5        0.0000 
     34 OD1        -8.0560  -40.0150  111.3530 O.2       5 ASN5        0.0000 
     35 ND2        -9.3540  -41.6330  110.5070 N.am      5 ASN5        0.0000 
     36 N         -10.6800  -39.3140  115.1390 N.am      6 TYR6        0.0000 
     37 CA        -11.6710  -39.1260  116.1740 C.3       6 TYR6        0.0000 
     38 C         -12.4780  -40.4080  116.2950 C.2       6 TYR6        0.0000 
     39 O         -13.0370  -40.8530  115.3070 O.2       6 TYR6        0.0000 
     40 CB        -12.6050  -37.9760  115.8400 C.3       6 TYR6        0.0000 
     41 CG        -13.5010  -37.5330  116.9670 C.ar      6 TYR6        0.0000 
     42 CD1       -12.9670  -36.8340  118.0910 C.ar      6 TYR6        0.0000 
     43 CD2       -14.8770  -37.7460  116.9220 C.ar      6 TYR6        0.0000 
     44 CE1       -13.7900  -36.3930  119.1330 C.ar      6 TYR6        0.0000 
     45 CE2       -15.6950  -37.3210  117.9770 C.ar      6 TYR6        0.0000 
     46 CZ        -15.1440  -36.6210  119.0610 C.ar      6 TYR6        0.0000 
     47 OH        -15.9490  -36.1730  120.0850 O.3       6 TYR6        0.0000 
     48 N         -12.5210  -41.0030  117.5090 N.am      7 PRO7        0.0000 
     49 CA        -13.2680  -42.2320  117.7040 C.3       7 PRO7        0.0000 
     50 C         -14.6750  -42.0580  117.2140 C.2       7 PRO7        0.0000 
     51 O         -15.2480  -41.0120  117.5640 O.2       7 PRO7        0.0000 
     52 CB        -13.2570  -42.4320  119.2370 C.3       7 PRO7        0.0000 
     53 CG        -12.0520  -41.6850  119.7170 C.3       7 PRO7        0.0000 
     54 CD        -11.8010  -40.5810  118.7320 C.3       7 PRO7        0.0000 
     55 OXT       -15.2070  -42.9270  116.4960 O.3       7 PRO7        0.0000 
@<TRIPOS>BOND
     1    1    2 1    
     2    2    3 1    
     3    2    5 1    
     4    3    4 2    
     5    3   12 am   
     6    5    6 1    
     7    6    7 ar   
     8    6    8 ar   
     9    7    9 ar   
    10    8   10 ar   
    11    9   11 ar   
    12   10   11 ar   
    13   12   13 1    
    14   13   14 1    
    15   13   16 1    
    16   14   15 2    
    17   14   17 am   
    18   17   18 1    
    19   17   23 1    
    20   18   19 1    
    21   18   21 1    
    22   19   20 2    
    23   19   24 am   
    24   21   22 1    
    25   22   23 1    
    26   24   25 1    
    27   25   26 1    
    28   26   27 2    
    29   26   28 am   
    30   28   29 1    
    31   29   30 1    
    32   29   32 1    
    33   30   31 2    
    34   30   36 am   
    35   32   33 1    
    36   33   34 2    
    37   33   35 am   
    38   36   37 1    
    39   37   38 1    
    40   37   40 1    
    41   38   39 2    
    42   38   48 am   
    43   40   41 1    
    44   41   42 ar   
    45   41   43 ar   
    46   42   44 ar   
    47   43   45 ar   
    48   44   46 ar   
    49   45   46 ar   
    50   46   47 1    
    51   48   49 1    
    52   48   54 1    
    53   49   50 1    
    54   49   52 1    
    55   50   51 2    
    56   50   55 1    
    57   52   53 1    
    58   53   54 1    
@<TRIPOS>SUBSTRUCTURE
     1 PHE1        1 RESIDUE 
     2 ALA2       12 RESIDUE 
     3 PRO3       17 RESIDUE 
     4 GLY4       24 RESIDUE 
     5 ASN5       28 RESIDUE 
     6 TYR6       36 RESIDUE 
     7 PRO7       48 RESIDUE 
@<TRIPOS>SET

