#    Name: 6gb5_1_PHE_ALA_PRO_GLY_ASN_TYR_PRO_CAVITY_N1_6
#    Modification time : Fri May 22 19:28:41 2020

@<TRIPOS>MOLECULE
6gb5_1_PHE_ALA_PRO_GLY_ASN_TYR_PRO_CAVITY_N1_6
   86     0     7     0     0
SMALL
NO_CHARGES


@<TRIPOS>ATOM
      1 OG         -1.0800  -43.0700  111.5900 O.3       1 SER1        0.0000 
      2 OG         -0.7400  -41.7700  112.2700 O.3       1 SER1        0.0000 
      3 OG         -0.2400  -41.2300  110.9600 O.3       1 SER1        0.0000 
      4 OG         -8.6100  -40.2600  113.3000 O.3       1 SER1        0.0000 
      5 OG        -10.4900  -40.2800  114.2900 O.3       1 SER1        0.0000 
      6 OG         -1.2700  -39.4100  111.3200 O.3       1 SER1        0.0000 
      7 OG         -2.6400  -38.8900  111.0100 O.3       1 SER1        0.0000 
      8 OG         -2.1400  -38.3400  109.7000 O.3       1 SER1        0.0000 
      9 OG         -4.0100  -38.3700  110.6900 O.3       1 SER1        0.0000 
     10 OG         -7.4000  -40.0200  115.5900 O.3       1 SER1        0.0000 
     11 OG         -6.9000  -39.4800  114.2900 O.3       1 SER1        0.0000 
     12 OG         -5.3800  -37.8500  110.3800 O.3       1 SER1        0.0000 
     13 OG         -8.7800  -39.5000  115.2800 O.3       1 SER1        0.0000 
     14 OG          0.4400  -38.6300  112.3100 O.3       1 SER1        0.0000 
     15 OG         -0.9300  -38.1100  111.9900 O.3       1 SER1        0.0000 
     16 OG         -2.3000  -37.5900  111.6800 O.3       1 SER1        0.0000 
     17 OG         -5.7000  -39.2400  116.5800 O.3       1 SER1        0.0000 
     18 OG         -5.1900  -38.7000  115.2700 O.3       1 SER1        0.0000 
     19 OG         -6.5600  -38.1800  114.9600 O.3       1 SER1        0.0000 
     20 OG         -5.0500  -36.5500  111.0500 O.3       1 SER1        0.0000 
     21 OG         -5.3600  -37.9500  117.2500 O.3       1 SER1        0.0000 
     22 OG         -4.8500  -37.4000  115.9500 O.3       1 SER1        0.0000 
     23 OG         -5.8800  -35.5900  116.3000 O.3       1 SER1        0.0000 
     24 N          -8.9500  -41.5500  112.6300 N.am      2 ALA2        0.0000 
     25 N          -5.0000  -42.3600  115.5500 N.am      2 ALA2        0.0000 
     26 N          -4.4900  -41.8200  114.2400 N.am      2 ALA2        0.0000 
     27 O          -3.9900  -41.2700  112.9400 O.2       2 ALA2        0.0000 
     28 O          -3.4800  -40.7300  111.6400 O.2       2 ALA2        0.0000 
     29 O          -4.8600  -40.2100  111.3200 O.2       2 ALA2        0.0000 
     30 N          -7.7400  -41.3200  114.9200 N.am      2 ALA2        0.0000 
     31 N          -7.2400  -40.7800  113.6200 N.am      2 ALA2        0.0000 
     32 O          -6.7300  -40.2300  112.3100 O.2       2 ALA2        0.0000 
     33 O          -6.2300  -39.6900  111.0100 O.2       2 ALA2        0.0000 
     34 N          -9.1100  -40.8000  114.6000 N.am      2 ALA2        0.0000 
     35 N          -6.0300  -40.5400  115.9100 N.am      2 ALA2        0.0000 
     36 N          -5.5300  -40.0000  114.6000 N.am      2 ALA2        0.0000 
     37 O          -5.0200  -39.4500  113.3000 O.2       2 ALA2        0.0000 
     38 O          -5.8900  -38.3900  111.6800 O.2       2 ALA2        0.0000 
     39 OD1        -0.0700  -39.1700  113.6100 O.co2     3 ASP3        0.0000 
     40 NZ         -1.9500  -42.0000  109.9800 N.4       4 LYS4        0.0000 
     41 NZ          0.6300  -42.2900  112.5800 N.4       4 LYS4        0.0000 
     42 NZ         -1.6100  -40.7100  110.6500 N.4       4 LYS4        0.0000 
     43 NZ         -2.9800  -40.1900  110.3300 N.4       4 LYS4        0.0000 
     44 NZ         -2.4700  -39.6400  109.0300 N.4       4 LYS4        0.0000 
     45 NZ         -4.3500  -39.6600  110.0200 N.4       4 LYS4        0.0000 
     46 NZ          0.9700  -40.9900  113.2500 N.4       4 LYS4        0.0000 
     47 NZ          1.4700  -40.4500  111.9500 N.4       4 LYS4        0.0000 
     48 NZ          1.8100  -39.1500  112.6200 N.4       4 LYS4        0.0000 
     49 CZ         -9.4500  -42.1000  113.9300 C.ar      5 PHE5        0.0000 
     50 CZ         -8.1000  -39.7100  112.0000 C.ar      5 PHE5        0.0000 
     51 CZ          0.1000  -39.9300  111.6400 C.ar      5 PHE5        0.0000 
     52 CZ         -0.7600  -38.8600  110.0200 C.ar      5 PHE5        0.0000 
     53 CZ         -6.3900  -38.9300  112.9800 C.ar      5 PHE5        0.0000 
     54 CZ         -8.2700  -38.9600  113.9700 C.ar      5 PHE5        0.0000 
     55 CZ         -7.2600  -37.8700  111.3700 C.ar      5 PHE5        0.0000 
     56 CZ         -1.4400  -38.6500  113.3000 C.ar      5 PHE5        0.0000 
     57 CZ         -3.3100  -38.6800  114.2900 C.ar      5 PHE5        0.0000 
     58 CZ         -2.8100  -38.1300  112.9800 C.ar      5 PHE5        0.0000 
     59 CZ         -4.1800  -37.6100  112.6700 C.ar      5 PHE5        0.0000 
     60 CZ         -3.6700  -37.0700  111.3600 C.ar      5 PHE5        0.0000 
     61 CZ         -6.0600  -37.6400  113.6600 C.ar      5 PHE5        0.0000 
     62 CZ         -5.5500  -37.0900  112.3500 C.ar      5 PHE5        0.0000 
     63 CZ         -6.4200  -36.0300  110.7400 C.ar      5 PHE5        0.0000 
     64 CZ          0.2700  -37.8800  114.2800 C.ar      5 PHE5        0.0000 
     65 CZ         -4.3500  -36.8600  114.6400 C.ar      5 PHE5        0.0000 
     66 CZ         -5.2100  -35.8000  113.0300 C.ar      5 PHE5        0.0000 
     67 CA         -2.4500  -42.5500  111.2800 C.3       6 GLY6        0.0000 
     68 CA         -1.2500  -42.3100  113.5700 C.3       6 GLY6        0.0000 
     69 CA         -4.1300  -43.4200  117.1700 C.3       6 GLY6        0.0000 
     70 CA         -3.6300  -42.8800  115.8600 C.3       6 GLY6        0.0000 
     71 CA         -3.1200  -42.3400  114.5600 C.3       6 GLY6        0.0000 
     72 CA         -2.6200  -41.7900  113.2600 C.3       6 GLY6        0.0000 
     73 CA         -0.4000  -40.4700  112.9400 C.3       6 GLY6        0.0000 
     74 CA         -3.2900  -41.5800  116.5300 C.3       6 GLY6        0.0000 
     75 CA         -2.7900  -41.0400  115.2300 C.3       6 GLY6        0.0000 
     76 CA         -2.2800  -40.5000  113.9300 C.3       6 GLY6        0.0000 
     77 CA         -4.1600  -40.5200  114.9200 C.3       6 GLY6        0.0000 
     78 CA         -3.8200  -39.2200  115.5900 C.3       6 GLY6        0.0000 
     79 CA         -5.7200  -36.3400  114.3300 C.3       6 GLY6        0.0000 
     80 DU         -2.1100  -41.2500  111.9500 H         7 CUB7        0.0000 
     81 DU         -1.7800  -39.9500  112.6200 H         7 CUB7        0.0000 
     82 DU         -4.6600  -41.0600  116.2200 H         7 CUB7        0.0000 
     83 DU         -3.6500  -39.9800  113.6100 H         7 CUB7        0.0000 
     84 DU         -3.1500  -39.4300  112.3100 H         7 CUB7        0.0000 
     85 DU         -4.5200  -38.9100  112.0000 H         7 CUB7        0.0000 
     86 DU         -4.6800  -38.1600  113.9700 H         7 CUB7        0.0000 
@<TRIPOS>BOND
@<TRIPOS>SUBSTRUCTURE
     1 SER1        1 GROUP   
     2 ALA2       24 GROUP   
     3 ASP3       39 GROUP   
     4 LYS4       40 GROUP   
     5 PHE5       49 GROUP   
     6 GLY6       67 GROUP   
     7 CUB7       80 GROUP   
@<TRIPOS>SET

