#    Name: 6gb5_2_PHE_ALA_PRO_GLY_ASN_TYR_PRO_CAVITY_N1_8
#    Modification time : Fri May 22 19:28:48 2020

@<TRIPOS>MOLECULE
6gb5_2_PHE_ALA_PRO_GLY_ASN_TYR_PRO_CAVITY_N1_8
   98     0     7     0     0
SMALL
NO_CHARGES


@<TRIPOS>ATOM
      1 OG         -4.9900   -3.1900   80.1100 O.3       1 SER1        0.0000 
      2 OG         -3.9800   -2.1100   77.5000 O.3       1 SER1        0.0000 
      3 OG         -9.1000   -1.6300   79.1700 O.3       1 SER1        0.0000 
      4 OG         -4.1400   -1.3500   79.4800 O.3       1 SER1        0.0000 
      5 OG         -3.6400   -0.8100   78.1700 O.3       1 SER1        0.0000 
      6 OG         -5.5100   -0.8300   79.1600 O.3       1 SER1        0.0000 
      7 OG         -5.0100   -0.2900   77.8600 O.3       1 SER1        0.0000 
      8 OG         -6.8900   -0.3100   78.8500 O.3       1 SER1        0.0000 
      9 OG         -8.2600    0.2100   78.5300 O.3       1 SER1        0.0000 
     10 OG          3.0500   -2.6600   81.7200 O.3       1 SER1        0.0000 
     11 OG         -3.9500   -2.2100   84.3700 O.3       1 SER1        0.0000 
     12 OG         -3.4400   -1.6600   83.0700 O.3       1 SER1        0.0000 
     13 OG         -7.0500    0.4400   80.8200 O.3       1 SER1        0.0000 
     14 OG          4.7600   -1.8800   82.7100 O.3       1 SER1        0.0000 
     15 OG          1.5100   -1.3800   83.3800 O.3       1 SER1        0.0000 
     16 OG         -0.3600   -1.4100   84.3700 O.3       1 SER1        0.0000 
     17 OG          0.1400   -0.8600   83.0700 O.3       1 SER1        0.0000 
     18 OG         -1.7300   -0.8800   84.0600 O.3       1 SER1        0.0000 
     19 O          -5.3200   -1.6900   84.0600 O.2       2 ALA2        0.0000 
     20 O          -4.8100   -1.1400   82.7600 O.2       2 ALA2        0.0000 
     21 N          -5.1800    0.4700   79.8400 N.am      2 ALA2        0.0000 
     22 N          -4.6700    1.0100   78.5300 N.am      2 ALA2        0.0000 
     23 N          -6.5500    0.9900   79.5200 N.am      2 ALA2        0.0000 
     24 O          -2.6000    0.1800   82.4400 O.2       2 ALA2        0.0000 
     25 O          -4.4800    0.1600   83.4300 O.2       2 ALA2        0.0000 
     26 O          -3.9700    0.7000   82.1300 O.2       2 ALA2        0.0000 
     27 N          -3.4700    1.2400   80.8200 N.am      2 ALA2        0.0000 
     28 N          -2.9600    1.7900   79.5200 N.am      2 ALA2        0.0000 
     29 N          -4.3300    2.3100   79.2000 N.am      2 ALA2        0.0000 
     30 N          -2.6200    3.0800   80.1900 N.am      2 ALA2        0.0000 
     31 N          -3.4900    4.1500   78.5700 N.am      2 ALA2        0.0000 
     32 OD1         3.7200   -2.8700   78.4400 O.co2     3 ASP3        0.0000 
     33 OD1         2.3500   -2.3500   78.1300 O.co2     3 ASP3        0.0000 
     34 OD1         2.8600   -1.8000   76.8200 O.co2     3 ASP3        0.0000 
     35 OD1         0.9800   -1.8300   77.8100 O.co2     3 ASP3        0.0000 
     36 OD1         3.5600   -2.1100   80.4200 O.co2     3 ASP3        0.0000 
     37 OD1         0.8100   -1.0700   79.7900 O.co2     3 ASP3        0.0000 
     38 OD1         2.0200   -0.8400   82.0800 O.co2     3 ASP3        0.0000 
     39 OD1         0.6500   -0.3200   81.7700 O.co2     3 ASP3        0.0000 
     40 NZ          0.6400   -3.1200   77.1400 N.4       4 LYS4        0.0000 
     41 NZ          3.3900   -1.3600   82.3900 N.4       4 LYS4        0.0000 
     42 NZ         -3.1100   -0.3600   83.7400 N.4       4 LYS4        0.0000 
     43 NZ          2.3600    0.4600   82.7500 N.4       4 LYS4        0.0000 
     44 CZ         -1.2300   -3.1500   78.1300 C.ar      5 PHE5        0.0000 
     45 CZ         -3.6100   -3.7100   80.4200 C.ar      5 PHE5        0.0000 
     46 CZ         -2.6000   -2.6300   77.8200 C.ar      5 PHE5        0.0000 
     47 CZ          4.0900   -4.4700   81.3600 C.ar      5 PHE5        0.0000 
     48 CZ          4.5900   -3.9300   80.0600 C.ar      5 PHE5        0.0000 
     49 CZ          2.7100   -3.9500   81.0500 C.ar      5 PHE5        0.0000 
     50 CZ          1.8500   -2.8900   79.4300 C.ar      5 PHE5        0.0000 
     51 CZ          0.4800   -2.3700   79.1200 C.ar      5 PHE5        0.0000 
     52 CZ         -1.9100   -2.9400   81.4100 C.ar      5 PHE5        0.0000 
     53 CZ         -1.4000   -2.3900   80.1100 C.ar      5 PHE5        0.0000 
     54 CZ         -0.8900   -1.8500   78.8000 C.ar      5 PHE5        0.0000 
     55 CZ         -3.7800   -2.9600   82.4000 C.ar      5 PHE5        0.0000 
     56 CZ         -3.2800   -2.4200   81.1000 C.ar      5 PHE5        0.0000 
     57 CZ         -2.7700   -1.8700   79.7900 C.ar      5 PHE5        0.0000 
     58 CZ         -5.1500   -2.4400   82.0800 C.ar      5 PHE5        0.0000 
     59 CZ         -4.6500   -1.9000   80.7800 C.ar      5 PHE5        0.0000 
     60 CZ         -6.0200   -1.3800   80.4700 C.ar      5 PHE5        0.0000 
     61 CZ         -7.3900   -0.8600   80.1500 C.ar      5 PHE5        0.0000 
     62 CZ          4.9300   -2.6300   80.7300 C.ar      5 PHE5        0.0000 
     63 CZ          1.6800   -2.1400   81.4100 C.ar      5 PHE5        0.0000 
     64 CZ          0.3100   -1.6200   81.0900 C.ar      5 PHE5        0.0000 
     65 CZ         -2.0700   -2.1800   83.3900 C.ar      5 PHE5        0.0000 
     66 CZ         -1.5700   -1.6400   82.0800 C.ar      5 PHE5        0.0000 
     67 CZ         -1.0600   -1.0900   80.7800 C.ar      5 PHE5        0.0000 
     68 CZ         -6.1900   -0.6200   82.4400 C.ar      5 PHE5        0.0000 
     69 CZ         -5.6800   -0.0800   81.1400 C.ar      5 PHE5        0.0000 
     70 CZ          2.8900   -1.9000   83.7000 C.ar      5 PHE5        0.0000 
     71 CZ          1.8500   -0.0800   84.0600 C.ar      5 PHE5        0.0000 
     72 CA        -10.8100   -2.4100   78.1800 C.3       6 GLY6        0.0000 
     73 CA          1.5100   -4.1900   78.7600 C.3       6 GLY6        0.0000 
     74 CA          2.0100   -3.6400   77.4600 C.3       6 GLY6        0.0000 
     75 CA          2.5200   -3.1000   76.1500 C.3       6 GLY6        0.0000 
     76 CA         -3.1100   -3.1700   79.1200 C.3       6 GLY6        0.0000 
     77 CA          3.2200   -3.4100   79.7500 C.3       6 GLY6        0.0000 
     78 CA         -0.3900   -1.3000   77.5000 C.3       6 GLY6        0.0000 
     79 CA          4.4200   -3.1800   82.0400 C.3       6 GLY6        0.0000 
     80 CA         -0.5600   -0.5500   79.4800 C.3       6 GLY6        0.0000 
     81 CA         -1.9300   -0.0300   79.1600 C.3       6 GLY6        0.0000 
     82 CA         -1.4200    0.5100   77.8600 C.3       6 GLY6        0.0000 
     83 CA         -0.2200    0.7500   80.1500 C.3       6 GLY6        0.0000 
     84 CA         -1.5900    1.2700   79.8300 C.3       6 GLY6        0.0000 
     85 CA          0.9900    0.9800   82.4400 C.3       6 GLY6        0.0000 
     86 CA          0.1200    2.0400   80.8200 C.3       6 GLY6        0.0000 
     87 CA         -1.2500    2.5600   80.5100 C.3       6 GLY6        0.0000 
     88 CA         -2.1200    3.6300   78.8900 C.3       6 GLY6        0.0000 
     89 DU         -2.2700   -1.3300   78.4900 H         7 CUB7        0.0000 
     90 DU         -2.9400   -1.1200   81.7700 H         7 CUB7        0.0000 
     91 DU         -2.4300   -0.5700   80.4600 H         7 CUB7        0.0000 
     92 DU         -4.3100   -0.6000   81.4500 H         7 CUB7        0.0000 
     93 DU         -3.8000   -0.0500   80.1500 H         7 CUB7        0.0000 
     94 DU         -3.3000    0.4900   78.8500 H         7 CUB7        0.0000 
     95 DU         -7.9200    1.5100   79.2100 H         7 CUB7        0.0000 
     96 DU         -1.2300   -0.3400   82.7500 H         7 CUB7        0.0000 
     97 DU         -0.7200    0.2000   81.4500 H         7 CUB7        0.0000 
     98 DU         -2.1000    0.7200   81.1400 H         7 CUB7        0.0000 
@<TRIPOS>BOND
@<TRIPOS>SUBSTRUCTURE
     1 SER1        1 GROUP   
     2 ALA2       19 GROUP   
     3 ASP3       32 GROUP   
     4 LYS4       40 GROUP   
     5 PHE5       44 GROUP   
     6 GLY6       72 GROUP   
     7 CUB7       89 GROUP   
@<TRIPOS>SET

