#    Name: 6gb5_2_PHE_ALA_PRO_GLY_ASN_TYR_PRO
#    Modification time : Fri May 22 19:28:45 2020

@<TRIPOS>MOLECULE
6gb5_2_PHE_ALA_PRO_GLY_ASN_TYR_PRO
   55    58     7     0     0
SMALL
NO_CHARGES


@<TRIPOS>ATOM
      1 N           5.8980   -1.8730   83.2620 N.4       1 PHE1        0.0000 
      2 CA          5.0470   -1.7170   82.0510 C.3       1 PHE1        0.0000 
      3 C           3.5820   -1.5560   82.4600 C.2       1 PHE1        0.0000 
      4 O           2.8850   -2.5310   82.7690 O.2       1 PHE1        0.0000 
      5 CB          5.2450   -2.8900   81.0890 C.3       1 PHE1        0.0000 
      6 CG          4.7420   -2.6170   79.7120 C.ar      1 PHE1        0.0000 
      7 CD1         5.5050   -1.8720   78.8120 C.ar      1 PHE1        0.0000 
      8 CD2         3.4990   -3.0590   79.3090 C.ar      1 PHE1        0.0000 
      9 CE1         5.0390   -1.6040   77.5180 C.ar      1 PHE1        0.0000 
     10 CE2         3.0270   -2.8100   78.0190 C.ar      1 PHE1        0.0000 
     11 CZ          3.8020   -2.0930   77.1150 C.ar      1 PHE1        0.0000 
     12 N           3.1450   -0.2980   82.4890 N.am      2 ALA2        0.0000 
     13 CA          1.8570    0.0700   83.0460 C.3       2 ALA2        0.0000 
     14 C           0.7220   -0.3000   82.1070 C.2       2 ALA2        0.0000 
     15 O           0.9110   -0.3670   80.9090 O.2       2 ALA2        0.0000 
     16 CB          1.8270    1.5600   83.3470 C.3       2 ALA2        0.0000 
     17 N          -0.4650   -0.5730   82.6570 N.am      3 PRO3        0.0000 
     18 CA         -1.5790   -0.9900   81.8260 C.3       3 PRO3        0.0000 
     19 C          -2.2140    0.1900   81.1990 C.2       3 PRO3        0.0000 
     20 O          -2.0430    1.3050   81.6590 O.2       3 PRO3        0.0000 
     21 CB         -2.5790   -1.5610   82.8160 C.3       3 PRO3        0.0000 
     22 CG         -2.2540   -0.8850   84.0880 C.3       3 PRO3        0.0000 
     23 CD         -0.7560   -0.7690   84.0800 C.3       3 PRO3        0.0000 
     24 N          -2.9520   -0.0600   80.1410 N.am      4 GLY4        0.0000 
     25 CA         -3.7600    0.9490   79.5030 C.3       4 GLY4        0.0000 
     26 C          -5.1850    0.4640   79.5810 C.2       4 GLY4        0.0000 
     27 O          -5.4970   -0.6350   79.1180 O.2       4 GLY4        0.0000 
     28 N          -6.0590    1.2520   80.1860 N.am      5 ASN5        0.0000 
     29 CA         -7.4160    0.7960   80.4080 C.3       5 ASN5        0.0000 
     30 C          -8.1500    0.7010   79.0950 C.2       5 ASN5        0.0000 
     31 O          -7.8170    1.3530   78.1230 O.2       5 ASN5        0.0000 
     32 CB         -8.1440    1.7000   81.4030 C.3       5 ASN5        0.0000 
     33 CG         -7.6570    1.4920   82.8250 C.2       5 ASN5        0.0000 
     34 OD1        -6.7730    0.6690   83.1040 O.2       5 ASN5        0.0000 
     35 ND2        -8.2290    2.2270   83.7260 N.am      5 ASN5        0.0000 
     36 N          -9.1640   -0.1290   79.0740 N.am      6 TYR6        0.0000 
     37 CA         -9.8880   -0.3960   77.8670 C.3       6 TYR6        0.0000 
     38 C         -10.6560    0.8630   77.5630 C.2       6 TYR6        0.0000 
     39 O         -11.3640    1.3360   78.4330 O.2       6 TYR6        0.0000 
     40 CB        -10.8360   -1.5780   78.0660 C.3       6 TYR6        0.0000 
     41 CG        -11.6730   -1.9620   76.8790 C.ar      6 TYR6        0.0000 
     42 CD1       -11.1190   -2.6960   75.8010 C.ar      6 TYR6        0.0000 
     43 CD2       -13.0340   -1.6260   76.8310 C.ar      6 TYR6        0.0000 
     44 CE1       -11.8980   -3.0890   74.7190 C.ar      6 TYR6        0.0000 
     45 CE2       -13.8160   -1.9940   75.7430 C.ar      6 TYR6        0.0000 
     46 CZ        -13.2450   -2.7260   74.6950 C.ar      6 TYR6        0.0000 
     47 OH        -14.0440   -3.1030   73.6460 O.3       6 TYR6        0.0000 
     48 N         -10.5160    1.3970   76.3230 N.am      7 PRO7        0.0000 
     49 CA        -11.1250    2.7060   76.0570 C.3       7 PRO7        0.0000 
     50 C         -12.6310    2.6800   76.2510 C.2       7 PRO7        0.0000 
     51 O         -13.1730    3.4990   76.9930 O.2       7 PRO7        0.0000 
     52 CB        -10.7390    3.0090   74.5950 C.3       7 PRO7        0.0000 
     53 CG        -10.2660    1.7190   74.0090 C.3       7 PRO7        0.0000 
     54 CD         -9.7390    0.9030   75.1640 C.3       7 PRO7        0.0000 
     55 OXT       -13.3010    1.7940   75.7190 O.3       7 PRO7        0.0000 
@<TRIPOS>BOND
     1    1    2 1    
     2    2    3 1    
     3    2    5 1    
     4    3    4 2    
     5    3   12 am   
     6    5    6 1    
     7    6    7 ar   
     8    6    8 ar   
     9    7    9 ar   
    10    8   10 ar   
    11    9   11 ar   
    12   10   11 ar   
    13   12   13 1    
    14   13   14 1    
    15   13   16 1    
    16   14   15 2    
    17   14   17 am   
    18   17   18 1    
    19   17   23 1    
    20   18   19 1    
    21   18   21 1    
    22   19   20 2    
    23   19   24 am   
    24   21   22 1    
    25   22   23 1    
    26   24   25 1    
    27   25   26 1    
    28   26   27 2    
    29   26   28 am   
    30   28   29 1    
    31   29   30 1    
    32   29   32 1    
    33   30   31 2    
    34   30   36 am   
    35   32   33 1    
    36   33   34 2    
    37   33   35 am   
    38   36   37 1    
    39   37   38 1    
    40   37   40 1    
    41   38   39 2    
    42   38   48 am   
    43   40   41 1    
    44   41   42 ar   
    45   41   43 ar   
    46   42   44 ar   
    47   43   45 ar   
    48   44   46 ar   
    49   45   46 ar   
    50   46   47 1    
    51   48   49 1    
    52   48   54 1    
    53   49   50 1    
    54   49   52 1    
    55   50   51 2    
    56   50   55 1    
    57   52   53 1    
    58   53   54 1    
@<TRIPOS>SUBSTRUCTURE
     1 PHE1        1 RESIDUE 
     2 ALA2       12 RESIDUE 
     3 PRO3       17 RESIDUE 
     4 GLY4       24 RESIDUE 
     5 ASN5       28 RESIDUE 
     6 TYR6       36 RESIDUE 
     7 PRO7       48 RESIDUE 
@<TRIPOS>SET

