#    Name: 6e49_1_GLY_ILE_ALA_ALA_MET_LEU_GLN_ARG
#    Modification time : Fri May 22 19:24:02 2020

@<TRIPOS>MOLECULE
6e49_1_GLY_ILE_ALA_ALA_MET_LEU_GLN_ARG
   58    57     8     0     0
SMALL
NO_CHARGES


@<TRIPOS>ATOM
      1 N          16.8070   10.8500   40.6450 N.4       1 GLY816      0.0000 
      2 CA         16.1390   10.2160   41.8200 C.3       1 GLY816      0.0000 
      3 C          16.1710    8.7020   41.7110 C.2       1 GLY816      0.0000 
      4 O          17.1390    8.0570   42.1340 O.2       1 GLY816      0.0000 
      5 N          15.1100    8.1330   41.1420 N.am      2 ILE817      0.0000 
      6 CA         15.0290    6.6760   40.9230 C.3       2 ILE817      0.0000 
      7 C          16.1080    6.1450   39.9530 C.2       2 ILE817      0.0000 
      8 O          16.7290    5.0850   40.2040 O.2       2 ILE817      0.0000 
      9 CB         13.6040    6.2510   40.4740 C.3       2 ILE817      0.0000 
     10 CG1        13.4570    4.7110   40.4740 C.3       2 ILE817      0.0000 
     11 CG2        13.2210    6.8510   39.1130 C.3       2 ILE817      0.0000 
     12 CD1        13.4170    4.0700   41.8490 C.3       2 ILE817      0.0000 
     13 N          16.3280    6.8900   38.8650 N.am      3 ALA818      0.0000 
     14 CA         17.3880    6.5840   37.9100 C.3       3 ALA818      0.0000 
     15 C          18.6960    6.4610   38.6930 C.2       3 ALA818      0.0000 
     16 O          19.3160    5.3850   38.7290 O.2       3 ALA818      0.0000 
     17 CB         17.4780    7.6770   36.8460 C.3       3 ALA818      0.0000 
     18 N          19.0280    7.5530   39.3940 N.am      4 ALA819      0.0000 
     19 CA         20.2010    7.6420   40.2810 C.3       4 ALA819      0.0000 
     20 C          20.3360    6.4810   41.2830 C.2       4 ALA819      0.0000 
     21 O          21.3500    5.7630   41.2890 O.2       4 ALA819      0.0000 
     22 CB         20.1760    8.9710   41.0320 C.3       4 ALA819      0.0000 
     23 N          19.3080    6.3070   42.1130 N.am      5 MET820      0.0000 
     24 CA         19.3110    5.2780   43.1640 C.3       5 MET820      0.0000 
     25 C          19.5730    3.8730   42.6110 C.2       5 MET820      0.0000 
     26 O          20.3120    3.0860   43.2290 O.2       5 MET820      0.0000 
     27 CB         17.9900    5.2930   43.9390 C.3       5 MET820      0.0000 
     28 CG         17.8110    6.5140   44.8240 C.3       5 MET820      0.0000 
     29 SD         16.0930    6.7610   45.3010 S.3       5 MET820      0.0000 
     30 CE         15.8590    5.2440   46.2330 C.3       5 MET820      0.0000 
     31 N          18.9600    3.5730   41.4620 N.am      6 LEU821      0.0000 
     32 CA         19.2190    2.3290   40.7280 C.3       6 LEU821      0.0000 
     33 C          20.6460    2.2080   40.2230 C.2       6 LEU821      0.0000 
     34 O          21.2290    1.1260   40.2990 O.2       6 LEU821      0.0000 
     35 CB         18.2870    2.1920   39.5270 C.3       6 LEU821      0.0000 
     36 CG         16.9060    1.7010   39.8880 C.3       6 LEU821      0.0000 
     37 CD1        15.9700    2.0350   38.7440 C.3       6 LEU821      0.0000 
     38 CD2        16.9260    0.2090   40.1710 C.3       6 LEU821      0.0000 
     39 N          21.1800    3.3050   39.6810 N.am      7 GLN822      0.0000 
     40 CA         22.5280    3.3250   39.0720 C.3       7 GLN822      0.0000 
     41 C          23.6320    2.8350   40.0240 C.2       7 GLN822      0.0000 
     42 O          24.6010    2.1830   39.6060 O.2       7 GLN822      0.0000 
     43 CB         22.8560    4.7310   38.5390 C.3       7 GLN822      0.0000 
     44 CG         22.0840    5.0900   37.2710 C.3       7 GLN822      0.0000 
     45 CD         22.1490    6.5620   36.8730 C.2       7 GLN822      0.0000 
     46 OE1        21.5300    6.9660   35.8850 O.2       7 GLN822      0.0000 
     47 NE2        22.9100    7.3600   37.6150 N.am      7 GLN822      0.0000 
     48 N          23.4660    3.1760   41.2990 N.am      8 ARG823      0.0000 
     49 CA         24.2940    2.6720   42.3970 C.3       8 ARG823      0.0000 
     50 C          24.0340    1.1630   42.5960 C.2       8 ARG823      0.0000 
     51 O          24.6760    0.3040   41.9850 O.2       8 ARG823      0.0000 
     52 CB         23.9660    3.4960   43.6650 C.3       8 ARG823      0.0000 
     53 CG         24.4830    2.9880   45.0070 C.3       8 ARG823      0.0000 
     54 CD         23.3900    3.0600   46.0620 C.3       8 ARG823      0.0000 
     55 NE         22.3010    2.1280   45.7500 N.pl3     8 ARG823      0.0000 
     56 CZ         22.3320    0.8030   45.9350 C.cat     8 ARG823      0.0000 
     57 NH1        23.4030    0.1920   46.4490 N.pl3     8 ARG823      0.0000 
     58 NH2        21.2750    0.0690   45.5920 N.pl3     8 ARG823      0.0000 
@<TRIPOS>BOND
     1    1    2 1    
     2    2    3 1    
     3    3    4 2    
     4    3    5 am   
     5    5    6 1    
     6    6    7 1    
     7    6    9 1    
     8    7    8 2    
     9    7   13 am   
    10    9   10 1    
    11    9   11 1    
    12   10   12 1    
    13   13   14 1    
    14   14   15 1    
    15   14   17 1    
    16   15   16 2    
    17   15   18 am   
    18   18   19 1    
    19   19   20 1    
    20   19   22 1    
    21   20   21 2    
    22   20   23 am   
    23   23   24 1    
    24   24   25 1    
    25   24   27 1    
    26   25   26 2    
    27   25   31 am   
    28   27   28 1    
    29   28   29 1    
    30   29   30 1    
    31   31   32 1    
    32   32   33 1    
    33   32   35 1    
    34   33   34 2    
    35   33   39 am   
    36   35   36 1    
    37   36   37 1    
    38   36   38 1    
    39   39   40 1    
    40   40   41 1    
    41   40   43 1    
    42   41   42 2    
    43   41   48 am   
    44   43   44 1    
    45   44   45 1    
    46   45   46 2    
    47   45   47 am   
    48   48   49 1    
    49   49   50 1    
    50   49   52 1    
    51   50   51 2    
    52   52   53 1    
    53   53   54 1    
    54   54   55 1    
    55   55   56 ar   
    56   56   57 ar   
    57   56   58 ar   
@<TRIPOS>SUBSTRUCTURE
     1 GLY816      1 RESIDUE 
     2 ILE817      5 RESIDUE 
     3 ALA818     13 RESIDUE 
     4 ALA819     18 RESIDUE 
     5 MET820     23 RESIDUE 
     6 LEU821     31 RESIDUE 
     7 GLN822     39 RESIDUE 
     8 ARG823     48 RESIDUE 
@<TRIPOS>SET

