#    Name: 6hn0_2_DIF
#    Modification time : Fri May 22 19:23:44 2020

@<TRIPOS>MOLECULE
6hn0_2_DIF
   19    20     1     0     0
SMALL
NO_CHARGES


@<TRIPOS>ATOM
      1 C1         44.4340   48.5100   15.1770 C.ar      1 DIF602      0.0000 
      2 C2         44.9320   49.8210   15.2030 C.ar      1 DIF602      0.0000 
      3 CL2        46.4320   50.1730   14.2660 Cl        1 DIF602      0.0000 
      4 C3         44.2510   50.8230   15.9380 C.ar      1 DIF602      0.0000 
      5 C4         43.1250   50.4490   16.6610 C.ar      1 DIF602      0.0000 
      6 CL4        42.2740   51.6640   17.6380 Cl        1 DIF602      0.0000 
      7 C5         42.6390   49.1440   16.6400 C.ar      1 DIF602      0.0000 
      8 C6         43.2850   48.1770   15.8960 C.ar      1 DIF602      0.0000 
      9 N1         44.8370   52.0430   16.2250 N.pl3     1 DIF602      0.0000 
     10 C7         46.2100   53.5900   17.4990 C.ar      1 DIF602      0.0000 
     11 C8         45.5810   52.2960   17.3660 C.ar      1 DIF602      0.0000 
     12 C9         45.7640   51.3570   18.3900 C.ar      1 DIF602      0.0000 
     13 C10        46.5180   51.6830   19.5210 C.ar      1 DIF602      0.0000 
     14 C11        47.1130   52.9350   19.6470 C.ar      1 DIF602      0.0000 
     15 C12        46.9600   53.8860   18.6440 C.ar      1 DIF602      0.0000 
     16 C13        46.0410   54.7220   16.4650 C.3       1 DIF602      0.0000 
     17 C14        46.7100   54.4630   15.1290 C.2       1 DIF602      0.0000 
     18 O1         47.6080   55.2430   14.7570 O.co2     1 DIF602      0.0000 
     19 O2         46.3090   53.5160   14.4210 O.co2     1 DIF602      0.0000 
@<TRIPOS>BOND
     1    1    2 ar   
     2    1    8 ar   
     3    2    3 1    
     4    2    4 ar   
     5    4    5 ar   
     6    4    9 1    
     7    5    6 1    
     8    5    7 ar   
     9    7    8 ar   
    10    9   11 1    
    11   10   11 ar   
    12   10   15 ar   
    13   10   16 1    
    14   11   12 ar   
    15   12   13 ar   
    16   13   14 ar   
    17   14   15 ar   
    18   16   17 1    
    19   17   18 ar   
    20   17   19 ar   
@<TRIPOS>SUBSTRUCTURE
     1 DIF602      1 GROUP   
@<TRIPOS>SET

