#    Name: 6hn0_4_DIF
#    Modification time : Fri May 22 19:23:50 2020

@<TRIPOS>MOLECULE
6hn0_4_DIF
   19    20     1     0     0
SMALL
NO_CHARGES


@<TRIPOS>ATOM
      1 C1         69.6820   37.1200   34.0280 C.ar      1 DIF604      0.0000 
      2 C2         68.3990   36.7040   33.7140 C.ar      1 DIF604      0.0000 
      3 CL2        67.8390   35.0800   34.2280 Cl        1 DIF604      0.0000 
      4 C3         67.5220   37.5450   33.0290 C.ar      1 DIF604      0.0000 
      5 C4         67.9860   38.7990   32.6050 C.ar      1 DIF604      0.0000 
      6 CL4        66.9270   39.9100   31.6920 Cl        1 DIF604      0.0000 
      7 C5         69.2730   39.2240   32.9320 C.ar      1 DIF604      0.0000 
      8 C6         70.1230   38.3810   33.6420 C.ar      1 DIF604      0.0000 
      9 N1         66.4160   36.9720   32.4790 N.pl3     1 DIF604      0.0000 
     10 C7         65.4350   35.2080   31.1140 C.ar      1 DIF604      0.0000 
     11 C8         66.5550   36.0340   31.4560 C.ar      1 DIF604      0.0000 
     12 C9         67.7880   35.8270   30.7670 C.ar      1 DIF604      0.0000 
     13 C10        67.9110   34.8230   29.7820 C.ar      1 DIF604      0.0000 
     14 C11        66.8210   34.0130   29.4680 C.ar      1 DIF604      0.0000 
     15 C12        65.5890   34.2040   30.1350 C.ar      1 DIF604      0.0000 
     16 C13        64.0610   35.3400   31.8070 C.3       1 DIF604      0.0000 
     17 C14        63.3970   36.7160   31.6470 C.2       1 DIF604      0.0000 
     18 O1         62.1810   36.8100   31.8250 O.co2     1 DIF604      0.0000 
     19 O2         64.0810   37.7180   31.3840 O.co2     1 DIF604      0.0000 
@<TRIPOS>BOND
     1    1    2 ar   
     2    1    8 ar   
     3    2    3 1    
     4    2    4 ar   
     5    4    5 ar   
     6    4    9 1    
     7    5    6 1    
     8    5    7 ar   
     9    7    8 ar   
    10    9   11 1    
    11   10   11 ar   
    12   10   15 ar   
    13   10   16 1    
    14   11   12 ar   
    15   12   13 ar   
    16   13   14 ar   
    17   14   15 ar   
    18   16   17 1    
    19   17   18 ar   
    20   17   19 ar   
@<TRIPOS>SUBSTRUCTURE
     1 DIF604      1 GROUP   
@<TRIPOS>SET

