#    Name: 6hn0_5_DIF
#    Modification time : Fri May 22 19:23:56 2020

@<TRIPOS>MOLECULE
6hn0_5_DIF
   19    20     1     0     0
SMALL
NO_CHARGES


@<TRIPOS>ATOM
      1 C1         49.1980    3.6670   26.2330 C.ar      1 DIF605      0.0000 
      2 C2         49.2140    4.0330   24.8830 C.ar      1 DIF605      0.0000 
      3 CL2        47.9310    5.1420   24.2320 Cl        1 DIF605      0.0000 
      4 C3         50.1760    3.5210   23.9860 C.ar      1 DIF605      0.0000 
      5 C4         51.1440    2.5970   24.5040 C.ar      1 DIF605      0.0000 
      6 CL4        52.4510    1.7980   23.5670 Cl        1 DIF605      0.0000 
      7 C5         51.1150    2.2610   25.8680 C.ar      1 DIF605      0.0000 
      8 C6         50.1500    2.7840   26.7250 C.ar      1 DIF605      0.0000 
      9 N1         49.9330    3.9670   22.6970 N.pl3     1 DIF605      0.0000 
     10 C7         48.9240    3.5260   20.5930 C.ar      1 DIF605      0.0000 
     11 C8         49.9930    3.2870   21.5020 C.ar      1 DIF605      0.0000 
     12 C9         50.9570    2.3260   21.1710 C.ar      1 DIF605      0.0000 
     13 C10        50.8830    1.6300   19.9730 C.ar      1 DIF605      0.0000 
     14 C11        49.8420    1.8790   19.0800 C.ar      1 DIF605      0.0000 
     15 C12        48.8650    2.8160   19.3830 C.ar      1 DIF605      0.0000 
     16 C13        47.8560    4.5520   21.0120 C.3       1 DIF605      0.0000 
     17 C14        46.6950    4.7720   20.0830 C.2       1 DIF605      0.0000 
     18 O1         45.5830    5.0140   20.6050 O.co2     1 DIF605      0.0000 
     19 O2         46.8970    4.8280   18.8650 O.co2     1 DIF605      0.0000 
@<TRIPOS>BOND
     1    1    2 ar   
     2    1    8 ar   
     3    2    3 1    
     4    2    4 ar   
     5    4    5 ar   
     6    4    9 1    
     7    5    6 1    
     8    5    7 ar   
     9    7    8 ar   
    10    9   11 1    
    11   10   11 ar   
    12   10   15 ar   
    13   10   16 1    
    14   11   12 ar   
    15   12   13 ar   
    16   13   14 ar   
    17   14   15 ar   
    18   16   17 1    
    19   17   18 ar   
    20   17   19 ar   
@<TRIPOS>SUBSTRUCTURE
     1 DIF605      1 GROUP   
@<TRIPOS>SET

