#    Name: 6hn0_6_DIF
#    Modification time : Fri May 22 19:24:02 2020

@<TRIPOS>MOLECULE
6hn0_6_DIF
   19    20     1     0     0
SMALL
NO_CHARGES


@<TRIPOS>ATOM
      1 C1         46.1830    8.7140   17.5860 C.ar      1 DIF606      0.0000 
      2 C2         45.1570    9.4840   18.1620 C.ar      1 DIF606      0.0000 
      3 CL2        44.1450   10.5920   17.1690 Cl        1 DIF606      0.0000 
      4 C3         44.9140    9.4090   19.5250 C.ar      1 DIF606      0.0000 
      5 C4         45.6450    8.5180   20.2970 C.ar      1 DIF606      0.0000 
      6 CL4        45.2780    8.3850   22.0550 Cl        1 DIF606      0.0000 
      7 C5         46.6870    7.7880   19.7430 C.ar      1 DIF606      0.0000 
      8 C6         46.9640    7.8800   18.3880 C.ar      1 DIF606      0.0000 
      9 N1         43.7520    9.8540   20.0470 N.pl3     1 DIF606      0.0000 
     10 C7         41.7300    8.8570   20.9960 C.ar      1 DIF606      0.0000 
     11 C8         42.6610    8.9970   19.9070 C.ar      1 DIF606      0.0000 
     12 C9         42.5130    8.1330   18.7900 C.ar      1 DIF606      0.0000 
     13 C10        41.4720    7.2240   18.7290 C.ar      1 DIF606      0.0000 
     14 C11        40.5650    7.1170   19.7610 C.ar      1 DIF606      0.0000 
     15 C12        40.6790    7.9290   20.8780 C.ar      1 DIF606      0.0000 
     16 C13        41.8020    9.7470   22.2640 C.3       1 DIF606      0.0000 
     17 C14        41.5890    9.0000   23.5700 C.2       1 DIF606      0.0000 
     18 O1         42.5320    8.9690   24.3970 O.co2     1 DIF606      0.0000 
     19 O2         40.4670    8.5040   23.8120 O.co2     1 DIF606      0.0000 
@<TRIPOS>BOND
     1    1    2 ar   
     2    1    8 ar   
     3    2    3 1    
     4    2    4 ar   
     5    4    5 ar   
     6    4    9 1    
     7    5    6 1    
     8    5    7 ar   
     9    7    8 ar   
    10    9   11 1    
    11   10   11 ar   
    12   10   15 ar   
    13   10   16 1    
    14   11   12 ar   
    15   12   13 ar   
    16   13   14 ar   
    17   14   15 ar   
    18   16   17 1    
    19   17   18 ar   
    20   17   19 ar   
@<TRIPOS>SUBSTRUCTURE
     1 DIF606      1 GROUP   
@<TRIPOS>SET

