#    Name: 6hn0_7_DIF
#    Modification time : Fri May 22 19:24:09 2020

@<TRIPOS>MOLECULE
6hn0_7_DIF
   19    20     1     0     0
SMALL
NO_CHARGES


@<TRIPOS>ATOM
      1 C1         54.8280   31.4210   23.8620 C.ar      1 DIF607      0.0000 
      2 C2         54.5700   32.3720   24.8470 C.ar      1 DIF607      0.0000 
      3 CL2        53.1490   32.1170   25.9280 Cl        1 DIF607      0.0000 
      4 C3         55.3920   33.5020   25.0010 C.ar      1 DIF607      0.0000 
      5 C4         56.4710   33.6390   24.1320 C.ar      1 DIF607      0.0000 
      6 CL4        57.5940   35.0350   24.2530 Cl        1 DIF607      0.0000 
      7 C5         56.7130   32.6850   23.1500 C.ar      1 DIF607      0.0000 
      8 C6         55.8960   31.5730   23.0150 C.ar      1 DIF607      0.0000 
      9 N1         55.2780   34.3060   26.1370 N.pl3     1 DIF607      0.0000 
     10 C7         54.9320   34.6140   28.5580 C.ar      1 DIF607      0.0000 
     11 C8         55.3310   33.7920   27.4420 C.ar      1 DIF607      0.0000 
     12 C9         55.7110   32.4450   27.7150 C.ar      1 DIF607      0.0000 
     13 C10        55.6580   31.9280   29.0110 C.ar      1 DIF607      0.0000 
     14 C11        55.2530   32.7360   30.0800 C.ar      1 DIF607      0.0000 
     15 C12        54.8900   34.0660   29.8540 C.ar      1 DIF607      0.0000 
     16 C13        54.4930   36.0840   28.4030 C.3       1 DIF607      0.0000 
     17 C14        55.6570   37.0280   28.2520 C.2       1 DIF607      0.0000 
     18 O1         56.1590   37.5400   29.2840 O.co2     1 DIF607      0.0000 
     19 O2         56.0720   37.2650   27.1030 O.co2     1 DIF607      0.0000 
@<TRIPOS>BOND
     1    1    2 ar   
     2    1    8 ar   
     3    2    3 1    
     4    2    4 ar   
     5    4    5 ar   
     6    4    9 1    
     7    5    6 1    
     8    5    7 ar   
     9    7    8 ar   
    10    9   11 1    
    11   10   11 ar   
    12   10   15 ar   
    13   10   16 1    
    14   11   12 ar   
    15   12   13 ar   
    16   13   14 ar   
    17   14   15 ar   
    18   16   17 1    
    19   17   18 ar   
    20   17   19 ar   
@<TRIPOS>SUBSTRUCTURE
     1 DIF607      1 GROUP   
@<TRIPOS>SET

