#    Name: 6dm1_2_CYZ
#    Modification time : Fri May 22 19:44:45 2020

@<TRIPOS>MOLECULE
6dm1_2_CYZ
   24    31     1     0     0
SMALL
NO_CHARGES


@<TRIPOS>ATOM
      1 C1        152.3030  182.3570  171.1430 C.3       1 CYZ1302     0.0000 
      2 C2        152.0990  183.4640  171.0670 C.3       1 CYZ1302     0.0000 
      3 C3        152.5230  184.3560  170.5220 Du        1 CYZ1302     0.0000 
      4 C4        154.0870  184.1130  170.6710 Du        1 CYZ1302     0.0000 
      5 C5        154.0970  183.2570  171.3280 C.3       1 CYZ1302     0.0000 
      6 C6        153.6850  182.2170  171.2190 C.3       1 CYZ1302     0.0000 
      7 C7        153.1890  183.6920  172.1630 Du        1 CYZ1302     0.0000 
      8 C8        151.7480  181.6060  169.6980 C.3       1 CYZ1302     0.0000 
      9 N1        150.4510  182.0730  169.3960 N.pl3     1 CYZ1302     0.0000 
     10 S1        150.0560  181.4830  167.9720 S.o2      1 CYZ1302     0.0000 
     11 C9        150.5390  179.9590  167.6520 C.ar      1 CYZ1302     0.0000 
     12 C10       151.3380  179.3320  168.5200 C.ar      1 CYZ1302     0.0000 
     13 N2        151.7860  180.1050  169.8050 N.pl3     1 CYZ1302     0.0000 
     14 C11       150.0980  179.3260  166.4720 C.ar      1 CYZ1302     0.0000 
     15 C12       150.5020  178.0510  166.2190 C.ar      1 CYZ1302     0.0000 
     16 C13       151.3360  177.3920  167.1090 C.ar      1 CYZ1302     0.0000 
     17 C14       151.7610  178.0160  168.2570 C.ar      1 CYZ1302     0.0000 
     18 CL        151.8600  175.7060  166.7570 Cl        1 CYZ1302     0.0000 
     19 S2        149.9270  177.2260  164.6820 S.o2      1 CYZ1302     0.0000 
     20 O1        150.6290  182.3290  166.9560 O.2       1 CYZ1302     0.0000 
     21 O2        148.5760  181.4580  167.8930 O.2       1 CYZ1302     0.0000 
     22 O3        148.7580  177.9670  164.0930 O.2       1 CYZ1302     0.0000 
     23 O4        149.2980  175.9270  164.9770 O.2       1 CYZ1302     0.0000 
     24 N3        151.2440  177.0790  163.5430 N.pl3     1 CYZ1302     0.0000 
@<TRIPOS>BOND
     1    1    2 1    
     2    1    6 1    
     3    1    7 du   
     4    1    8 1    
     5    2    3 du   
     6    2    7 du   
     7    3    4 du   
     8    3    7 du   
     9    4    5 du   
    10    4    7 du   
    11    5    6 1    
    12    5    7 du   
    13    6    7 du   
    14    8    9 1    
    15    8   13 1    
    16    9   10 1    
    17   10   11 1    
    18   10   20 2    
    19   10   21 2    
    20   11   12 ar   
    21   11   14 ar   
    22   12   13 1    
    23   12   17 ar   
    24   14   15 ar   
    25   15   16 ar   
    26   15   19 1    
    27   16   17 ar   
    28   16   18 1    
    29   19   22 2    
    30   19   23 2    
    31   19   24 1    
@<TRIPOS>SUBSTRUCTURE
     1 CYZ1302     1 GROUP   
@<TRIPOS>SET

