#    Name: 6dm1_4_CYZ
#    Modification time : Fri May 22 19:45:15 2020

@<TRIPOS>MOLECULE
6dm1_4_CYZ
   24    31     1     0     0
SMALL
NO_CHARGES


@<TRIPOS>ATOM
      1 C1        171.6890  141.6180  171.1650 C.3       1 CYZ1302     0.0000 
      2 C2        171.9020  140.5120  171.0950 C.3       1 CYZ1302     0.0000 
      3 C3        171.4910  139.6150  170.5510 Du        1 CYZ1302     0.0000 
      4 C4        169.9240  139.8450  170.6800 Du        1 CYZ1302     0.0000 
      5 C5        169.9000  140.7030  171.3350 C.3       1 CYZ1302     0.0000 
      6 C6        170.3050  141.7460  171.2250 C.3       1 CYZ1302     0.0000 
      7 C7        170.8030  140.2800  172.1810 Du        1 CYZ1302     0.0000 
      8 C8        172.2530  142.3720  169.7260 C.3       1 CYZ1302     0.0000 
      9 N1        173.5520  141.9070  169.4330 N.pl3     1 CYZ1302     0.0000 
     10 S1        173.9610  142.4990  168.0140 S.o2      1 CYZ1302     0.0000 
     11 C9        173.4730  144.0220  167.6880 C.ar      1 CYZ1302     0.0000 
     12 C10       172.6660  144.6460  168.5510 C.ar      1 CYZ1302     0.0000 
     13 N2        172.2140  143.8720  169.8340 N.pl3     1 CYZ1302     0.0000 
     14 C11       173.9170  144.6570  166.5100 C.ar      1 CYZ1302     0.0000 
     15 C12       173.5080  145.9290  166.2530 C.ar      1 CYZ1302     0.0000 
     16 C13       172.6650  146.5840  167.1370 C.ar      1 CYZ1302     0.0000 
     17 C14       172.2370  145.9600  168.2840 C.ar      1 CYZ1302     0.0000 
     18 CL        172.1330  148.2670  166.7810 Cl        1 CYZ1302     0.0000 
     19 S2        174.0850  146.7580  164.7180 S.o2      1 CYZ1302     0.0000 
     20 O1        173.4050  141.6520  166.9910 O.2       1 CYZ1302     0.0000 
     21 O2        175.4420  142.5290  167.9570 O.2       1 CYZ1302     0.0000 
     22 O3        175.2610  146.0260  164.1330 O.2       1 CYZ1302     0.0000 
     23 O4        174.7050  148.0610  165.0150 O.2       1 CYZ1302     0.0000 
     24 N3        172.7700  146.8990  163.5750 N.pl3     1 CYZ1302     0.0000 
@<TRIPOS>BOND
     1    1    2 1    
     2    1    6 1    
     3    1    7 du   
     4    1    8 1    
     5    2    3 du   
     6    2    7 du   
     7    3    4 du   
     8    3    7 du   
     9    4    5 du   
    10    4    7 du   
    11    5    6 1    
    12    5    7 du   
    13    6    7 du   
    14    8    9 1    
    15    8   13 1    
    16    9   10 1    
    17   10   11 1    
    18   10   20 2    
    19   10   21 2    
    20   11   12 ar   
    21   11   14 ar   
    22   12   13 1    
    23   12   17 ar   
    24   14   15 ar   
    25   15   16 ar   
    26   15   19 1    
    27   16   17 ar   
    28   16   18 1    
    29   19   22 2    
    30   19   23 2    
    31   19   24 1    
@<TRIPOS>SUBSTRUCTURE
     1 CYZ1302     1 GROUP   
@<TRIPOS>SET

