#    Name: 6dm1_1_CYZ
#    Modification time : Fri May 22 19:44:30 2020

@<TRIPOS>MOLECULE
6dm1_1_CYZ
   24    31     1     0     0
SMALL
NO_CHARGES


@<TRIPOS>ATOM
      1 C1        179.4440  134.7320  167.5100 C.3       1 CYZ1302     0.0000 
      2 C2        179.7570  135.7230  167.9460 C.3       1 CYZ1302     0.0000 
      3 C3        180.3730  136.6140  167.6330 Du        1 CYZ1302     0.0000 
      4 C4        181.6400  135.9100  166.9770 Du        1 CYZ1302     0.0000 
      5 C5        181.4300  134.8690  167.1790 C.3       1 CYZ1302     0.0000 
      6 C6        180.5740  134.2010  166.8890 C.3       1 CYZ1302     0.0000 
      7 C7        181.0640  135.0140  168.4280 Du        1 CYZ1302     0.0000 
      8 C8        178.2480  135.0340  166.3150 C.3       1 CYZ1302     0.0000 
      9 N1        177.0320  135.3980  166.9280 N.pl3     1 CYZ1302     0.0000 
     10 S1        176.0870  135.8770  165.7420 S.o2      1 CYZ1302     0.0000 
     11 C9        176.1510  135.0200  164.3540 C.ar      1 CYZ1302     0.0000 
     12 C10       177.0840  134.0750  164.2090 C.ar      1 CYZ1302     0.0000 
     13 N2        178.0820  133.8530  165.3920 N.pl3     1 CYZ1302     0.0000 
     14 C11       175.2180  135.2860  163.3360 C.ar      1 CYZ1302     0.0000 
     15 C12       175.2820  134.5650  162.1900 C.ar      1 CYZ1302     0.0000 
     16 C13       176.2470  133.5850  162.0230 C.ar      1 CYZ1302     0.0000 
     17 C14       177.1560  133.3300  163.0190 C.ar      1 CYZ1302     0.0000 
     18 CL        176.3070  132.6420  160.4910 Cl        1 CYZ1302     0.0000 
     19 S2        174.0550  134.9260  160.8770 S.o2      1 CYZ1302     0.0000 
     20 O1        176.4630  137.2260  165.4060 O.2       1 CYZ1302     0.0000 
     21 O2        174.6860  135.7890  166.2150 O.2       1 CYZ1302     0.0000 
     22 O3        172.9110  135.7190  161.4530 O.2       1 CYZ1302     0.0000 
     23 O4        173.3800  133.6910  160.4440 O.2       1 CYZ1302     0.0000 
     24 N3        174.8160  135.7510  159.5370 N.pl3     1 CYZ1302     0.0000 
@<TRIPOS>BOND
     1    1    2 1    
     2    1    6 1    
     3    1    7 du   
     4    1    8 1    
     5    2    3 du   
     6    2    7 du   
     7    3    4 du   
     8    3    7 du   
     9    4    5 du   
    10    4    7 du   
    11    5    6 1    
    12    5    7 du   
    13    6    7 du   
    14    8    9 1    
    15    8   13 1    
    16    9   10 1    
    17   10   11 1    
    18   10   20 2    
    19   10   21 2    
    20   11   12 ar   
    21   11   14 ar   
    22   12   13 1    
    23   12   17 ar   
    24   14   15 ar   
    25   15   16 ar   
    26   15   19 1    
    27   16   17 ar   
    28   16   18 1    
    29   19   22 2    
    30   19   23 2    
    31   19   24 1    
@<TRIPOS>SUBSTRUCTURE
     1 CYZ1302     1 GROUP   
@<TRIPOS>SET

