#    Name: 6dm1_3_CYZ
#    Modification time : Fri May 22 19:45:00 2020

@<TRIPOS>MOLECULE
6dm1_3_CYZ
   24    31     1     0     0
SMALL
NO_CHARGES


@<TRIPOS>ATOM
      1 C1        144.5740  189.2600  167.5110 C.3       1 CYZ1302     0.0000 
      2 C2        144.2480  188.2670  167.9310 C.3       1 CYZ1302     0.0000 
      3 C3        143.6240  187.3890  167.6040 Du        1 CYZ1302     0.0000 
      4 C4        142.3690  188.1150  166.9510 Du        1 CYZ1302     0.0000 
      5 C5        142.5890  189.1500  167.1680 C.3       1 CYZ1302     0.0000 
      6 C6        143.4530  189.8130  166.8910 C.3       1 CYZ1302     0.0000 
      7 C7        142.9460  188.9840  168.4160 Du        1 CYZ1302     0.0000 
      8 C8        145.7720  188.9610  166.3170 C.3       1 CYZ1302     0.0000 
      9 N1        146.9880  188.6000  166.9300 N.pl3     1 CYZ1302     0.0000 
     10 S1        147.9340  188.1220  165.7450 S.o2      1 CYZ1302     0.0000 
     11 C9        147.8670  188.9770  164.3560 C.ar      1 CYZ1302     0.0000 
     12 C10       146.9340  189.9210  164.2110 C.ar      1 CYZ1302     0.0000 
     13 N2        145.9370  190.1440  165.3950 N.pl3     1 CYZ1302     0.0000 
     14 C11       148.7990  188.7110  163.3370 C.ar      1 CYZ1302     0.0000 
     15 C12       148.7320  189.4320  162.1890 C.ar      1 CYZ1302     0.0000 
     16 C13       147.7660  190.4100  162.0230 C.ar      1 CYZ1302     0.0000 
     17 C14       146.8570  190.6650  163.0200 C.ar      1 CYZ1302     0.0000 
     18 CL        147.7020  191.3500  160.4910 Cl        1 CYZ1302     0.0000 
     19 S2        149.9570  189.0700  160.8740 S.o2      1 CYZ1302     0.0000 
     20 O1        147.5630  186.7720  165.4120 O.2       1 CYZ1302     0.0000 
     21 O2        149.3360  188.2160  166.2160 O.2       1 CYZ1302     0.0000 
     22 O3        151.1020  188.2770  161.4470 O.2       1 CYZ1302     0.0000 
     23 O4        150.6310  190.3070  160.4430 O.2       1 CYZ1302     0.0000 
     24 N3        149.1940  188.2460  159.5340 N.pl3     1 CYZ1302     0.0000 
@<TRIPOS>BOND
     1    1    2 1    
     2    1    6 1    
     3    1    7 du   
     4    1    8 1    
     5    2    3 du   
     6    2    7 du   
     7    3    4 du   
     8    3    7 du   
     9    4    5 du   
    10    4    7 du   
    11    5    6 1    
    12    5    7 du   
    13    6    7 du   
    14    8    9 1    
    15    8   13 1    
    16    9   10 1    
    17   10   11 1    
    18   10   20 2    
    19   10   21 2    
    20   11   12 ar   
    21   11   14 ar   
    22   12   13 1    
    23   12   17 ar   
    24   14   15 ar   
    25   15   16 ar   
    26   15   19 1    
    27   16   17 ar   
    28   16   18 1    
    29   19   22 2    
    30   19   23 2    
    31   19   24 1    
@<TRIPOS>SUBSTRUCTURE
     1 CYZ1302     1 GROUP   
@<TRIPOS>SET

