#    Name: 6fms_3_SER_MLE_IIL_ALO_5BV
#    Modification time : Fri May 22 19:34:57 2020

@<TRIPOS>MOLECULE
6fms_3_SER_MLE_IIL_ALO_5BV
   46    48     5     0     0
SMALL
NO_CHARGES


@<TRIPOS>ATOM
      1 N           7.7120   20.9980   26.6580 N.am      1 SER203      0.0000 
      2 CA          8.5480   19.8000   26.5500 C.3       1 SER203      0.0000 
      3 C           7.9110   18.6870   25.7220 C.2       1 SER203      0.0000 
      4 O           8.5100   18.1980   24.7610 O.2       1 SER203      0.0000 
      5 CB          8.8840   19.2650   27.9440 C.3       1 SER203      0.0000 
      6 OG          9.6360   20.2100   28.6870 O.3       1 SER203      0.0000 
      7 N           5.2090   24.2810   22.0280 N.4       2 MLE201      0.0000 
      8 CN          5.6460   23.5520   20.8630 C.3       2 MLE201      0.0000 
      9 CA          6.2850   25.0180   22.6920 C.3       2 MLE201      0.0000 
     10 CB          5.8400   26.3830   23.2100 C.3       2 MLE201      0.0000 
     11 CG          5.0130   27.2020   22.2300 C.3       2 MLE201      0.0000 
     12 CD1         4.3320   28.3420   22.9610 C.3       2 MLE201      0.0000 
     13 CD2         5.8710   27.7500   21.1070 C.3       2 MLE201      0.0000 
     14 C           6.9300   24.2670   23.9050 C.2       2 MLE201      0.0000 
     15 O           8.1840   24.2900   24.0480 O.co2     2 MLE201      0.0000 
     16 N           6.1060   23.6330   24.7330 N.am      3 IIL202      0.0000 
     17 CA          6.5830   22.9860   25.9370 C.3       3 IIL202      0.0000 
     18 C           7.3070   21.6920   25.5960 C.2       3 IIL202      0.0000 
     19 O           7.5130   21.3010   24.4450 O.2       3 IIL202      0.0000 
     20 CB          5.4620   22.6710   26.9590 C.3       3 IIL202      0.0000 
     21 CG2         4.4380   21.7110   26.3940 C.3       3 IIL202      0.0000 
     22 CG1         4.8030   23.9680   27.4100 C.3       3 IIL202      0.0000 
     23 CD1         4.0550   23.8150   28.7090 C.3       3 IIL202      0.0000 
     24 N           6.7020   18.2830   26.0990 N.am      4 ALO204      0.0000 
     25 CA          6.0120   17.2240   25.4010 C.3       4 ALO204      0.0000 
     26 CB          4.7980   16.6380   26.1800 C.3       4 ALO204      0.0000 
     27 CG2         3.7480   17.7070   26.4110 C.3       4 ALO204      0.0000 
     28 OG1         5.2110   16.0490   27.4010 O.3       4 ALO204      0.0000 
     29 C           5.5050   17.7030   24.0550 C.2       4 ALO204      0.0000 
     30 O           5.0840   17.0470   23.1010 O.2       4 ALO204      0.0000 
     31 O34         3.2210   20.4280   23.6010           5 5BV205      0.0000 
     32 O35         3.3350   20.8610   21.4030           5 5BV205      0.0000 
     33 O46         3.7430   24.0190   22.9480           5 5BV205      0.0000 
     34 N31         5.4990   19.1260   23.9130           5 5BV205      0.0000 
     35 C32         5.2100   19.6490   22.5920           5 5BV205      0.0000 
     36 C33         3.8460   20.3380   22.5960           5 5BV205      0.0000 
     37 C36         2.3310   21.8180   21.5790           5 5BV205      0.0000 
     38 C37         1.0400   21.3090   20.9380           5 5BV205      0.0000 
     39 C38         1.3750   20.3020   19.8370           5 5BV205      0.0000 
     40 C39         0.3060   19.2100   19.7940           5 5BV205      0.0000 
     41 C40         0.4670   18.3640   18.5310           5 5BV205      0.0000 
     42 C41        -0.6270   18.7320   17.5310           5 5BV205      0.0000 
     43 C42        -0.0570   19.6730   16.4700           5 5BV205      0.0000 
     44 C43         2.7640   23.1360   20.9330           5 5BV205      0.0000 
     45 C44         1.5910   24.1120   20.9230           5 5BV205      0.0000 
     46 C45         3.9140   23.7510   21.7290           5 5BV205      0.0000 
@<TRIPOS>BOND
     1    1    2 1    
     2    1   18 am   
     3    2    3 1    
     4    2    5 1    
     5    3    4 2    
     6    3   24 du   
     7    5    6 1    
     8    7    8 1    
     9    7    9 1    
    10    7   33 du   
    11    7   46 du   
    12    8   46 du   
    13    9   10 1    
    14    9   14 1    
    15   10   11 1    
    16   11   12 1    
    17   11   13 1    
    18   14   15 ar   
    19   14   16 du   
    20   16   17 1    
    21   17   18 1    
    22   17   20 1    
    23   18   19 2    
    24   20   21 1    
    25   20   22 1    
    26   22   23 1    
    27   24   25 1    
    28   25   26 1    
    29   25   29 1    
    30   26   27 1    
    31   26   28 1    
    32   29   30 2    
    33   29   34 du   
    34   31   36 du   
    35   32   36 du   
    36   32   37 du   
    37   33   46 du   
    38   34   35 du   
    39   35   36 du   
    40   37   38 du   
    41   37   44 du   
    42   38   39 du   
    43   39   40 du   
    44   40   41 du   
    45   41   42 du   
    46   42   43 du   
    47   44   45 du   
    48   44   46 du   
@<TRIPOS>SUBSTRUCTURE
     1 SER203      1 RESIDUE 
     2 MLE201      7 GROUP   
     3 IIL202     16 RESIDUE 
     4 ALO204     24 RESIDUE 
     5 5BV205     31 GROUP   
@<TRIPOS>SET

