#    Name: 6ow4_1_NAD
#    Modification time : Fri May 22 19:32:22 2020

@<TRIPOS>MOLECULE
6ow4_1_NAD
   44    48     1     0     1
SMALL
NO_CHARGES


@<TRIPOS>ATOM
      1 PA         23.9200   75.9000   24.9630 P.3       1 NAD301      0.0000 
      2 O1A        22.5110   76.2170   25.3480 O.co2     1 NAD301      0.0000 
      3 O2A        24.4300   76.8700   23.8870 O.co2     1 NAD301      0.0000 
      4 O5B        24.0500   74.4140   24.4250 O.3       1 NAD301      0.0000 
      5 C5B        23.0510   73.4530   24.7530 C.3       1 NAD301      0.0000 
      6 C4B        22.4280   72.9180   23.4300 C.3       1 NAD301      0.0000 
      7 O4B        21.4070   71.7970   23.8430 O.3       1 NAD301      0.0000 
      8 C3B        21.7930   73.7990   22.7690 C.3       1 NAD301      0.0000 
      9 O3B        22.3070   73.9430   21.3970 O.3       1 NAD301      0.0000 
     10 C2B        20.2110   73.2890   22.6970 C.3       1 NAD301      0.0000 
     11 O2B        19.6230   73.6240   21.4040 O.3       1 NAD301      0.0000 
     12 C1B        20.2230   72.0260   22.8950 C.3       1 NAD301      0.0000 
     13 N9A        18.9220   71.6180   23.5230 N.pl3     1 NAD301      0.0000 
     14 C8A        18.0990   72.0930   24.4830 C.2       1 NAD301      0.0000 
     15 N7A        17.0250   71.2750   24.5830 N.2       1 NAD301      0.0000 
     16 C5A        17.1810   70.2930   23.6690 C.ar      1 NAD301      0.0000 
     17 C6A        16.3680   69.1980   23.3500 C.ar      1 NAD301      0.0000 
     18 N6A        15.1230   68.6800   23.8170 N.pl3     1 NAD301      0.0000 
     19 N1A        16.7530   68.3420   22.3790 N.ar      1 NAD301      0.0000 
     20 C2A        17.9330   68.5330   21.7060 C.ar      1 NAD301      0.0000 
     21 N3A        18.7380   69.6170   22.0160 N.ar      1 NAD301      0.0000 
     22 C4A        18.3540   70.4920   23.0030 C.ar      1 NAD301      0.0000 
     23 O3         24.8650   76.0360   26.2940 O.3       1 NAD301      0.0000 
     24 PN         26.3660   75.4770   26.4360 P.3       1 NAD301      0.0000 
     25 O1N        27.1520   76.5350   27.1550 O.co2     1 NAD301      0.0000 
     26 O2N        27.0400   75.1620   25.1110 O.co2     1 NAD301      0.0000 
     27 O5D        26.3160   74.2020   27.3760 O.3       1 NAD301      0.0000 
     28 C5D        26.2760   72.8820   26.8710 C.3       1 NAD301      0.0000 
     29 C4D        26.0890   71.9400   28.0930 C.3       1 NAD301      0.0000 
     30 O4D        26.9090   72.2870   29.0550 O.3       1 NAD301      0.0000 
     31 C3D        24.6840   72.0620   28.6640 C.3       1 NAD301      0.0000 
     32 O3D        24.1900   70.8310   29.0120 O.3       1 NAD301      0.0000 
     33 C2D        24.8730   72.9390   29.9350 C.3       1 NAD301      0.0000 
     34 O2D        23.7420   72.6520   30.8580 O.3       1 NAD301      0.0000 
     35 C1D        26.0160   72.5490   30.3840 C.3       1 NAD301      0.0000 
     36 N1N        26.7200   73.5120   31.2370 N.pl3     1 NAD301      0.0000 
     37 C2N        27.1470   74.7320   30.7290 C.ar      1 NAD301      0.0000 
     38 C3N        27.8240   75.6490   31.5450 C.ar      1 NAD301      0.0000 
     39 C7N        28.3020   77.0160   31.0010 C.2       1 NAD301      0.0000 
     40 O7N        28.7100   77.8530   31.7750 O.2       1 NAD301      0.0000 
     41 N7N        28.2910   77.3230   29.6130 N.am      1 NAD301      0.0000 
     42 C4N        28.0770   75.3230   32.8640 C.ar      1 NAD301      0.0000 
     43 C5N        27.6650   74.1040   33.3750 C.ar      1 NAD301      0.0000 
     44 C6N        26.9900   73.1950   32.5510 C.ar      1 NAD301      0.0000 
@<TRIPOS>BOND
     1    1    2 ar   
     2    1    3 ar   
     3    1    4 1    
     4    1   23 1    
     5    4    5 1    
     6    5    6 1    
     7    6    7 1    
     8    6    8 1    
     9    7   12 1    
    10    8    9 1    
    11    8   10 1    
    12   10   11 1    
    13   10   12 1    
    14   12   13 1    
    15   13   14 1    
    16   13   22 1    
    17   14   15 2    
    18   15   16 1    
    19   16   17 ar   
    20   16   22 ar   
    21   17   18 1    
    22   17   19 ar   
    23   19   20 ar   
    24   20   21 ar   
    25   21   22 ar   
    26   23   24 1    
    27   24   25 ar   
    28   24   26 ar   
    29   24   27 1    
    30   27   28 1    
    31   28   29 1    
    32   29   30 1    
    33   29   31 1    
    34   30   35 1    
    35   31   32 1    
    36   31   33 1    
    37   33   34 1    
    38   33   35 1    
    39   35   36 1    
    40   36   37 ar   
    41   36   44 ar   
    42   37   38 ar   
    43   38   39 1    
    44   38   42 ar   
    45   39   40 2    
    46   39   41 am   
    47   42   43 ar   
    48   43   44 ar   
@<TRIPOS>SUBSTRUCTURE
     1 NAD301      1 GROUP   
@<TRIPOS>SET
ATOM$ORANGE STATIC     ATOMS   COLORGROUP SYSTEM 
42 5 5 6 6 8 8 10 10 12 12 14 14 16 16 17 17 20 \
20 22 22 28 28 29 29 31 31 33 33 35 35 37 37 38 38 39 \
39 42 42 43 43 44 44 

