#    Name: 6ow4_2_NAD
#    Modification time : Fri May 22 19:32:27 2020

@<TRIPOS>MOLECULE
6ow4_2_NAD
   44    48     1     0     1
SMALL
NO_CHARGES


@<TRIPOS>ATOM
      1 PA         40.5210   75.2860   70.9430 P.3       1 NAD301      0.0000 
      2 O1A        41.9020   75.6920   70.5350 O.co2     1 NAD301      0.0000 
      3 O2A        40.0010   76.1640   72.0890 O.co2     1 NAD301      0.0000 
      4 O5B        40.4930   73.7740   71.4280 O.3       1 NAD301      0.0000 
      5 C5B        41.5180   72.8700   71.0160 C.3       1 NAD301      0.0000 
      6 C4B        42.2430   72.3290   72.2840 C.3       1 NAD301      0.0000 
      7 O4B        43.3880   71.3790   71.7890 O.3       1 NAD301      0.0000 
      8 C3B        42.7820   73.2500   72.9750 C.3       1 NAD301      0.0000 
      9 O3B        42.2190   73.3280   74.3350 O.3       1 NAD301      0.0000 
     10 C2B        44.4070   72.9060   73.0700 C.3       1 NAD301      0.0000 
     11 O2B        44.8930   73.1530   74.4170 O.3       1 NAD301      0.0000 
     12 C1B        44.5490   71.6790   72.7470 C.3       1 NAD301      0.0000 
     13 N9A        45.8710   71.5050   72.0610 N.pl3     1 NAD301      0.0000 
     14 C8A        46.5980   72.1690   71.1400 C.2       1 NAD301      0.0000 
     15 N7A        47.7600   71.5000   70.9460 N.2       1 NAD301      0.0000 
     16 C5A        47.7520   70.4200   71.7540 C.ar      1 NAD301      0.0000 
     17 C6A        48.7030   69.4070   71.9450 C.ar      1 NAD301      0.0000 
     18 N6A        49.9890   69.0950   71.4080 N.pl3     1 NAD301      0.0000 
     19 N1A        48.4510   68.4180   72.8350 N.ar      1 NAD301      0.0000 
     20 C2A        47.2760   68.4010   73.5470 C.ar      1 NAD301      0.0000 
     21 N3A        46.3320   69.4040   73.3550 N.ar      1 NAD301      0.0000 
     22 C4A        46.5840   70.4110   72.4560 C.ar      1 NAD301      0.0000 
     23 O3         39.5030   75.4480   69.6630 O.3       1 NAD301      0.0000 
     24 PN         38.2210   74.5120   69.3860 P.3       1 NAD301      0.0000 
     25 O1N        37.2040   75.3170   68.6260 O.co2     1 NAD301      0.0000 
     26 O2N        37.6110   73.9820   70.6850 O.co2     1 NAD301      0.0000 
     27 O5D        38.7170   73.3290   68.4520 O.3       1 NAD301      0.0000 
     28 C5D        38.4430   71.9760   68.7590 C.3       1 NAD301      0.0000 
     29 C4D        38.7070   71.1430   67.4800 C.3       1 NAD301      0.0000 
     30 O4D        37.8430   71.4820   66.5540 O.3       1 NAD301      0.0000 
     31 C3D        40.0870   71.4310   66.9120 C.3       1 NAD301      0.0000 
     32 O3D        40.6760   70.2690   66.4840 O.3       1 NAD301      0.0000 
     33 C2D        39.7940   72.3890   65.7140 C.3       1 NAD301      0.0000 
     34 O2D        40.9360   72.3050   64.7640 O.3       1 NAD301      0.0000 
     35 C1D        38.6860   71.9260   65.2450 C.3       1 NAD301      0.0000 
     36 N1N        37.8470   72.8650   64.4990 N.pl3     1 NAD301      0.0000 
     37 C2N        37.2530   73.9540   65.1330 C.ar      1 NAD301      0.0000 
     38 C3N        36.4420   74.8430   64.4120 C.ar      1 NAD301      0.0000 
     39 C7N        35.7650   76.0740   65.0740 C.2       1 NAD301      0.0000 
     40 O7N        35.2120   76.9050   64.3740 O.2       1 NAD301      0.0000 
     41 N7N        35.7520   76.2620   66.4870 N.am      1 NAD301      0.0000 
     42 C4N        36.2290   74.6110   63.0680 C.ar      1 NAD301      0.0000 
     43 C5N        36.8030   73.5240   62.4330 C.ar      1 NAD301      0.0000 
     44 C6N        37.6110   72.6420   63.1580 C.ar      1 NAD301      0.0000 
@<TRIPOS>BOND
     1    1    2 ar   
     2    1    3 ar   
     3    1    4 1    
     4    1   23 1    
     5    4    5 1    
     6    5    6 1    
     7    6    7 1    
     8    6    8 1    
     9    7   12 1    
    10    8    9 1    
    11    8   10 1    
    12   10   11 1    
    13   10   12 1    
    14   12   13 1    
    15   13   14 1    
    16   13   22 1    
    17   14   15 2    
    18   15   16 1    
    19   16   17 ar   
    20   16   22 ar   
    21   17   18 1    
    22   17   19 ar   
    23   19   20 ar   
    24   20   21 ar   
    25   21   22 ar   
    26   23   24 1    
    27   24   25 ar   
    28   24   26 ar   
    29   24   27 1    
    30   27   28 1    
    31   28   29 1    
    32   29   30 1    
    33   29   31 1    
    34   30   35 1    
    35   31   32 1    
    36   31   33 1    
    37   33   34 1    
    38   33   35 1    
    39   35   36 1    
    40   36   37 ar   
    41   36   44 ar   
    42   37   38 ar   
    43   38   39 1    
    44   38   42 ar   
    45   39   40 2    
    46   39   41 am   
    47   42   43 ar   
    48   43   44 ar   
@<TRIPOS>SUBSTRUCTURE
     1 NAD301      1 GROUP   
@<TRIPOS>SET
ATOM$ORANGE STATIC     ATOMS   COLORGROUP SYSTEM 
42 5 5 6 6 8 8 10 10 12 12 14 14 16 16 17 17 20 \
20 22 22 28 28 29 29 31 31 33 33 35 35 37 37 38 38 39 \
39 42 42 43 43 44 44 

