#    Name: 6ow4_8_NAD
#    Modification time : Fri May 22 19:33:00 2020

@<TRIPOS>MOLECULE
6ow4_8_NAD
   44    48     1     0     1
SMALL
NO_CHARGES


@<TRIPOS>ATOM
      1 PA          7.1880   85.5590   91.7890 P.3       1 NAD301      0.0000 
      2 O1A         8.1380   84.7240   90.9920 O.co2     1 NAD301      0.0000 
      3 O2A         7.3250   85.2320   93.2830 O.co2     1 NAD301      0.0000 
      4 O5B         7.4680   87.1010   91.4890 O.3       1 NAD301      0.0000 
      5 C5B         7.6910   88.0220   92.5590 C.3       1 NAD301      0.0000 
      6 C4B         9.1450   88.5640   92.4390 C.3       1 NAD301      0.0000 
      7 O4B         9.3120   89.6590   93.5430 O.3       1 NAD301      0.0000 
      8 C3B        10.0210   87.6740   92.6530 C.3       1 NAD301      0.0000 
      9 O3B        10.9510   87.5450   91.5180 O.3       1 NAD301      0.0000 
     10 C2B        10.8590   88.1310   94.0180 C.3       1 NAD301      0.0000 
     11 O2B        12.2710   87.7760   93.8980 O.3       1 NAD301      0.0000 
     12 C1B        10.7050   89.3930   94.1200 C.3       1 NAD301      0.0000 
     13 N9A        10.7510   89.8020   95.5630 N.pl3     1 NAD301      0.0000 
     14 C8A        10.2330   89.3700   96.7340 C.2       1 NAD301      0.0000 
     15 N7A        10.6710   90.1910   97.7200 N.2       1 NAD301      0.0000 
     16 C5A        11.4590   91.1270   97.1540 C.ar      1 NAD301      0.0000 
     17 C6A        12.1580   92.2010   97.7170 C.ar      1 NAD301      0.0000 
     18 N6A        12.3200   92.7180   99.0360 N.pl3     1 NAD301      0.0000 
     19 N1A        12.8950   93.0190   96.9250 N.ar      1 NAD301      0.0000 
     20 C2A        12.9580   92.7960   95.5730 C.ar      1 NAD301      0.0000 
     21 N3A        12.2650   91.7320   95.0140 N.ar      1 NAD301      0.0000 
     22 C4A        11.5180   90.9000   95.8150 C.ar      1 NAD301      0.0000 
     23 O3          5.6440   85.2300   91.3230 O.3       1 NAD301      0.0000 
     24 PN          4.8020   86.1310   90.2930 P.3       1 NAD301      0.0000 
     25 O1N         5.6850   86.5570   89.1450 O.co2     1 NAD301      0.0000 
     26 O2N         3.6410   85.2850   89.7880 O.co2     1 NAD301      0.0000 
     27 O5D         4.2160   87.3750   91.0850 O.3       1 NAD301      0.0000 
     28 C5D         4.4880   88.7090   90.6950 C.3       1 NAD301      0.0000 
     29 C4D         3.4900   89.6210   91.4540 C.3       1 NAD301      0.0000 
     30 O4D         2.2720   89.2830   91.1270 O.3       1 NAD301      0.0000 
     31 C3D         3.5830   89.4280   92.9590 C.3       1 NAD301      0.0000 
     32 O3D         3.4500   90.6350   93.5940 O.3       1 NAD301      0.0000 
     33 C2D         2.3760   88.4960   93.2850 C.3       1 NAD301      0.0000 
     34 O2D         2.0260   88.6280   94.7250 O.3       1 NAD301      0.0000 
     35 C1D         1.4680   88.9370   92.4890 C.3       1 NAD301      0.0000 
     36 N1N         0.4120   87.9890   92.1490 N.pl3     1 NAD301      0.0000 
     37 C2N         0.6960   86.8570   91.3990 C.ar      1 NAD301      0.0000 
     38 C3N        -0.3230   85.9560   91.0690 C.ar      1 NAD301      0.0000 
     39 C7N        -0.0040   84.6900   90.2430 C.2       1 NAD301      0.0000 
     40 O7N         0.9240   84.6860   89.4570 O.2       1 NAD301      0.0000 
     41 N7N        -0.7860   83.5170   90.3860 N.am      1 NAD301      0.0000 
     42 C4N        -1.6170   86.1980   91.4820 C.ar      1 NAD301      0.0000 
     43 C5N        -1.9080   87.3290   92.2240 C.ar      1 NAD301      0.0000 
     44 C6N        -0.8840   88.2310   92.5480 C.ar      1 NAD301      0.0000 
@<TRIPOS>BOND
     1    1    2 ar   
     2    1    3 ar   
     3    1    4 1    
     4    1   23 1    
     5    4    5 1    
     6    5    6 1    
     7    6    7 1    
     8    6    8 1    
     9    7   12 1    
    10    8    9 1    
    11    8   10 1    
    12   10   11 1    
    13   10   12 1    
    14   12   13 1    
    15   13   14 1    
    16   13   22 1    
    17   14   15 2    
    18   15   16 1    
    19   16   17 ar   
    20   16   22 ar   
    21   17   18 1    
    22   17   19 ar   
    23   19   20 ar   
    24   20   21 ar   
    25   21   22 ar   
    26   23   24 1    
    27   24   25 ar   
    28   24   26 ar   
    29   24   27 1    
    30   27   28 1    
    31   28   29 1    
    32   29   30 1    
    33   29   31 1    
    34   30   35 1    
    35   31   32 1    
    36   31   33 1    
    37   33   34 1    
    38   33   35 1    
    39   35   36 1    
    40   36   37 ar   
    41   36   44 ar   
    42   37   38 ar   
    43   38   39 1    
    44   38   42 ar   
    45   39   40 2    
    46   39   41 am   
    47   42   43 ar   
    48   43   44 ar   
@<TRIPOS>SUBSTRUCTURE
     1 NAD301      1 GROUP   
@<TRIPOS>SET
ATOM$ORANGE STATIC     ATOMS   COLORGROUP SYSTEM 
42 5 5 6 6 8 8 10 10 12 12 14 14 16 16 17 17 20 \
20 22 22 28 28 29 29 31 31 33 33 35 35 37 37 38 38 39 \
39 42 42 43 43 44 44 

