#    Name: 6ow4_4_NAD
#    Modification time : Fri May 22 19:32:39 2020

@<TRIPOS>MOLECULE
6ow4_4_NAD
   44    48     1     0     1
SMALL
NO_CHARGES


@<TRIPOS>ATOM
      1 PA         56.3290  108.6090   72.1480 P.3       1 NAD301      0.0000 
      2 O1A        56.7490  109.4570   70.9910 O.co2     1 NAD301      0.0000 
      3 O2A        54.9120  108.9880   72.5880 O.co2     1 NAD301      0.0000 
      4 O5B        56.3970  107.0820   71.7240 O.3       1 NAD301      0.0000 
      5 C5B        55.3480  106.1950   72.1140 C.3       1 NAD301      0.0000 
      6 C4B        54.6720  105.6070   70.8410 C.3       1 NAD301      0.0000 
      7 O4B        53.6190  104.5700   71.3610 O.3       1 NAD301      0.0000 
      8 C3B        54.0500  106.4700   70.1490 C.3       1 NAD301      0.0000 
      9 O3B        54.5150  106.4980   68.7580 O.3       1 NAD301      0.0000 
     10 C2B        52.4470  106.0360   70.1500 C.3       1 NAD301      0.0000 
     11 O2B        51.8400  106.2620   68.8450 O.3       1 NAD301      0.0000 
     12 C1B        52.4130  104.7950   70.4400 C.3       1 NAD301      0.0000 
     13 N9A        51.1270  104.5120   71.1490 N.pl3     1 NAD301      0.0000 
     14 C8A        50.3950  105.0780   72.1330 C.2       1 NAD301      0.0000 
     15 N7A        49.2730  104.3400   72.3090 N.2       1 NAD301      0.0000 
     16 C5A        49.3170  103.3230   71.4280 C.ar      1 NAD301      0.0000 
     17 C6A        48.4170  102.2860   71.2000 C.ar      1 NAD301      0.0000 
     18 N6A        47.1680  101.8860   71.7610 N.pl3     1 NAD301      0.0000 
     19 N1A        48.6940  101.3740   70.2410 N.ar      1 NAD301      0.0000 
     20 C2A        49.8480  101.4610   69.4990 C.ar      1 NAD301      0.0000 
     21 N3A        50.7450  102.4950   69.7270 N.ar      1 NAD301      0.0000 
     22 C4A        50.4620  103.4180   70.6980 C.ar      1 NAD301      0.0000 
     23 O3         57.3560  108.8740   73.4040 O.3       1 NAD301      0.0000 
     24 PN         58.7400  108.0920   73.6450 P.3       1 NAD301      0.0000 
     25 O1N        59.3600  107.6510   72.3460 O.co2     1 NAD301      0.0000 
     26 O2N        59.6840  109.0270   74.3880 O.co2     1 NAD301      0.0000 
     27 O5D        58.4330  106.8590   74.5920 O.3       1 NAD301      0.0000 
     28 C5D        58.5650  105.5310   74.1320 C.3       1 NAD301      0.0000 
     29 C4D        58.3960  104.6170   75.3680 C.3       1 NAD301      0.0000 
     30 O4D        59.2800  104.9530   76.2720 O.3       1 NAD301      0.0000 
     31 C3D        57.0300  104.8140   76.0030 C.3       1 NAD301      0.0000 
     32 O3D        56.5050  103.6030   76.3640 O.3       1 NAD301      0.0000 
     33 C2D        57.3280  105.6790   77.2640 C.3       1 NAD301      0.0000 
     34 O2D        56.2510  105.4760   78.2650 O.3       1 NAD301      0.0000 
     35 C1D        58.4690  105.2240   77.6470 C.3       1 NAD301      0.0000 
     36 N1N        59.2820  106.1390   78.4400 N.pl3     1 NAD301      0.0000 
     37 C2N        59.7310  107.3230   77.8730 C.ar      1 NAD301      0.0000 
     38 C3N        60.5140  108.2040   78.6130 C.ar      1 NAD301      0.0000 
     39 C7N        60.9910  109.5160   77.9670 C.2       1 NAD301      0.0000 
     40 O7N        61.1540  109.5820   76.7640 O.2       1 NAD301      0.0000 
     41 N7N        61.2390  110.6590   78.7640 N.am      1 NAD301      0.0000 
     42 C4N        60.8590  107.8920   79.9090 C.ar      1 NAD301      0.0000 
     43 C5N        60.4280  106.7060   80.4800 C.ar      1 NAD301      0.0000 
     44 C6N        59.6370  105.8200   79.7350 C.ar      1 NAD301      0.0000 
@<TRIPOS>BOND
     1    1    2 ar   
     2    1    3 ar   
     3    1    4 1    
     4    1   23 1    
     5    4    5 1    
     6    5    6 1    
     7    6    7 1    
     8    6    8 1    
     9    7   12 1    
    10    8    9 1    
    11    8   10 1    
    12   10   11 1    
    13   10   12 1    
    14   12   13 1    
    15   13   14 1    
    16   13   22 1    
    17   14   15 2    
    18   15   16 1    
    19   16   17 ar   
    20   16   22 ar   
    21   17   18 1    
    22   17   19 ar   
    23   19   20 ar   
    24   20   21 ar   
    25   21   22 ar   
    26   23   24 1    
    27   24   25 ar   
    28   24   26 ar   
    29   24   27 1    
    30   27   28 1    
    31   28   29 1    
    32   29   30 1    
    33   29   31 1    
    34   30   35 1    
    35   31   32 1    
    36   31   33 1    
    37   33   34 1    
    38   33   35 1    
    39   35   36 1    
    40   36   37 ar   
    41   36   44 ar   
    42   37   38 ar   
    43   38   39 1    
    44   38   42 ar   
    45   39   40 2    
    46   39   41 am   
    47   42   43 ar   
    48   43   44 ar   
@<TRIPOS>SUBSTRUCTURE
     1 NAD301      1 GROUP   
@<TRIPOS>SET
ATOM$ORANGE STATIC     ATOMS   COLORGROUP SYSTEM 
42 5 5 6 6 8 8 10 10 12 12 14 14 16 16 17 17 20 \
20 22 22 28 28 29 29 31 31 33 33 35 35 37 37 38 38 39 \
39 42 42 43 43 44 44 

