#    Name: 6ow4_5_NAD
#    Modification time : Fri May 22 19:32:44 2020

@<TRIPOS>MOLECULE
6ow4_5_NAD
   44    48     1     0     1
SMALL
NO_CHARGES


@<TRIPOS>ATOM
      1 PA         57.8040   53.1800   42.7740 P.3       1 NAD301      0.0000 
      2 O1A        58.5960   52.4000   41.7770 O.co2     1 NAD301      0.0000 
      3 O2A        58.1970   52.7620   44.1980 O.co2     1 NAD301      0.0000 
      4 O5B        58.0880   54.7280   42.5510 O.3       1 NAD301      0.0000 
      5 C5B        58.2190   55.5990   43.6770 C.3       1 NAD301      0.0000 
      6 C4B        59.6160   56.2820   43.6070 C.3       1 NAD301      0.0000 
      7 O4B        59.6600   57.3410   44.7590 O.3       1 NAD301      0.0000 
      8 C3B        60.5680   55.4700   43.8000 C.3       1 NAD301      0.0000 
      9 O3B        61.5090   55.4660   42.6710 O.3       1 NAD301      0.0000 
     10 C2B        61.3650   55.9720   45.1710 C.3       1 NAD301      0.0000 
     11 O2B        62.8040   55.7680   45.0370 O.3       1 NAD301      0.0000 
     12 C1B        61.0810   57.2090   45.3080 C.3       1 NAD301      0.0000 
     13 N9A        61.1420   57.5620   46.7640 N.pl3     1 NAD301      0.0000 
     14 C8A        60.6790   57.0670   47.9390 C.2       1 NAD301      0.0000 
     15 N7A        61.1270   57.8640   48.9400 N.2       1 NAD301      0.0000 
     16 C5A        61.8690   58.8430   48.3810 C.ar      1 NAD301      0.0000 
     17 C6A        62.5580   59.9160   48.9560 C.ar      1 NAD301      0.0000 
     18 N6A        62.7580   60.3970   50.2840 N.pl3     1 NAD301      0.0000 
     19 N1A        63.2420   60.7770   48.1650 N.ar      1 NAD301      0.0000 
     20 C2A        63.2650   60.6070   46.8010 C.ar      1 NAD301      0.0000 
     21 N3A        62.5840   59.5440   46.2270 N.ar      1 NAD301      0.0000 
     22 C4A        61.8890   58.6680   47.0300 C.ar      1 NAD301      0.0000 
     23 O3         56.1970   52.8920   42.5450 O.3       1 NAD301      0.0000 
     24 PN         55.2610   53.7050   41.5100 P.3       1 NAD301      0.0000 
     25 O1N        56.0810   54.2900   40.3820 O.co2     1 NAD301      0.0000 
     26 O2N        54.2260   52.7380   40.9500 O.co2     1 NAD301      0.0000 
     27 O5D        54.4950   54.8480   42.3140 O.3       1 NAD301      0.0000 
     28 C5D        54.8010   56.2190   42.1300 C.3       1 NAD301      0.0000 
     29 C4D        53.7680   57.0380   42.9410 C.3       1 NAD301      0.0000 
     30 O4D        52.5700   56.6260   42.6310 O.3       1 NAD301      0.0000 
     31 C3D        53.9170   56.8070   44.4340 C.3       1 NAD301      0.0000 
     32 O3D        53.7550   57.9920   45.1100 O.3       1 NAD301      0.0000 
     33 C2D        52.7720   55.7980   44.7730 C.3       1 NAD301      0.0000 
     34 O2D        52.4230   55.8930   46.2150 O.3       1 NAD301      0.0000 
     35 C1D        51.8230   56.1910   44.0030 C.3       1 NAD301      0.0000 
     36 N1N        50.8170   55.1890   43.6540 N.pl3     1 NAD301      0.0000 
     37 C2N        51.1580   54.0550   42.9360 C.ar      1 NAD301      0.0000 
     38 C3N        50.1750   53.1160   42.6020 C.ar      1 NAD301      0.0000 
     39 C7N        50.5470   51.8450   41.8080 C.2       1 NAD301      0.0000 
     40 O7N        51.4680   51.8810   41.0110 O.2       1 NAD301      0.0000 
     41 N7N        49.8160   50.6380   41.9940 N.am      1 NAD301      0.0000 
     42 C4N        48.8640   53.3260   42.9720 C.ar      1 NAD301      0.0000 
     43 C5N        48.5160   54.4630   43.6760 C.ar      1 NAD301      0.0000 
     44 C6N        49.5030   55.3990   44.0110 C.ar      1 NAD301      0.0000 
@<TRIPOS>BOND
     1    1    2 ar   
     2    1    3 ar   
     3    1    4 1    
     4    1   23 1    
     5    4    5 1    
     6    5    6 1    
     7    6    7 1    
     8    6    8 1    
     9    7   12 1    
    10    8    9 1    
    11    8   10 1    
    12   10   11 1    
    13   10   12 1    
    14   12   13 1    
    15   13   14 1    
    16   13   22 1    
    17   14   15 2    
    18   15   16 1    
    19   16   17 ar   
    20   16   22 ar   
    21   17   18 1    
    22   17   19 ar   
    23   19   20 ar   
    24   20   21 ar   
    25   21   22 ar   
    26   23   24 1    
    27   24   25 ar   
    28   24   26 ar   
    29   24   27 1    
    30   27   28 1    
    31   28   29 1    
    32   29   30 1    
    33   29   31 1    
    34   30   35 1    
    35   31   32 1    
    36   31   33 1    
    37   33   34 1    
    38   33   35 1    
    39   35   36 1    
    40   36   37 ar   
    41   36   44 ar   
    42   37   38 ar   
    43   38   39 1    
    44   38   42 ar   
    45   39   40 2    
    46   39   41 am   
    47   42   43 ar   
    48   43   44 ar   
@<TRIPOS>SUBSTRUCTURE
     1 NAD301      1 GROUP   
@<TRIPOS>SET
ATOM$ORANGE STATIC     ATOMS   COLORGROUP SYSTEM 
42 5 5 6 6 8 8 10 10 12 12 14 14 16 16 17 17 20 \
20 22 22 28 28 29 29 31 31 33 33 35 35 37 37 38 38 39 \
39 42 42 43 43 44 44 

