#    Name: 6ow4_6_NAD
#    Modification time : Fri May 22 19:32:48 2020

@<TRIPOS>MOLECULE
6ow4_6_NAD
   44    48     1     0     1
SMALL
NO_CHARGES


@<TRIPOS>ATOM
      1 PA          9.7080   49.6240   51.0540 P.3       1 NAD301      0.0000 
      2 O1A         9.5160   49.2260   49.6270 O.co2     1 NAD301      0.0000 
      3 O2A         8.7220   48.8560   51.9460 O.co2     1 NAD301      0.0000 
      4 O5B         9.4700   51.1830   51.2610 O.3       1 NAD301      0.0000 
      5 C5B         9.0760   52.0130   50.1680 C.3       1 NAD301      0.0000 
      6 C4B         7.6710   52.5940   50.4960 C.3       1 NAD301      0.0000 
      7 O4B         7.4140   53.7730   49.4990 O.3       1 NAD301      0.0000 
      8 C3B         6.7430   51.7460   50.3360 C.3       1 NAD301      0.0000 
      9 O3B         5.8690   51.6550   51.5180 O.3       1 NAD301      0.0000 
     10 C2B         5.8420   52.2620   49.0370 C.3       1 NAD301      0.0000 
     11 O2B         4.4410   51.9050   49.2240 O.3       1 NAD301      0.0000 
     12 C1B         5.9910   53.5250   48.9860 C.3       1 NAD301      0.0000 
     13 N9A         5.8680   53.9850   47.5650 N.pl3     1 NAD301      0.0000 
     14 C8A         6.4300   53.6940   46.3690 C.2       1 NAD301      0.0000 
     15 N7A         5.8510   54.4820   45.4280 N.2       1 NAD301      0.0000 
     16 C5A         4.9330   55.2550   46.0430 C.ar      1 NAD301      0.0000 
     17 C6A         4.0630   56.2330   45.5410 C.ar      1 NAD301      0.0000 
     18 N6A         3.7870   56.7940   44.2590 N.pl3     1 NAD301      0.0000 
     19 N1A         3.2220   56.8820   46.3800 N.ar      1 NAD301      0.0000 
     20 C2A         3.2160   56.5860   47.7220 C.ar      1 NAD301      0.0000 
     21 N3A         4.0780   55.6170   48.2220 N.ar      1 NAD301      0.0000 
     22 C4A         4.9330   54.9570   47.3720 C.ar      1 NAD301      0.0000 
     23 O3         11.2510   49.2610   51.4990 O.3       1 NAD301      0.0000 
     24 PN         12.1900   50.2480   52.3600 P.3       1 NAD301      0.0000 
     25 O1N        13.4810   49.5370   52.6520 O.co2     1 NAD301      0.0000 
     26 O2N        11.4830   50.6040   53.6690 O.co2     1 NAD301      0.0000 
     27 O5D        12.5090   51.5510   51.4960 O.3       1 NAD301      0.0000 
     28 C5D        12.1880   52.8480   51.9770 C.3       1 NAD301      0.0000 
     29 C4D        13.0990   53.8930   51.2810 C.3       1 NAD301      0.0000 
     30 O4D        14.3450   53.6700   51.5970 O.3       1 NAD301      0.0000 
     31 C3D        13.0080   53.7740   49.7710 C.3       1 NAD301      0.0000 
     32 O3D        12.9210   55.0210   49.2110 O.3       1 NAD301      0.0000 
     33 C2D        14.3380   53.0750   49.3590 C.3       1 NAD301      0.0000 
     34 O2D        14.6580   53.4770   47.9610 O.3       1 NAD301      0.0000 
     35 C1D        15.1900   53.5080   50.2240 C.3       1 NAD301      0.0000 
     36 N1N        16.3240   52.6120   50.4750 N.pl3     1 NAD301      0.0000 
     37 C2N        16.1410   51.3980   51.1240 C.ar      1 NAD301      0.0000 
     38 C3N        17.2340   50.5500   51.3620 C.ar      1 NAD301      0.0000 
     39 C7N        17.0460   49.1890   52.0750 C.2       1 NAD301      0.0000 
     40 O7N        17.8010   48.2680   51.8240 O.2       1 NAD301      0.0000 
     41 N7N        16.0060   48.9940   53.0250 N.am      1 NAD301      0.0000 
     42 C4N        18.4990   50.9290   50.9540 C.ar      1 NAD301      0.0000 
     43 C5N        18.6880   52.1420   50.3110 C.ar      1 NAD301      0.0000 
     44 C6N        17.5920   52.9850   50.0820 C.ar      1 NAD301      0.0000 
@<TRIPOS>BOND
     1    1    2 ar   
     2    1    3 ar   
     3    1    4 1    
     4    1   23 1    
     5    4    5 1    
     6    5    6 1    
     7    6    7 1    
     8    6    8 1    
     9    7   12 1    
    10    8    9 1    
    11    8   10 1    
    12   10   11 1    
    13   10   12 1    
    14   12   13 1    
    15   13   14 1    
    16   13   22 1    
    17   14   15 2    
    18   15   16 1    
    19   16   17 ar   
    20   16   22 ar   
    21   17   18 1    
    22   17   19 ar   
    23   19   20 ar   
    24   20   21 ar   
    25   21   22 ar   
    26   23   24 1    
    27   24   25 ar   
    28   24   26 ar   
    29   24   27 1    
    30   27   28 1    
    31   28   29 1    
    32   29   30 1    
    33   29   31 1    
    34   30   35 1    
    35   31   32 1    
    36   31   33 1    
    37   33   34 1    
    38   33   35 1    
    39   35   36 1    
    40   36   37 ar   
    41   36   44 ar   
    42   37   38 ar   
    43   38   39 1    
    44   38   42 ar   
    45   39   40 2    
    46   39   41 am   
    47   42   43 ar   
    48   43   44 ar   
@<TRIPOS>SUBSTRUCTURE
     1 NAD301      1 GROUP   
@<TRIPOS>SET
ATOM$ORANGE STATIC     ATOMS   COLORGROUP SYSTEM 
42 5 5 6 6 8 8 10 10 12 12 14 14 16 16 17 17 20 \
20 22 22 28 28 29 29 31 31 33 33 35 35 37 37 38 38 39 \
39 42 42 43 43 44 44 

