#    Name: 6ow4_7_NAD
#    Modification time : Fri May 22 19:32:54 2020

@<TRIPOS>MOLECULE
6ow4_7_NAD
   44    48     1     0     1
SMALL
NO_CHARGES


@<TRIPOS>ATOM
      1 PA         41.7830   84.4280  100.1450 P.3       1 NAD301      0.0000 
      2 O1A        41.1900   83.5710  101.2150 O.co2     1 NAD301      0.0000 
      3 O2A        41.3250   83.9250   98.7730 O.co2     1 NAD301      0.0000 
      4 O5B        41.3480   85.9370  100.3790 O.3       1 NAD301      0.0000 
      5 C5B        41.0320   86.7940   99.2790 C.3       1 NAD301      0.0000 
      6 C4B        39.6430   87.4250   99.5830 C.3       1 NAD301      0.0000 
      7 O4B        39.3670   88.5400   98.5200 O.3       1 NAD301      0.0000 
      8 C3B        38.7090   86.5740   99.5050 C.3       1 NAD301      0.0000 
      9 O3B        37.8970   86.5680  100.7310 O.3       1 NAD301      0.0000 
     10 C2B        37.7590   87.0090   98.2150 C.3       1 NAD301      0.0000 
     11 O2B        36.3650   86.6860   98.4950 O.3       1 NAD301      0.0000 
     12 C1B        37.9300   88.2630   98.0560 C.3       1 NAD301      0.0000 
     13 N9A        37.7840   88.6140   96.6060 N.pl3     1 NAD301      0.0000 
     14 C8A        38.1890   88.1160   95.4160 C.2       1 NAD301      0.0000 
     15 N7A        37.7020   88.9090   94.4280 N.2       1 NAD301      0.0000 
     16 C5A        36.9970   89.9000   95.0150 C.ar      1 NAD301      0.0000 
     17 C6A        36.2920   90.9810   94.4680 C.ar      1 NAD301      0.0000 
     18 N6A        36.0320   91.4700   93.1530 N.pl3     1 NAD301      0.0000 
     19 N1A        35.6550   91.8520   95.2860 N.ar      1 NAD301      0.0000 
     20 C2A        35.6940   91.6860   96.6490 C.ar      1 NAD301      0.0000 
     21 N3A        36.3920   90.6150   97.1960 N.ar      1 NAD301      0.0000 
     22 C4A        37.0400   89.7290   96.3680 C.ar      1 NAD301      0.0000 
     23 O3         43.4270   84.3800  100.2470 O.3       1 NAD301      0.0000 
     24 PN         44.2590   85.0290  101.4710 P.3       1 NAD301      0.0000 
     25 O1N        45.3390   84.0650  101.8750 O.co2     1 NAD301      0.0000 
     26 O2N        43.3350   85.3200  102.6590 O.co2     1 NAD301      0.0000 
     27 O5D        44.9790   86.3750  101.0290 O.3       1 NAD301      0.0000 
     28 C5D        44.2840   87.3410  100.2690 C.3       1 NAD301      0.0000 
     29 C4D        45.2980   88.4260   99.8100 C.3       1 NAD301      0.0000 
     30 O4D        46.5030   88.1360  100.2360 O.3       1 NAD301      0.0000 
     31 C3D        45.3760   88.4770   98.2930 C.3       1 NAD301      0.0000 
     32 O3D        45.4010   89.7720   97.8390 O.3       1 NAD301      0.0000 
     33 C2D        46.7140   87.7570   97.9690 C.3       1 NAD301      0.0000 
     34 O2D        47.1950   88.2570   96.6570 O.3       1 NAD301      0.0000 
     35 C1D        47.4860   88.0720   98.9470 C.3       1 NAD301      0.0000 
     36 N1N        48.5520   87.0930   99.1440 N.pl3     1 NAD301      0.0000 
     37 C2N        48.3100   85.9160   99.8350 C.ar      1 NAD301      0.0000 
     38 C3N        49.3360   84.9770  100.0200 C.ar      1 NAD301      0.0000 
     39 C7N        49.0740   83.6560  100.7870 C.2       1 NAD301      0.0000 
     40 O7N        49.8990   82.7600  100.7420 O.2       1 NAD301      0.0000 
     41 N7N        47.8830   83.4570  101.5430 N.am      1 NAD301      0.0000 
     42 C4N        50.5950   85.2320   99.5050 C.ar      1 NAD301      0.0000 
     43 C5N        50.8380   86.4060   98.8120 C.ar      1 NAD301      0.0000 
     44 C6N        49.8100   87.3400   98.6380 C.ar      1 NAD301      0.0000 
@<TRIPOS>BOND
     1    1    2 ar   
     2    1    3 ar   
     3    1    4 1    
     4    1   23 1    
     5    4    5 1    
     6    5    6 1    
     7    6    7 1    
     8    6    8 1    
     9    7   12 1    
    10    8    9 1    
    11    8   10 1    
    12   10   11 1    
    13   10   12 1    
    14   12   13 1    
    15   13   14 1    
    16   13   22 1    
    17   14   15 2    
    18   15   16 1    
    19   16   17 ar   
    20   16   22 ar   
    21   17   18 1    
    22   17   19 ar   
    23   19   20 ar   
    24   20   21 ar   
    25   21   22 ar   
    26   23   24 1    
    27   24   25 ar   
    28   24   26 ar   
    29   24   27 1    
    30   27   28 1    
    31   28   29 1    
    32   29   30 1    
    33   29   31 1    
    34   30   35 1    
    35   31   32 1    
    36   31   33 1    
    37   33   34 1    
    38   33   35 1    
    39   35   36 1    
    40   36   37 ar   
    41   36   44 ar   
    42   37   38 ar   
    43   38   39 1    
    44   38   42 ar   
    45   39   40 2    
    46   39   41 am   
    47   42   43 ar   
    48   43   44 ar   
@<TRIPOS>SUBSTRUCTURE
     1 NAD301      1 GROUP   
@<TRIPOS>SET
ATOM$ORANGE STATIC     ATOMS   COLORGROUP SYSTEM 
42 5 5 6 6 8 8 10 10 12 12 14 14 16 16 17 17 20 \
20 22 22 28 28 29 29 31 31 33 33 35 35 37 37 38 38 39 \
39 42 42 43 43 44 44 

