#    Name: 6ow4_3_NAD
#    Modification time : Fri May 22 19:32:33 2020

@<TRIPOS>MOLECULE
6ow4_3_NAD
   44    48     1     0     1
SMALL
NO_CHARGES


@<TRIPOS>ATOM
      1 PA         58.0460   42.6680   71.7610 P.3       1 NAD301      0.0000 
      2 O1A        57.0230   43.7230   72.0060 O.co2     1 NAD301      0.0000 
      3 O2A        58.7510   42.9290   70.4310 O.co2     1 NAD301      0.0000 
      4 O5B        57.2690   41.2800   71.7690 O.3       1 NAD301      0.0000 
      5 C5B        57.7770   40.1590   71.0480 C.3       1 NAD301      0.0000 
      6 C4B        56.7730   39.6500   69.9610 C.3       1 NAD301      0.0000 
      7 O4B        55.6490   38.7850   70.6460 O.3       1 NAD301      0.0000 
      8 C3B        56.1660   40.5610   69.3170 C.3       1 NAD301      0.0000 
      9 O3B        56.6180   40.6120   67.9180 O.3       1 NAD301      0.0000 
     10 C2B        54.5480   40.1660   69.3680 C.3       1 NAD301      0.0000 
     11 O2B        53.9140   40.4660   68.0970 O.3       1 NAD301      0.0000 
     12 C1B        54.5130   38.9160   69.6230 C.3       1 NAD301      0.0000 
     13 N9A        53.1570   38.5340   70.1600 N.pl3     1 NAD301      0.0000 
     14 C8A        52.2720   39.0180   71.0620 C.2       1 NAD301      0.0000 
     15 N7A        51.1840   38.2130   71.0800 N.2       1 NAD301      0.0000 
     16 C5A        51.3890   37.2330   70.1830 C.ar      1 NAD301      0.0000 
     17 C6A        50.5740   36.1580   69.8100 C.ar      1 NAD301      0.0000 
     18 N6A        49.2850   35.6820   70.1980 N.pl3     1 NAD301      0.0000 
     19 N1A        51.0030   35.2890   68.8640 N.ar      1 NAD301      0.0000 
     20 C2A        52.2320   35.4590   68.2710 C.ar      1 NAD301      0.0000 
     21 N3A        53.0390   36.5310   68.6400 N.ar      1 NAD301      0.0000 
     22 C4A        52.6060   37.4180   69.5980 C.ar      1 NAD301      0.0000 
     23 O3         59.1440   42.7560   72.9830 O.3       1 NAD301      0.0000 
     24 PN         60.5340   41.9550   73.1800 P.3       1 NAD301      0.0000 
     25 O1N        61.1730   41.5210   71.8810 O.co2     1 NAD301      0.0000 
     26 O2N        61.4890   42.8740   73.9320 O.co2     1 NAD301      0.0000 
     27 O5D        60.2190   40.7370   74.1450 O.3       1 NAD301      0.0000 
     28 C5D        60.3330   39.4030   73.7040 C.3       1 NAD301      0.0000 
     29 C4D        60.1140   38.5170   74.9540 C.3       1 NAD301      0.0000 
     30 O4D        60.9310   38.8980   75.9020 O.3       1 NAD301      0.0000 
     31 C3D        58.7070   38.6910   75.5000 C.3       1 NAD301      0.0000 
     32 O3D        58.1830   37.4690   75.8300 O.3       1 NAD301      0.0000 
     33 C2D        58.9180   39.5820   76.7650 C.3       1 NAD301      0.0000 
     34 O2D        57.7880   39.3770   77.7040 O.3       1 NAD301      0.0000 
     35 C1D        60.0350   39.1510   77.2260 C.3       1 NAD301      0.0000 
     36 N1N        60.7760   40.0660   78.0950 N.pl3     1 NAD301      0.0000 
     37 C2N        61.2830   41.2660   77.6090 C.ar      1 NAD301      0.0000 
     38 C3N        62.0030   42.1230   78.4530 C.ar      1 NAD301      0.0000 
     39 C7N        62.5740   43.4710   77.9440 C.2       1 NAD301      0.0000 
     40 O7N        62.8220   44.3630   78.7380 O.2       1 NAD301      0.0000 
     41 N7N        62.8350   43.6870   76.5600 N.am      1 NAD301      0.0000 
     42 C4N        62.2150   41.7580   79.7690 C.ar      1 NAD301      0.0000 
     43 C5N        61.7240   40.5590   80.2540 C.ar      1 NAD301      0.0000 
     44 C6N        61.0090   39.7070   79.4040 C.ar      1 NAD301      0.0000 
@<TRIPOS>BOND
     1    1    2 ar   
     2    1    3 ar   
     3    1    4 1    
     4    1   23 1    
     5    4    5 1    
     6    5    6 1    
     7    6    7 1    
     8    6    8 1    
     9    7   12 1    
    10    8    9 1    
    11    8   10 1    
    12   10   11 1    
    13   10   12 1    
    14   12   13 1    
    15   13   14 1    
    16   13   22 1    
    17   14   15 2    
    18   15   16 1    
    19   16   17 ar   
    20   16   22 ar   
    21   17   18 1    
    22   17   19 ar   
    23   19   20 ar   
    24   20   21 ar   
    25   21   22 ar   
    26   23   24 1    
    27   24   25 ar   
    28   24   26 ar   
    29   24   27 1    
    30   27   28 1    
    31   28   29 1    
    32   29   30 1    
    33   29   31 1    
    34   30   35 1    
    35   31   32 1    
    36   31   33 1    
    37   33   34 1    
    38   33   35 1    
    39   35   36 1    
    40   36   37 ar   
    41   36   44 ar   
    42   37   38 ar   
    43   38   39 1    
    44   38   42 ar   
    45   39   40 2    
    46   39   41 am   
    47   42   43 ar   
    48   43   44 ar   
@<TRIPOS>SUBSTRUCTURE
     1 NAD301      1 GROUP   
@<TRIPOS>SET
ATOM$ORANGE STATIC     ATOMS   COLORGROUP SYSTEM 
42 5 5 6 6 8 8 10 10 12 12 14 14 16 16 17 17 20 \
20 22 22 28 28 29 29 31 31 33 33 35 35 37 37 38 38 39 \
39 42 42 43 43 44 44 

