#    Name: 6av7_1_H4B
#    Modification time : Fri May 22 19:36:55 2020

@<TRIPOS>MOLECULE
6av7_1_H4B
   17    18     1     0     1
SMALL
NO_CHARGES


@<TRIPOS>ATOM
      1 N1         65.6540   23.0240 -177.9050 N.2       1 H4B502      0.0000 
      2 C2         65.3980   23.4490 -179.1650 C.2       1 H4B502      0.0000 
      3 N2         66.4020   24.0040 -179.8930 N.pl3     1 H4B502      0.0000 
      4 N3         64.1520   23.3180 -179.6900 N.am      1 H4B502      0.0000 
      5 C4         63.1490   22.7610 -178.9650 C.2       1 H4B502      0.0000 
      6 O4         61.9970   22.6400 -179.4500 O.2       1 H4B502      0.0000 
      7 C4A        63.4080   22.3290 -177.6740 C.2       1 H4B502      0.0000 
      8 C8A        64.6800   22.4660 -177.1490 C.2       1 H4B502      0.0000 
      9 N5         62.4430   21.7790 -176.9160 N.3       1 H4B502      0.0000 
     10 N8         64.9540   22.0550 -175.8850 N.pl3     1 H4B502      0.0000 
     11 C6         62.5770   21.9380 -175.4820 C.3       1 H4B502      0.0000 
     12 C7         63.9470   21.4430 -175.0260 C.3       1 H4B502      0.0000 
     13 C9         61.4180   21.2410 -174.7730 C.3       1 H4B502      0.0000 
     14 O9         61.0660   20.0400 -175.4710 O.3       1 H4B502      0.0000 
     15 C10        61.7560   20.8890 -173.3300 C.3       1 H4B502      0.0000 
     16 C11        60.5550   20.2170 -172.6800 C.3       1 H4B502      0.0000 
     17 O10        62.1230   22.0670 -172.5960 O.3       1 H4B502      0.0000 
@<TRIPOS>BOND
     1    1    2 2    
     2    1    8 1    
     3    2    3 1    
     4    2    4 1    
     5    4    5 am   
     6    5    6 2    
     7    5    7 1    
     8    7    8 2    
     9    7    9 1    
    10    8   10 1    
    11    9   11 1    
    12   10   12 1    
    13   11   12 1    
    14   11   13 1    
    15   13   14 1    
    16   13   15 1    
    17   15   16 1    
    18   15   17 1    
@<TRIPOS>SUBSTRUCTURE
     1 H4B502      1 GROUP   
@<TRIPOS>SET
ATOM$ORANGE STATIC     ATOMS   COLORGROUP SYSTEM 
18 2 2 5 5 7 7 8 8 11 11 12 12 13 13 15 15 16 \
16 

