#    Name: 6av7_1_H4B_CAVITY_N1_4
#    Modification time : Fri May 22 19:36:56 2020

@<TRIPOS>MOLECULE
6av7_1_H4B_CAVITY_N1_4
   80     0     6     0     0
SMALL
NO_CHARGES


@<TRIPOS>ATOM
      1 N          61.1000   20.6500 -175.7000 N.am      1 ALA2        0.0000 
      2 N          60.8000   19.7100 -174.5700 N.am      1 ALA2        0.0000 
      3 N          61.3100   20.7300 -173.5900 N.am      1 ALA2        0.0000 
      4 O          63.2800   22.0300 -175.9700 O.2       1 ALA2        0.0000 
      5 N          62.6900   20.1500 -173.7100 N.am      1 ALA2        0.0000 
      6 N          64.9600   22.4000 -177.2200 N.am      1 ALA2        0.0000 
      7 N          67.2200   24.6500 -180.7300 N.am      1 ALA2        0.0000 
      8 N          66.9300   23.7100 -179.6000 N.am      1 ALA2        0.0000 
      9 N          66.3400   21.8200 -177.3400 N.am      1 ALA2        0.0000 
     10 N          68.9000   25.0200 -181.9800 N.am      1 ALA2        0.0000 
     11 N          68.6000   24.0700 -180.8500 N.am      1 ALA2        0.0000 
     12 N          68.3000   23.1300 -179.7200 N.am      1 ALA2        0.0000 
     13 N          69.9800   23.5000 -180.9700 N.am      1 ALA2        0.0000 
     14 O          62.4100   23.6300 -174.8700 O.2       1 ALA2        0.0000 
     15 N          62.1200   22.6800 -173.7400 N.am      1 ALA2        0.0000 
     16 O          63.7900   23.0500 -174.9900 O.2       1 ALA2        0.0000 
     17 O          63.5000   22.1100 -173.8600 O.2       1 ALA2        0.0000 
     18 N          66.6500   27.1800 -180.7600 N.am      1 ALA2        0.0000 
     19 N          65.1700   22.4700 -175.1100 N.am      1 ALA2        0.0000 
     20 N          68.0300   26.6100 -180.8800 N.am      1 ALA2        0.0000 
     21 N          69.4100   26.0300 -181.0000 N.am      1 ALA2        0.0000 
     22 OD1        62.9300   22.7600 -183.4300 O.co2     2 ASP3        0.0000 
     23 OD1        61.7700   23.4100 -181.2000 O.co2     2 ASP3        0.0000 
     24 OD1        61.4700   22.4700 -180.0700 O.co2     2 ASP3        0.0000 
     25 OD1        60.8800   20.5800 -177.8100 O.co2     2 ASP3        0.0000 
     26 OD1        63.4400   23.7800 -182.4500 O.co2     2 ASP3        0.0000 
     27 OD1        63.1500   22.8300 -181.3200 O.co2     2 ASP3        0.0000 
     28 OD1        64.8200   23.2000 -182.5700 O.co2     2 ASP3        0.0000 
     29 OD1        63.3600   22.9100 -179.2100 O.co2     2 ASP3        0.0000 
     30 OD1        63.0700   21.9600 -178.0800 O.co2     2 ASP3        0.0000 
     31 OD1        65.0400   23.2700 -180.4600 O.co2     2 ASP3        0.0000 
     32 OD1        64.7400   22.3300 -179.3300 O.co2     2 ASP3        0.0000 
     33 OD1        64.4500   21.3900 -178.2000 O.co2     2 ASP3        0.0000 
     34 NZ         65.6300   25.1600 -182.7200 N.4       3 LYS4        0.0000 
     35 CZ         62.2600   20.0100 -177.9300 C.ar      4 PHE5        0.0000 
     36 CZ         59.4200   20.2900 -174.4500 C.ar      4 PHE5        0.0000 
     37 CZ         62.5700   25.3700 -181.3500 C.ar      4 PHE5        0.0000 
     38 CZ         62.2800   24.4300 -180.2200 C.ar      4 PHE5        0.0000 
     39 CZ         61.9800   23.4800 -179.0900 C.ar      4 PHE5        0.0000 
     40 CZ         61.6900   22.5400 -177.9600 C.ar      4 PHE5        0.0000 
     41 CZ         64.2500   25.7300 -182.6000 C.ar      4 PHE5        0.0000 
     42 CZ         63.9500   24.7900 -181.4700 C.ar      4 PHE5        0.0000 
     43 CZ         63.6600   23.8500 -180.3400 C.ar      4 PHE5        0.0000 
     44 CZ         62.7700   21.0200 -176.9500 C.ar      4 PHE5        0.0000 
     45 CZ         62.4800   20.0800 -175.8200 C.ar      4 PHE5        0.0000 
     46 CZ         64.7600   26.7500 -181.6100 C.ar      4 PHE5        0.0000 
     47 CZ         63.8700   23.9200 -178.2300 C.ar      4 PHE5        0.0000 
     48 CZ         63.5800   22.9800 -177.1000 C.ar      4 PHE5        0.0000 
     49 CZ         62.9900   21.0900 -174.8400 C.ar      4 PHE5        0.0000 
     50 CZ         66.1400   26.1700 -181.7400 C.ar      4 PHE5        0.0000 
     51 CZ         65.8400   25.2300 -180.6100 C.ar      4 PHE5        0.0000 
     52 CZ         65.5500   24.2900 -179.4800 C.ar      4 PHE5        0.0000 
     53 CZ         65.2500   23.3400 -178.3500 C.ar      4 PHE5        0.0000 
     54 CZ         64.6600   21.4600 -176.0900 C.ar      4 PHE5        0.0000 
     55 CZ         64.3700   20.5100 -174.9600 C.ar      4 PHE5        0.0000 
     56 CZ         66.0400   20.8800 -176.2100 C.ar      4 PHE5        0.0000 
     57 CZ         65.2700   27.7600 -180.6300 C.ar      4 PHE5        0.0000 
     58 CZ         63.2000   21.1600 -172.7300 C.ar      4 PHE5        0.0000 
     59 CZ         65.4700   23.4100 -176.2400 C.ar      4 PHE5        0.0000 
     60 CZ         64.8800   21.5300 -173.9800 C.ar      4 PHE5        0.0000 
     61 CA         60.5900   19.6400 -176.6800 C.3       5 GLY6        0.0000 
     62 CA         66.5000   23.5700 -183.8200 C.3       5 GLY6        0.0000 
     63 CA         66.2000   22.6200 -182.6900 C.3       5 GLY6        0.0000 
     64 CA         67.5800   22.0500 -182.8100 C.3       5 GLY6        0.0000 
     65 CA         59.7200   21.2300 -175.5800 C.3       5 GLY6        0.0000 
     66 CA         61.3900   21.6000 -176.8300 C.3       5 GLY6        0.0000 
     67 CA         67.0100   24.5800 -182.8400 C.3       5 GLY6        0.0000 
     68 CA         68.3800   24.0000 -182.9600 C.3       5 GLY6        0.0000 
     69 CA         68.0900   23.0600 -181.8300 C.3       5 GLY6        0.0000 
     70 CA         69.4700   22.4800 -181.9500 C.3       5 GLY6        0.0000 
     71 CA         69.1700   21.5400 -180.8200 C.3       5 GLY6        0.0000 
     72 CA         59.9300   21.3000 -173.4700 C.3       5 GLY6        0.0000 
     73 CA         61.9000   22.6100 -175.8500 C.3       5 GLY6        0.0000 
     74 CA         61.6100   21.6700 -174.7200 C.3       5 GLY6        0.0000 
     75 CA         66.6300   22.7700 -178.4700 C.3       5 GLY6        0.0000 
     76 CA         64.0100   23.1200 -172.8800 C.3       5 GLY6        0.0000 
     77 DU         60.3900   23.9900 -181.0800 H         6 CUB7        0.0000 
     78 DU         65.3300   24.2100 -181.5900 H         6 CUB7        0.0000 
     79 DU         66.7100   23.6400 -181.7100 H         6 CUB7        0.0000 
     80 DU         67.5200   25.5900 -181.8600 H         6 CUB7        0.0000 
@<TRIPOS>BOND
@<TRIPOS>SUBSTRUCTURE
     1 ALA2        1 GROUP   
     2 ASP3       22 GROUP   
     3 LYS4       34 GROUP   
     4 PHE5       35 GROUP   
     5 GLY6       61 GROUP   
     6 CUB7       77 GROUP   
@<TRIPOS>SET

