#    Name: 6av7_2_H4B_CAVITY_N1_8
#    Modification time : Fri May 22 19:37:05 2020

@<TRIPOS>MOLECULE
6av7_2_H4B_CAVITY_N1_8
   51     0     6     0     0
SMALL
NO_CHARGES


@<TRIPOS>ATOM
      1 OG         72.7500   13.7100 -158.5200 O.3       1 SER1        0.0000 
      2 OG         74.4300   14.0800 -159.7700 O.3       1 SER1        0.0000 
      3 OG         74.1300   13.1300 -158.6400 O.3       1 SER1        0.0000 
      4 O          70.2000    8.6400 -163.4200 O.2       2 ALA2        0.0000 
      5 N          71.2800    7.1200 -162.4100 N.am      2 ALA2        0.0000 
      6 N          70.7100    9.6500 -162.4400 N.am      2 ALA2        0.0000 
      7 N          70.4100    8.7100 -161.3100 N.am      2 ALA2        0.0000 
      8 N          72.9700   11.9100 -165.9500 N.am      2 ALA2        0.0000 
      9 N          72.6800   10.9600 -164.8200 N.am      2 ALA2        0.0000 
     10 N          72.3800   10.0200 -163.6900 N.am      2 ALA2        0.0000 
     11 N          71.7900    8.1300 -161.4300 N.am      2 ALA2        0.0000 
     12 N          71.2200   10.6700 -161.4600 N.am      2 ALA2        0.0000 
     13 N          72.8900   11.0300 -162.7100 N.am      2 ALA2        0.0000 
     14 N          72.6000   10.0900 -161.5800 N.am      2 ALA2        0.0000 
     15 N          72.0300   12.6300 -161.6100 N.am      2 ALA2        0.0000 
     16 N          71.7300   11.6800 -160.4800 N.am      2 ALA2        0.0000 
     17 NZ         73.2500    8.4300 -164.7900 N.4       3 LYS4        0.0000 
     18 NZ         72.9600    7.4900 -163.6600 N.4       3 LYS4        0.0000 
     19 NZ         74.0600   10.3900 -164.9400 N.4       3 LYS4        0.0000 
     20 NZ         73.7600    9.4400 -163.8100 N.4       3 LYS4        0.0000 
     21 NZ         73.4700    8.5000 -162.6800 N.4       3 LYS4        0.0000 
     22 NZ         75.9500   10.8200 -164.0800 N.4       3 LYS4        0.0000 
     23 CZ         73.4800   12.9200 -164.9700 C.ar      4 PHE5        0.0000 
     24 CZ         73.1900   11.9800 -163.8400 C.ar      4 PHE5        0.0000 
     25 CZ         74.8600   12.3400 -165.0900 C.ar      4 PHE5        0.0000 
     26 CZ         74.5700   11.4000 -163.9600 C.ar      4 PHE5        0.0000 
     27 CZ         73.4000   12.0500 -161.7300 C.ar      4 PHE5        0.0000 
     28 CZ         75.0800   12.4100 -162.9800 C.ar      4 PHE5        0.0000 
     29 CZ         74.7800   11.4700 -161.8500 C.ar      4 PHE5        0.0000 
     30 CZ         76.4600   11.8400 -163.1000 C.ar      4 PHE5        0.0000 
     31 CZ         73.9100   13.0600 -160.7500 C.ar      4 PHE5        0.0000 
     32 CZ         75.2900   12.4900 -160.8700 C.ar      4 PHE5        0.0000 
     33 CA         71.3600    7.9900 -165.6500 C.3       5 GLY6        0.0000 
     34 CA         71.0700    7.0500 -164.5200 C.3       5 GLY6        0.0000 
     35 CA         72.1700    9.9500 -165.8000 C.3       5 GLY6        0.0000 
     36 CA         73.5500    9.3700 -165.9200 C.3       5 GLY6        0.0000 
     37 CA         70.9200    9.7300 -160.3300 C.3       5 GLY6        0.0000 
     38 CA         70.0600   11.3200 -159.2300 C.3       5 GLY6        0.0000 
     39 CA         71.4300   10.7400 -159.3500 C.3       5 GLY6        0.0000 
     40 CA         70.8600   13.2700 -159.3800 C.3       5 GLY6        0.0000 
     41 CA         72.5400   13.6400 -160.6300 C.3       5 GLY6        0.0000 
     42 CA         72.2400   12.7000 -159.5000 C.3       5 GLY6        0.0000 
     43 CA         73.0500   14.6500 -159.6500 C.3       5 GLY6        0.0000 
     44 DU         71.8700    9.0100 -164.6700 H         6 CUB7        0.0000 
     45 DU         71.5800    8.0600 -163.5400 H         6 CUB7        0.0000 
     46 DU         72.0900    9.0800 -162.5600 H         6 CUB7        0.0000 
     47 DU         72.3000    9.1500 -160.4500 H         6 CUB7        0.0000 
     48 DU         74.2700   10.4600 -162.8300 H         6 CUB7        0.0000 
     49 DU         73.1100   11.1100 -160.6000 H         6 CUB7        0.0000 
     50 DU         72.8100   10.1600 -159.4700 H         6 CUB7        0.0000 
     51 DU         73.6200   12.1200 -159.6200 H         6 CUB7        0.0000 
@<TRIPOS>BOND
@<TRIPOS>SUBSTRUCTURE
     1 SER1        1 GROUP   
     2 ALA2        4 GROUP   
     3 LYS4       17 GROUP   
     4 PHE5       23 GROUP   
     5 GLY6       33 GROUP   
     6 CUB7       44 GROUP   
@<TRIPOS>SET

