#    Name: 6av7_2_H4B
#    Modification time : Fri May 22 19:37:04 2020

@<TRIPOS>MOLECULE
6av7_2_H4B
   17    18     1     0     1
SMALL
NO_CHARGES


@<TRIPOS>ATOM
      1 N1         73.6750   15.0920 -167.1520 N.2       1 H4B502      0.0000 
      2 C2         74.0860   14.0000 -166.4560 C.2       1 H4B502      0.0000 
      3 N2         73.2740   12.9110 -166.3430 N.pl3     1 H4B502      0.0000 
      4 N3         75.3110   14.0000 -165.8730 N.am      1 H4B502      0.0000 
      5 C4         76.1370   15.0700 -165.9690 C.2       1 H4B502      0.0000 
      6 O4         77.2600   15.0450 -165.4160 O.2       1 H4B502      0.0000 
      7 C4A        75.7210   16.1920 -166.6720 C.2       1 H4B502      0.0000 
      8 C8A        74.4690   16.1890 -167.2720 C.2       1 H4B502      0.0000 
      9 N5         76.5060   17.2860 -166.7900 N.3       1 H4B502      0.0000 
     10 N8         74.0340   17.2760 -167.9700 N.pl3     1 H4B502      0.0000 
     11 C6         75.8170   18.5500 -166.9770 C.3       1 H4B502      0.0000 
     12 C7         74.8570   18.4660 -168.1620 C.3       1 H4B502      0.0000 
     13 C9         76.7880   19.7280 -167.0770 C.3       1 H4B502      0.0000 
     14 O9         77.8460   19.4670 -168.0080 O.3       1 H4B502      0.0000 
     15 C10        76.0550   20.9910 -167.4990 C.3       1 H4B502      0.0000 
     16 C11        76.9790   22.1950 -167.3950 C.3       1 H4B502      0.0000 
     17 O10        74.9060   21.1870 -166.6680 O.3       1 H4B502      0.0000 
@<TRIPOS>BOND
     1    1    2 2    
     2    1    8 1    
     3    2    3 1    
     4    2    4 1    
     5    4    5 am   
     6    5    6 2    
     7    5    7 1    
     8    7    8 2    
     9    7    9 1    
    10    8   10 1    
    11    9   11 1    
    12   10   12 1    
    13   11   12 1    
    14   11   13 1    
    15   13   14 1    
    16   13   15 1    
    17   15   16 1    
    18   15   17 1    
@<TRIPOS>SUBSTRUCTURE
     1 H4B502      1 GROUP   
@<TRIPOS>SET
ATOM$ORANGE STATIC     ATOMS   COLORGROUP SYSTEM 
18 2 2 5 5 7 7 8 8 11 11 12 12 13 13 15 15 16 \
16 

