#    Name: 6av7_1_H4B_CAVITY_N1_ALL
#    Modification time : Fri May 22 19:36:56 2020

@<TRIPOS>MOLECULE
6av7_1_H4B_CAVITY_N1_ALL
  102     0     6     0     0
SMALL
NO_CHARGES


@<TRIPOS>ATOM
      1 N          64.1000   22.1100 -185.6600 N.am      1 ALA2        0.0000 
      2 N          61.1000   20.6500 -175.7000 N.am      1 ALA2        0.0000 
      3 N          60.8000   19.7100 -174.5700 N.am      1 ALA2        0.0000 
      4 N          61.3100   20.7300 -173.5900 N.am      1 ALA2        0.0000 
      5 O          63.2800   22.0300 -175.9700 O.2       1 ALA2        0.0000 
      6 N          62.6900   20.1500 -173.7100 N.am      1 ALA2        0.0000 
      7 N          64.9600   22.4000 -177.2200 N.am      1 ALA2        0.0000 
      8 N          67.2200   24.6500 -180.7300 N.am      1 ALA2        0.0000 
      9 N          66.9300   23.7100 -179.6000 N.am      1 ALA2        0.0000 
     10 N          66.3400   21.8200 -177.3400 N.am      1 ALA2        0.0000 
     11 N          68.9000   25.0200 -181.9800 N.am      1 ALA2        0.0000 
     12 N          68.6000   24.0700 -180.8500 N.am      1 ALA2        0.0000 
     13 N          68.3000   23.1300 -179.7200 N.am      1 ALA2        0.0000 
     14 N          69.9800   23.5000 -180.9700 N.am      1 ALA2        0.0000 
     15 O          62.4100   23.6300 -174.8700 O.2       1 ALA2        0.0000 
     16 N          62.1200   22.6800 -173.7400 N.am      1 ALA2        0.0000 
     17 O          63.7900   23.0500 -174.9900 O.2       1 ALA2        0.0000 
     18 O          63.5000   22.1100 -173.8600 O.2       1 ALA2        0.0000 
     19 N          66.9400   28.1300 -181.8800 N.am      1 ALA2        0.0000 
     20 N          66.6500   27.1800 -180.7600 N.am      1 ALA2        0.0000 
     21 N          65.1700   22.4700 -175.1100 N.am      1 ALA2        0.0000 
     22 N          68.3200   27.5500 -182.0100 N.am      1 ALA2        0.0000 
     23 N          68.0300   26.6100 -180.8800 N.am      1 ALA2        0.0000 
     24 N          69.4100   26.0300 -181.0000 N.am      1 ALA2        0.0000 
     25 OD1        62.9300   22.7600 -183.4300 O.co2     2 ASP3        0.0000 
     26 OD1        61.7700   23.4100 -181.2000 O.co2     2 ASP3        0.0000 
     27 OD1        61.4700   22.4700 -180.0700 O.co2     2 ASP3        0.0000 
     28 OD1        60.8800   20.5800 -177.8100 O.co2     2 ASP3        0.0000 
     29 OD1        63.4400   23.7800 -182.4500 O.co2     2 ASP3        0.0000 
     30 OD1        63.1500   22.8300 -181.3200 O.co2     2 ASP3        0.0000 
     31 OD1        64.8200   23.2000 -182.5700 O.co2     2 ASP3        0.0000 
     32 OD1        63.3600   22.9100 -179.2100 O.co2     2 ASP3        0.0000 
     33 OD1        63.0700   21.9600 -178.0800 O.co2     2 ASP3        0.0000 
     34 OD1        65.0400   23.2700 -180.4600 O.co2     2 ASP3        0.0000 
     35 OD1        64.7400   22.3300 -179.3300 O.co2     2 ASP3        0.0000 
     36 OD1        64.4500   21.3900 -178.2000 O.co2     2 ASP3        0.0000 
     37 NZ         63.7400   24.7200 -183.5800 N.4       3 LYS4        0.0000 
     38 NZ         65.1200   24.1400 -183.7000 N.4       3 LYS4        0.0000 
     39 NZ         65.9200   26.1000 -183.8500 N.4       3 LYS4        0.0000 
     40 NZ         65.6300   25.1600 -182.7200 N.4       3 LYS4        0.0000 
     41 NZ         67.3000   25.5200 -183.9700 N.4       3 LYS4        0.0000 
     42 NZ         66.7300   28.0600 -183.9900 N.4       3 LYS4        0.0000 
     43 NZ         66.4300   27.1100 -182.8600 N.4       3 LYS4        0.0000 
     44 NZ         68.1100   27.4800 -184.1100 N.4       3 LYS4        0.0000 
     45 NZ         67.8100   26.5400 -182.9900 N.4       3 LYS4        0.0000 
     46 NZ         69.4900   26.9000 -184.2400 N.4       3 LYS4        0.0000 
     47 CZ         62.2600   20.0100 -177.9300 C.ar      4 PHE5        0.0000 
     48 CZ         59.4200   20.2900 -174.4500 C.ar      4 PHE5        0.0000 
     49 CZ         62.5700   25.3700 -181.3500 C.ar      4 PHE5        0.0000 
     50 CZ         62.2800   24.4300 -180.2200 C.ar      4 PHE5        0.0000 
     51 CZ         61.9800   23.4800 -179.0900 C.ar      4 PHE5        0.0000 
     52 CZ         61.6900   22.5400 -177.9600 C.ar      4 PHE5        0.0000 
     53 CZ         64.2500   25.7300 -182.6000 C.ar      4 PHE5        0.0000 
     54 CZ         63.9500   24.7900 -181.4700 C.ar      4 PHE5        0.0000 
     55 CZ         63.6600   23.8500 -180.3400 C.ar      4 PHE5        0.0000 
     56 CZ         62.7700   21.0200 -176.9500 C.ar      4 PHE5        0.0000 
     57 CZ         62.4800   20.0800 -175.8200 C.ar      4 PHE5        0.0000 
     58 CZ         64.7600   26.7500 -181.6100 C.ar      4 PHE5        0.0000 
     59 CZ         63.8700   23.9200 -178.2300 C.ar      4 PHE5        0.0000 
     60 CZ         63.5800   22.9800 -177.1000 C.ar      4 PHE5        0.0000 
     61 CZ         62.9900   21.0900 -174.8400 C.ar      4 PHE5        0.0000 
     62 CZ         66.1400   26.1700 -181.7400 C.ar      4 PHE5        0.0000 
     63 CZ         65.8400   25.2300 -180.6100 C.ar      4 PHE5        0.0000 
     64 CZ         65.5500   24.2900 -179.4800 C.ar      4 PHE5        0.0000 
     65 CZ         65.2500   23.3400 -178.3500 C.ar      4 PHE5        0.0000 
     66 CZ         64.6600   21.4600 -176.0900 C.ar      4 PHE5        0.0000 
     67 CZ         64.3700   20.5100 -174.9600 C.ar      4 PHE5        0.0000 
     68 CZ         66.0400   20.8800 -176.2100 C.ar      4 PHE5        0.0000 
     69 CZ         65.2700   27.7600 -180.6300 C.ar      4 PHE5        0.0000 
     70 CZ         63.2000   21.1600 -172.7300 C.ar      4 PHE5        0.0000 
     71 CZ         65.4700   23.4100 -176.2400 C.ar      4 PHE5        0.0000 
     72 CZ         64.8800   21.5300 -173.9800 C.ar      4 PHE5        0.0000 
     73 CA         64.6100   23.1300 -184.6800 C.3       5 GLY6        0.0000 
     74 CA         64.3100   22.1900 -183.5500 C.3       5 GLY6        0.0000 
     75 CA         65.6900   21.6100 -183.6700 C.3       5 GLY6        0.0000 
     76 CA         60.5900   19.6400 -176.6800 C.3       5 GLY6        0.0000 
     77 CA         66.5000   23.5700 -183.8200 C.3       5 GLY6        0.0000 
     78 CA         66.2000   22.6200 -182.6900 C.3       5 GLY6        0.0000 
     79 CA         67.5800   22.0500 -182.8100 C.3       5 GLY6        0.0000 
     80 CA         59.7200   21.2300 -175.5800 C.3       5 GLY6        0.0000 
     81 CA         61.3900   21.6000 -176.8300 C.3       5 GLY6        0.0000 
     82 CA         67.0100   24.5800 -182.8400 C.3       5 GLY6        0.0000 
     83 CA         68.6800   24.9400 -184.0900 C.3       5 GLY6        0.0000 
     84 CA         68.3800   24.0000 -182.9600 C.3       5 GLY6        0.0000 
     85 CA         68.0900   23.0600 -181.8300 C.3       5 GLY6        0.0000 
     86 CA         69.4700   22.4800 -181.9500 C.3       5 GLY6        0.0000 
     87 CA         69.1700   21.5400 -180.8200 C.3       5 GLY6        0.0000 
     88 CA         59.9300   21.3000 -173.4700 C.3       5 GLY6        0.0000 
     89 CA         61.9000   22.6100 -175.8500 C.3       5 GLY6        0.0000 
     90 CA         61.6100   21.6700 -174.7200 C.3       5 GLY6        0.0000 
     91 CA         66.6300   22.7700 -178.4700 C.3       5 GLY6        0.0000 
     92 CA         69.1900   25.9600 -183.1100 C.3       5 GLY6        0.0000 
     93 CA         68.6200   28.4900 -183.1300 C.3       5 GLY6        0.0000 
     94 CA         69.7000   26.9700 -182.1300 C.3       5 GLY6        0.0000 
     95 CA         64.0100   23.1200 -172.8800 C.3       5 GLY6        0.0000 
     96 DU         60.3900   23.9900 -181.0800 H         6 CUB7        0.0000 
     97 DU         65.3300   24.2100 -181.5900 H         6 CUB7        0.0000 
     98 DU         66.7100   23.6400 -181.7100 H         6 CUB7        0.0000 
     99 DU         65.0500   27.6900 -182.7400 H         6 CUB7        0.0000 
    100 DU         67.5200   25.5900 -181.8600 H         6 CUB7        0.0000 
    101 DU         65.5600   28.7000 -181.7600 H         6 CUB7        0.0000 
    102 DU         67.2400   29.0700 -183.0100 H         6 CUB7        0.0000 
@<TRIPOS>BOND
@<TRIPOS>SUBSTRUCTURE
     1 ALA2        1 GROUP   
     2 ASP3       25 GROUP   
     3 LYS4       37 GROUP   
     4 PHE5       47 GROUP   
     5 GLY6       73 GROUP   
     6 CUB7       96 GROUP   
@<TRIPOS>SET

