#    Name: 6av7_2_H4B_CAVITY_N1_6
#    Modification time : Fri May 22 19:37:05 2020

@<TRIPOS>MOLECULE
6av7_2_H4B_CAVITY_N1_6
   31     0     5     0     0
SMALL
NO_CHARGES


@<TRIPOS>ATOM
      1 N          70.7100    9.6500 -162.4400 N.am      1 ALA2        0.0000 
      2 N          72.9700   11.9100 -165.9500 N.am      1 ALA2        0.0000 
      3 N          72.6800   10.9600 -164.8200 N.am      1 ALA2        0.0000 
      4 N          72.3800   10.0200 -163.6900 N.am      1 ALA2        0.0000 
      5 N          71.2200   10.6700 -161.4600 N.am      1 ALA2        0.0000 
      6 N          72.8900   11.0300 -162.7100 N.am      1 ALA2        0.0000 
      7 N          72.6000   10.0900 -161.5800 N.am      1 ALA2        0.0000 
      8 N          72.0300   12.6300 -161.6100 N.am      1 ALA2        0.0000 
      9 NZ         73.2500    8.4300 -164.7900 N.4       2 LYS4        0.0000 
     10 NZ         74.0600   10.3900 -164.9400 N.4       2 LYS4        0.0000 
     11 NZ         73.7600    9.4400 -163.8100 N.4       2 LYS4        0.0000 
     12 NZ         73.4700    8.5000 -162.6800 N.4       2 LYS4        0.0000 
     13 NZ         75.9500   10.8200 -164.0800 N.4       2 LYS4        0.0000 
     14 CZ         73.4800   12.9200 -164.9700 C.ar      3 PHE5        0.0000 
     15 CZ         73.1900   11.9800 -163.8400 C.ar      3 PHE5        0.0000 
     16 CZ         74.8600   12.3400 -165.0900 C.ar      3 PHE5        0.0000 
     17 CZ         74.5700   11.4000 -163.9600 C.ar      3 PHE5        0.0000 
     18 CZ         73.4000   12.0500 -161.7300 C.ar      3 PHE5        0.0000 
     19 CZ         75.0800   12.4100 -162.9800 C.ar      3 PHE5        0.0000 
     20 CZ         74.7800   11.4700 -161.8500 C.ar      3 PHE5        0.0000 
     21 CZ         76.4600   11.8400 -163.1000 C.ar      3 PHE5        0.0000 
     22 CZ         73.9100   13.0600 -160.7500 C.ar      3 PHE5        0.0000 
     23 CZ         75.2900   12.4900 -160.8700 C.ar      3 PHE5        0.0000 
     24 CA         71.3600    7.9900 -165.6500 C.3       4 GLY6        0.0000 
     25 CA         72.1700    9.9500 -165.8000 C.3       4 GLY6        0.0000 
     26 CA         73.5500    9.3700 -165.9200 C.3       4 GLY6        0.0000 
     27 CA         72.5400   13.6400 -160.6300 C.3       4 GLY6        0.0000 
     28 DU         71.8700    9.0100 -164.6700 H         5 CUB7        0.0000 
     29 DU         71.5800    8.0600 -163.5400 H         5 CUB7        0.0000 
     30 DU         72.0900    9.0800 -162.5600 H         5 CUB7        0.0000 
     31 DU         74.2700   10.4600 -162.8300 H         5 CUB7        0.0000 
@<TRIPOS>BOND
@<TRIPOS>SUBSTRUCTURE
     1 ALA2        1 GROUP   
     2 LYS4        9 GROUP   
     3 PHE5       14 GROUP   
     4 GLY6       24 GROUP   
     5 CUB7       28 GROUP   
@<TRIPOS>SET

