#    Name: 5zz6_1_NAD_CAVITY_N1_6
#    Modification time : Fri May 22 19:32:52 2020

@<TRIPOS>MOLECULE
5zz6_1_NAD_CAVITY_N1_6
   84     0     7     0     0
SMALL
NO_CHARGES


@<TRIPOS>ATOM
      1 OG        -12.4700  -43.9400  -17.3400 O.3       1 SER1        0.0000 
      2 OG        -11.4300  -43.9000  -18.4200 O.3       1 SER1        0.0000 
      3 OG        -12.0300  -43.5100  -14.8100 O.3       1 SER1        0.0000 
      4 OG        -12.9600  -42.7100  -15.6800 O.3       1 SER1        0.0000 
      5 OG        -12.5100  -42.2800  -13.1500 O.3       1 SER1        0.0000 
      6 OG        -11.4700  -42.2500  -14.2300 O.3       1 SER1        0.0000 
      7 OG        -10.9200  -40.9800  -13.6500 O.3       1 SER1        0.0000 
      8 N          -7.2400  -48.3400  -16.6100 N.am      2 ALA2        0.0000 
      9 N          -6.2000  -48.3100  -17.6900 N.am      2 ALA2        0.0000 
     10 N          -8.1700  -47.5400  -17.4800 N.am      2 ALA2        0.0000 
     11 N          -8.9800  -45.9000  -20.2900 N.am      2 ALA2        0.0000 
     12 O          -8.6500  -46.3100  -15.8200 O.2       2 ALA2        0.0000 
     13 N          -6.5700  -46.2400  -17.9800 N.am      2 ALA2        0.0000 
     14 N          -8.5400  -45.4700  -17.7700 N.am      2 ALA2        0.0000 
     15 O          -7.5000  -45.4400  -18.8400 O.2       2 ALA2        0.0000 
     16 N          -8.4200  -44.6300  -19.7100 N.am      2 ALA2        0.0000 
     17 N         -10.3900  -43.8700  -19.5000 N.am      2 ALA2        0.0000 
     18 N          -8.1000  -45.0400  -15.2400 N.am      2 ALA2        0.0000 
     19 O         -12.1400  -44.3500  -12.8700 O.2       2 ALA2        0.0000 
     20 N          -7.9800  -44.2100  -17.1900 N.am      2 ALA2        0.0000 
     21 O          -6.9400  -44.1700  -18.2700 O.2       2 ALA2        0.0000 
     22 N          -8.7900  -42.5600  -20.0000 N.am      2 ALA2        0.0000 
     23 N          -7.5400  -43.7800  -14.6600 N.am      2 ALA2        0.0000 
     24 N          -6.5000  -43.7400  -15.7400 N.am      2 ALA2        0.0000 
     25 O         -11.5900  -43.0900  -12.2900 O.2       2 ALA2        0.0000 
     26 N          -9.5100  -43.0100  -14.4500 N.am      2 ALA2        0.0000 
     27 N          -7.9100  -41.7100  -14.9500 N.am      2 ALA2        0.0000 
     28 N          -9.3200  -39.6800  -14.1500 N.am      2 ALA2        0.0000 
     29 N          -8.2800  -39.6400  -15.2300 N.am      2 ALA2        0.0000 
     30 OD1        -8.2400  -50.0400  -19.7200 O.co2     3 ASP3        0.0000 
     31 NZ         -7.3100  -50.8400  -18.8500 N.4       4 LYS4        0.0000 
     32 NZ         -6.8700  -50.4100  -16.3300 N.4       4 LYS4        0.0000 
     33 NZ         -6.7600  -49.5700  -18.2700 N.4       4 LYS4        0.0000 
     34 CZ        -10.9900  -43.4800  -15.8900 C.ar      5 PHE5        0.0000 
     35 CZ         -9.9500  -43.4400  -16.9700 C.ar      5 PHE5        0.0000 
     36 CZ         -9.8300  -42.6000  -18.9200 C.ar      5 PHE5        0.0000 
     37 CZ        -10.4300  -42.2100  -15.3100 C.ar      5 PHE5        0.0000 
     38 CZ         -9.3900  -42.1700  -16.3900 C.ar      5 PHE5        0.0000 
     39 CZ         -8.2400  -41.3000  -19.4200 C.ar      5 PHE5        0.0000 
     40 CZ         -9.8800  -40.9400  -14.7300 C.ar      5 PHE5        0.0000 
     41 CZ         -8.8400  -40.9100  -15.8100 C.ar      5 PHE5        0.0000 
     42 CZ         -8.7200  -40.0700  -17.7600 C.ar      5 PHE5        0.0000 
     43 CZ         -9.2100  -38.8400  -16.1000 C.ar      5 PHE5        0.0000 
     44 CZ         -9.0900  -38.0000  -18.0500 C.ar      5 PHE5        0.0000 
     45 CA         -7.8000  -49.6100  -17.1900 C.3       6 GLY6        0.0000 
     46 CA         -7.6800  -48.7700  -19.1400 C.3       6 GLY6        0.0000 
     47 CA         -8.6100  -47.9700  -20.0000 C.3       6 GLY6        0.0000 
     48 CA         -6.3200  -49.1500  -15.7500 C.3       6 GLY6        0.0000 
     49 CA         -7.1300  -47.5000  -18.5600 C.3       6 GLY6        0.0000 
     50 CA        -10.1400  -46.7800  -17.2600 C.3       6 GLY6        0.0000 
     51 CA         -8.0500  -46.7000  -19.4200 C.3       6 GLY6        0.0000 
     52 CA        -11.6600  -45.5800  -14.5300 C.3       6 GLY6        0.0000 
     53 CA        -10.6200  -45.5500  -15.6100 C.3       6 GLY6        0.0000 
     54 CA        -11.1000  -44.3200  -13.9500 C.3       6 GLY6        0.0000 
     55 CA        -10.0600  -44.2800  -15.0300 C.3       6 GLY6        0.0000 
     56 CA         -7.8700  -43.3700  -19.1300 C.3       6 GLY6        0.0000 
     57 CA        -10.5500  -43.0500  -13.3700 C.3       6 GLY6        0.0000 
     58 CA         -7.4300  -42.9400  -16.6100 C.3       6 GLY6        0.0000 
     59 CA         -8.3500  -42.1400  -17.4700 C.3       6 GLY6        0.0000 
     60 CA         -7.3100  -42.1000  -18.5500 C.3       6 GLY6        0.0000 
     61 CA         -8.9500  -41.7400  -13.8700 C.3       6 GLY6        0.0000 
     62 CA         -6.8700  -41.6700  -16.0300 C.3       6 GLY6        0.0000 
     63 CA         -7.8000  -40.8700  -16.8900 C.3       6 GLY6        0.0000 
     64 CA         -7.6800  -40.0300  -18.8400 C.3       6 GLY6        0.0000 
     65 CA         -8.6100  -39.2300  -19.7000 C.3       6 GLY6        0.0000 
     66 CA         -7.2400  -39.6000  -16.3100 C.3       6 GLY6        0.0000 
     67 CA         -8.1700  -38.8000  -17.1800 C.3       6 GLY6        0.0000 
     68 CA         -7.1300  -38.7600  -18.2600 C.3       6 GLY6        0.0000 
     69 CA         -8.0500  -37.9600  -19.1200 C.3       6 GLY6        0.0000 
     70 CA         -8.6500  -37.5700  -15.5200 C.3       6 GLY6        0.0000 
     71 CA         -8.5400  -36.7300  -17.4700 C.3       6 GLY6        0.0000 
     72 DU        -10.2100  -49.2700  -19.5000 H         7 CUB7        0.0000 
     73 DU         -8.7200  -48.8100  -18.0600 H         7 CUB7        0.0000 
     74 DU         -9.6500  -48.0100  -18.9200 H         7 CUB7        0.0000 
     75 DU         -9.0900  -46.7400  -18.3400 H         7 CUB7        0.0000 
     76 DU        -11.0600  -45.9700  -18.1300 H         7 CUB7        0.0000 
     77 DU        -10.0200  -45.9400  -19.2100 H         7 CUB7        0.0000 
     78 DU         -9.5800  -45.5100  -16.6900 H         7 CUB7        0.0000 
     79 DU        -11.5500  -44.7400  -16.4700 H         7 CUB7        0.0000 
     80 DU        -10.5100  -44.7100  -17.5500 H         7 CUB7        0.0000 
     81 DU         -9.4600  -44.6700  -18.6300 H         7 CUB7        0.0000 
     82 DU         -9.0200  -44.2400  -16.1100 H         7 CUB7        0.0000 
     83 DU         -8.9100  -43.4000  -18.0500 H         7 CUB7        0.0000 
     84 DU         -8.4700  -42.9700  -15.5300 H         7 CUB7        0.0000 
@<TRIPOS>BOND
@<TRIPOS>SUBSTRUCTURE
     1 SER1        1 GROUP   
     2 ALA2        8 GROUP   
     3 ASP3       30 GROUP   
     4 LYS4       31 GROUP   
     5 PHE5       34 GROUP   
     6 GLY6       45 GROUP   
     7 CUB7       72 GROUP   
@<TRIPOS>SET

