#    Name: 5zz6_1_NAD
#    Modification time : Fri May 22 19:32:50 2020

@<TRIPOS>MOLECULE
5zz6_1_NAD
   44    48     1     0     1
SMALL
NO_CHARGES


@<TRIPOS>ATOM
      1 PA         -8.9040  -46.1410  -19.5110 P.3       1 NAD301      0.0000 
      2 O1A        -8.4850  -45.6370  -20.8180 O.co2     1 NAD301      0.0000 
      3 O2A       -10.1550  -46.8860  -19.3520 O.co2     1 NAD301      0.0000 
      4 O5B        -7.7700  -47.0560  -18.9600 O.3       1 NAD301      0.0000 
      5 C5B        -7.9550  -47.7650  -17.7790 C.3       1 NAD301      0.0000 
      6 C4B        -7.1260  -48.9980  -17.9360 C.3       1 NAD301      0.0000 
      7 O4B        -7.0470  -49.6160  -16.6810 O.3       1 NAD301      0.0000 
      8 C3B        -7.8180  -49.9620  -18.8710 C.3       1 NAD301      0.0000 
      9 O3B        -6.9050  -50.3410  -19.8710 O.3       1 NAD301      0.0000 
     10 C2B        -8.1720  -51.1170  -17.9800 C.3       1 NAD301      0.0000 
     11 O2B        -8.0090  -52.3660  -18.6070 O.3       1 NAD301      0.0000 
     12 C1B        -7.1420  -50.9800  -16.9010 C.3       1 NAD301      0.0000 
     13 N9A        -7.5270  -51.6320  -15.6740 N.pl3     1 NAD301      0.0000 
     14 C8A        -8.7190  -51.6750  -15.1370 C.2       1 NAD301      0.0000 
     15 N7A        -8.6890  -52.3600  -13.9950 N.2       1 NAD301      0.0000 
     16 C5A        -7.4520  -52.7630  -13.8010 C.ar      1 NAD301      0.0000 
     17 C6A        -6.7140  -53.5290  -12.7990 C.ar      1 NAD301      0.0000 
     18 N6A        -7.2910  -54.0400  -11.7170 N.pl3     1 NAD301      0.0000 
     19 N1A        -5.4180  -53.7080  -12.9960 N.ar      1 NAD301      0.0000 
     20 C2A        -4.7960  -53.2210  -14.0570 C.ar      1 NAD301      0.0000 
     21 N3A        -5.3930  -52.5260  -15.0020 N.ar      1 NAD301      0.0000 
     22 C4A        -6.6930  -52.2710  -14.9220 C.ar      1 NAD301      0.0000 
     23 O3         -8.8140  -45.0150  -18.4330 O.3       1 NAD301      0.0000 
     24 PN         -7.8810  -43.7520  -18.5480 P.3       1 NAD301      0.0000 
     25 O1N        -8.5720  -42.7350  -19.3530 O.co2     1 NAD301      0.0000 
     26 O2N        -6.4870  -44.1270  -18.8340 O.co2     1 NAD301      0.0000 
     27 O5D        -8.0130  -43.3000  -17.0450 O.3       1 NAD301      0.0000 
     28 C5D        -7.0720  -43.6500  -16.0540 C.3       1 NAD301      0.0000 
     29 C4D        -7.4410  -43.0140  -14.7360 C.3       1 NAD301      0.0000 
     30 O4D        -7.3090  -41.6080  -14.7980 O.3       1 NAD301      0.0000 
     31 C3D        -8.8730  -43.2920  -14.4330 C.3       1 NAD301      0.0000 
     32 O3D        -8.9190  -43.5660  -13.0580 O.3       1 NAD301      0.0000 
     33 C2D        -9.5470  -41.9820  -14.6880 C.3       1 NAD301      0.0000 
     34 O2D       -10.6510  -41.8020  -13.8400 O.3       1 NAD301      0.0000 
     35 C1D        -8.4890  -40.9830  -14.3730 C.3       1 NAD301      0.0000 
     36 N1N        -8.7190  -39.8060  -15.1620 N.pl3     1 NAD301      0.0000 
     37 C2N        -8.3860  -39.7570  -16.4330 C.ar      1 NAD301      0.0000 
     38 C3N        -8.6210  -38.6180  -17.1620 C.ar      1 NAD301      0.0000 
     39 C7N        -8.2610  -38.5350  -18.6020 C.2       1 NAD301      0.0000 
     40 O7N        -8.1860  -37.4590  -19.1290 O.2       1 NAD301      0.0000 
     41 N7N        -8.0500  -39.6480  -19.2770 N.am      1 NAD301      0.0000 
     42 C4N        -9.2010  -37.5360  -16.5660 C.ar      1 NAD301      0.0000 
     43 C5N        -9.5350  -37.6290  -15.2500 C.ar      1 NAD301      0.0000 
     44 C6N        -9.2790  -38.7860  -14.5670 C.ar      1 NAD301      0.0000 
@<TRIPOS>BOND
     1    1    2 ar   
     2    1    3 ar   
     3    1    4 1    
     4    1   23 1    
     5    4    5 1    
     6    5    6 1    
     7    6    7 1    
     8    6    8 1    
     9    7   12 1    
    10    8    9 1    
    11    8   10 1    
    12   10   11 1    
    13   10   12 1    
    14   12   13 1    
    15   13   14 1    
    16   13   22 1    
    17   14   15 2    
    18   15   16 1    
    19   16   17 ar   
    20   16   22 ar   
    21   17   18 1    
    22   17   19 ar   
    23   19   20 ar   
    24   20   21 ar   
    25   21   22 ar   
    26   23   24 1    
    27   24   25 ar   
    28   24   26 ar   
    29   24   27 1    
    30   27   28 1    
    31   28   29 1    
    32   29   30 1    
    33   29   31 1    
    34   30   35 1    
    35   31   32 1    
    36   31   33 1    
    37   33   34 1    
    38   33   35 1    
    39   35   36 1    
    40   36   37 ar   
    41   36   44 ar   
    42   37   38 ar   
    43   38   39 1    
    44   38   42 ar   
    45   39   40 2    
    46   39   41 am   
    47   42   43 ar   
    48   43   44 ar   
@<TRIPOS>SUBSTRUCTURE
     1 NAD301      1 GROUP   
@<TRIPOS>SET
ATOM$ORANGE STATIC     ATOMS   COLORGROUP SYSTEM 
42 5 5 6 6 8 8 10 10 12 12 14 14 16 16 17 17 20 \
20 22 22 28 28 29 29 31 31 33 33 35 35 37 37 38 38 39 \
39 42 42 43 43 44 44 

