#    Name: 6d3a_1_AR6
#    Modification time : Fri May 22 19:24:47 2020

@<TRIPOS>MOLECULE
6d3a_1_AR6
   57    60     1     0     0
SMALL
NO_CHARGES


@<TRIPOS>ATOM
      1 N1         35.8010    6.9830   33.7630 N.ar      1 AR6401      0.0000 
      2 C2         36.3260    5.9680   34.4720 C.ar      1 AR6401      0.0000 
      3 N3         35.6370    5.3020   35.4140 N.ar      1 AR6401      0.0000 
      4 C4         34.3500    5.6290   35.6980 C.ar      1 AR6401      0.0000 
      5 C5         33.7130    6.7300   34.9700 C.ar      1 AR6401      0.0000 
      6 C6         34.5360    7.4120   33.9510 C.ar      1 AR6401      0.0000 
      7 N6         34.0290    8.4320   33.2320 N.pl3     1 AR6401      0.0000 
      8 N7         32.4530    6.8370   35.4440 N.2       1 AR6401      0.0000 
      9 C8         32.2980    5.8870   36.4060 C.2       1 AR6401      0.0000 
     10 N9         33.4330    5.1680   36.5480 N.pl3     1 AR6401      0.0000 
     11 PA         30.5660    6.7200   40.7750 P.3       1 AR6401      0.0000 
     12 PB         27.9780    5.5120   41.4160 P.3       1 AR6401      0.0000 
     13 C1'        33.6550    4.0360   37.4840 C.3       1 AR6401      0.0000 
     14 O1A        30.0360    7.9730   40.1450 O.co2     1 AR6401      0.0000 
     15 O1B        27.0360    6.2170   42.3540 O.co2     1 AR6401      0.0000 
     16 C1D        29.1920    0.6640   43.0520 C.3       1 AR6401      0.0000 
     17 O1D        28.8100   -0.5190   43.7630 O.3       1 AR6401      0.0000 
     18 C2'        34.5980    4.4360   38.5960 C.3       1 AR6401      0.0000 
     19 O2'        35.4480    3.3230   38.9100 O.3       1 AR6401      0.0000 
     20 O2A        31.6730    6.9150   41.7940 O.co2     1 AR6401      0.0000 
     21 O2B        27.6300    5.4580   39.9610 O.co2     1 AR6401      0.0000 
     22 C2D        29.1130    1.8190   44.0130 C.3       1 AR6401      0.0000 
     23 O2D        29.5060    1.3910   45.3190 O.3       1 AR6401      0.0000 
     24 C3'        33.6580    4.7690   39.7340 C.3       1 AR6401      0.0000 
     25 O3'        34.2530    4.6300   41.0360 O.3       1 AR6401      0.0000 
     26 O3A        29.4310    6.0780   41.7230 O.3       1 AR6401      0.0000 
     27 C3D        27.6670    2.2570   43.9340 C.3       1 AR6401      0.0000 
     28 O3D        26.8590    1.5640   44.8910 O.3       1 AR6401      0.0000 
     29 C4'        32.5260    3.7860   39.5140 C.3       1 AR6401      0.0000 
     30 O4'        32.4150    3.6470   38.0900 O.3       1 AR6401      0.0000 
     31 C4D        27.2460    1.8560   42.5260 C.3       1 AR6401      0.0000 
     32 O4D        28.2330    0.9500   42.0380 O.3       1 AR6401      0.0000 
     33 C5'        31.2180    4.2730   40.1270 C.3       1 AR6401      0.0000 
     34 O5'        30.9610    5.6100   39.7040 O.3       1 AR6401      0.0000 
     35 C5D        27.1800    3.0300   41.5650 C.3       1 AR6401      0.0000 
     36 O5D        28.1130    4.0090   41.9660 O.3       1 AR6401      0.0000 
     37 H2         37.3490    5.6730   34.2740 H         1 AR6401      0.0000 
     38 HN6        33.0790    8.7380   33.3890 H         1 AR6401      0.0000 
     39 HN6A       34.6010    8.8960   32.5410 H         1 AR6401      0.0000 
     40 H8         31.3880    5.7230   36.9710 H         1 AR6401      0.0000 
     41 H1'        34.0900    3.1840   36.9430 H         1 AR6401      0.0000 
     42 H1D        30.2070    0.5780   42.6380 H         1 AR6401      0.0000 
     43 H2'        35.1790    5.3230   38.3060 H         1 AR6401      0.0000 
     44 HO2'       36.0600    3.5730   39.6160 H         1 AR6401      0.0000 
     45 H2D        29.7620    2.6330   43.6600 H         1 AR6401      0.0000 
     46 HO2D       30.4170    1.0690   45.2920 H         1 AR6401      0.0000 
     47 H3'        33.2770    5.7900   39.5970 H         1 AR6401      0.0000 
     48 HO3'       35.0060    5.2320   41.1120 H         1 AR6401      0.0000 
     49 H3D        27.5920    3.3470   44.0560 H         1 AR6401      0.0000 
     50 HO3D       27.1870    1.7480   45.7820 H         1 AR6401      0.0000 
     51 H4'        32.7970    2.8230   39.9670 H         1 AR6401      0.0000 
     52 H4D        26.2640    1.3640   42.5670 H         1 AR6401      0.0000 
     53 H5'        31.2850    4.2360   41.2160 H         1 AR6401      0.0000 
     54 H5'A       30.3990    3.6220   39.8140 H         1 AR6401      0.0000 
     55 H5D        26.1730    3.4530   41.5660 H         1 AR6401      0.0000 
     56 H5DA       27.4080    2.6930   40.5520 H         1 AR6401      0.0000 
     57 HD1        28.7960   -1.2710   43.1540 H         1 AR6401      0.0000 
@<TRIPOS>BOND
     1    1    2 ar   
     2    1    6 ar   
     3    2    3 ar   
     4    2   37 1    
     5    3    4 ar   
     6    4    5 ar   
     7    4   10 1    
     8    5    6 ar   
     9    5    8 1    
    10    6    7 1    
    11    7   38 1    
    12    7   39 1    
    13    8    9 2    
    14    9   10 1    
    15    9   40 1    
    16   10   13 1    
    17   11   14 ar   
    18   11   20 ar   
    19   11   26 1    
    20   11   34 1    
    21   12   15 ar   
    22   12   21 ar   
    23   12   26 1    
    24   12   36 1    
    25   13   18 1    
    26   13   30 1    
    27   13   41 1    
    28   16   17 1    
    29   16   22 1    
    30   16   32 1    
    31   16   42 1    
    32   17   57 1    
    33   18   19 1    
    34   18   24 1    
    35   18   43 1    
    36   19   44 1    
    37   22   23 1    
    38   22   27 1    
    39   22   45 1    
    40   23   46 1    
    41   24   25 1    
    42   24   29 1    
    43   24   47 1    
    44   25   48 1    
    45   27   28 1    
    46   27   31 1    
    47   27   49 1    
    48   28   50 1    
    49   29   30 1    
    50   29   33 1    
    51   29   51 1    
    52   31   32 1    
    53   31   35 1    
    54   31   52 1    
    55   33   34 1    
    56   33   53 1    
    57   33   54 1    
    58   35   36 1    
    59   35   55 1    
    60   35   56 1    
@<TRIPOS>SUBSTRUCTURE
     1 AR6401      1 GROUP   
@<TRIPOS>SET

