#    Name: 6d3a_3_AR6
#    Modification time : Fri May 22 19:24:53 2020

@<TRIPOS>MOLECULE
6d3a_3_AR6
   57    60     1     0     0
SMALL
NO_CHARGES


@<TRIPOS>ATOM
      1 N1         19.2550   35.9380  -21.2270 N.ar      1 AR6401      0.0000 
      2 C2         19.7210   34.9820  -20.4090 C.ar      1 AR6401      0.0000 
      3 N3         18.9610   34.3950  -19.4650 N.ar      1 AR6401      0.0000 
      4 C4         17.6630   34.7510  -19.3060 C.ar      1 AR6401      0.0000 
      5 C5         17.0800   35.7810  -20.1660 C.ar      1 AR6401      0.0000 
      6 C6         17.9770   36.3870  -21.1680 C.ar      1 AR6401      0.0000 
      7 N6         17.5180   37.3490  -21.9940 N.pl3     1 AR6401      0.0000 
      8 N7         15.7930   35.9220  -19.7940 N.2       1 AR6401      0.0000 
      9 C8         15.5630   35.0530  -18.7730 C.2       1 AR6401      0.0000 
     10 N9         16.6960   34.3690  -18.4840 N.pl3     1 AR6401      0.0000 
     11 PA         13.1600   35.9550  -14.8690 P.3       1 AR6401      0.0000 
     12 PB         10.4880   34.7510  -14.5570 P.3       1 AR6401      0.0000 
     13 C1'        16.8710   33.3170  -17.4590 C.3       1 AR6401      0.0000 
     14 O1A        12.7370   37.1210  -15.7100 O.co2     1 AR6401      0.0000 
     15 O1B         9.4570   35.4840  -13.7380 O.co2     1 AR6401      0.0000 
     16 C1D        10.7360   30.4550  -11.6120 C.3       1 AR6401      0.0000 
     17 O1D        10.5490   29.0340  -11.6770 O.3       1 AR6401      0.0000 
     18 C2'        17.6530   33.8550  -16.2740 C.3       1 AR6401      0.0000 
     19 O2'        18.4260   32.7700  -15.7600 O.3       1 AR6401      0.0000 
     20 O2A        14.1290   36.2140  -13.7340 O.co2     1 AR6401      0.0000 
     21 O2B        10.3150   34.6520  -16.0530 O.co2     1 AR6401      0.0000 
     22 C2D         9.3970   31.1580  -11.6830 C.3       1 AR6401      0.0000 
     23 O2D         8.3900   30.4860  -10.9540 O.3       1 AR6401      0.0000 
     24 C3'        16.5670   34.2670  -15.2980 C.3       1 AR6401      0.0000 
     25 O3'        16.9710   34.3270  -13.9170 O.3       1 AR6401      0.0000 
     26 O3A        11.9070   35.3400  -14.0810 O.3       1 AR6401      0.0000 
     27 C3D         9.0750   31.1480  -13.1700 C.3       1 AR6401      0.0000 
     28 O3D         8.2040   30.0770  -13.5300 O.3       1 AR6401      0.0000 
     29 C4'        15.5290   33.1960  -15.5570 C.3       1 AR6401      0.0000 
     30 O4'        15.6000   32.9000  -16.9630 O.3       1 AR6401      0.0000 
     31 C4D        10.4160   30.9400  -13.8300 C.3       1 AR6401      0.0000 
     32 O4D        11.3990   30.8690  -12.7930 O.3       1 AR6401      0.0000 
     33 C5'        14.1150   33.5940  -15.1590 C.3       1 AR6401      0.0000 
     34 O5'        13.6830   34.7790  -15.8120 O.3       1 AR6401      0.0000 
     35 C5D        10.6810   32.1280  -14.7350 C.3       1 AR6401      0.0000 
     36 O5D        10.5680   33.2860  -13.9230 O.3       1 AR6401      0.0000 
     37 H2         20.7560   34.6780  -20.5040 H         1 AR6401      0.0000 
     38 HN6        18.1320   37.7560  -22.6850 H         1 AR6401      0.0000 
     39 HN6A       16.5570   37.6540  -21.9290 H         1 AR6401      0.0000 
     40 H8         14.6190   34.9390  -18.2550 H         1 AR6401      0.0000 
     41 H1'        17.4110   32.4590  -17.8840 H         1 AR6401      0.0000 
     42 H1D        11.2850   30.7560  -10.7090 H         1 AR6401      0.0000 
     43 H2'        18.2730   34.7140  -16.5670 H         1 AR6401      0.0000 
     44 HO2'       18.9350   33.0710  -14.9950 H         1 AR6401      0.0000 
     45 H2D         9.5060   32.1950  -11.3370 H         1 AR6401      0.0000 
     46 HO2D        8.6390   30.4480  -10.0210 H         1 AR6401      0.0000 
     47 H3'        16.1580   35.2380  -15.6120 H         1 AR6401      0.0000 
     48 HO3'       17.6740   34.9830  -13.8150 H         1 AR6401      0.0000 
     49 H3D         8.6560   32.1190  -13.4700 H         1 AR6401      0.0000 
     50 HO3D        7.3750   30.1560  -13.0380 H         1 AR6401      0.0000 
     51 H4'        15.8080   32.3020  -14.9820 H         1 AR6401      0.0000 
     52 H4D        10.4010   30.0150  -14.4230 H         1 AR6401      0.0000 
     53 H5'        14.0760   33.7450  -14.0780 H         1 AR6401      0.0000 
     54 H5'A       13.4310   32.7790  -15.4040 H         1 AR6401      0.0000 
     55 H5D        11.6820   32.0620  -15.1660 H         1 AR6401      0.0000 
     56 H5DA        9.9500   32.1590  -15.5450 H         1 AR6401      0.0000 
     57 HD1        11.4110   28.5960  -11.7120 H         1 AR6401      0.0000 
@<TRIPOS>BOND
     1    1    2 ar   
     2    1    6 ar   
     3    2    3 ar   
     4    2   37 1    
     5    3    4 ar   
     6    4    5 ar   
     7    4   10 1    
     8    5    6 ar   
     9    5    8 1    
    10    6    7 1    
    11    7   38 1    
    12    7   39 1    
    13    8    9 2    
    14    9   10 1    
    15    9   40 1    
    16   10   13 1    
    17   11   14 ar   
    18   11   20 ar   
    19   11   26 1    
    20   11   34 1    
    21   12   15 ar   
    22   12   21 ar   
    23   12   26 1    
    24   12   36 1    
    25   13   18 1    
    26   13   30 1    
    27   13   41 1    
    28   16   17 1    
    29   16   22 1    
    30   16   32 1    
    31   16   42 1    
    32   17   57 1    
    33   18   19 1    
    34   18   24 1    
    35   18   43 1    
    36   19   44 1    
    37   22   23 1    
    38   22   27 1    
    39   22   45 1    
    40   23   46 1    
    41   24   25 1    
    42   24   29 1    
    43   24   47 1    
    44   25   48 1    
    45   27   28 1    
    46   27   31 1    
    47   27   49 1    
    48   28   50 1    
    49   29   30 1    
    50   29   33 1    
    51   29   51 1    
    52   31   32 1    
    53   31   35 1    
    54   31   52 1    
    55   33   34 1    
    56   33   53 1    
    57   33   54 1    
    58   35   36 1    
    59   35   55 1    
    60   35   56 1    
@<TRIPOS>SUBSTRUCTURE
     1 AR6401      1 GROUP   
@<TRIPOS>SET

