#    Name: 6chg_1_SAM
#    Modification time : Fri May 22 19:29:21 2020

@<TRIPOS>MOLECULE
6chg_1_SAM
   48    50     1     0     0
SMALL
NO_CHARGES


@<TRIPOS>ATOM
      1 N         -75.7910   32.0510  151.9820 N.4       1 SAM1101     0.0000 
      2 CA        -76.8610   32.3700  152.9160 C.3       1 SAM1101     0.0000 
      3 C         -77.5270   33.6940  152.5540 C.2       1 SAM1101     0.0000 
      4 O         -78.2800   34.2660  153.3440 O.co2     1 SAM1101     0.0000 
      5 OXT       -77.3290   34.2240  151.4590 O.co2     1 SAM1101     0.0000 
      6 CB        -76.2910   32.4120  154.3280 C.3       1 SAM1101     0.0000 
      7 CG        -76.1490   31.0360  154.9760 C.3       1 SAM1101     0.0000 
      8 SD        -77.3680   30.7810  156.2950 S.3       1 SAM1101     0.0000 
      9 CE        -76.3220   30.6190  157.7660 C.3       1 SAM1101     0.0000 
     10 C5'       -77.8790   29.0510  156.1330 C.3       1 SAM1101     0.0000 
     11 C4'       -78.8490   28.7570  154.9960 C.3       1 SAM1101     0.0000 
     12 O4'       -78.1870   28.7820  153.7450 O.3       1 SAM1101     0.0000 
     13 C3'       -79.4670   27.3780  155.1780 C.3       1 SAM1101     0.0000 
     14 O3'       -80.8290   27.4630  155.5240 O.3       1 SAM1101     0.0000 
     15 C2'       -79.2830   26.6630  153.8570 C.3       1 SAM1101     0.0000 
     16 O2'       -80.5350   26.4370  153.2410 O.3       1 SAM1101     0.0000 
     17 C1'       -78.3870   27.5750  153.0320 C.3       1 SAM1101     0.0000 
     18 N9        -77.0770   26.9310  152.8360 N.pl3     1 SAM1101     0.0000 
     19 C8        -76.0300   27.0020  153.7160 C.2       1 SAM1101     0.0000 
     20 N7        -74.9970   26.2940  153.2200 N.2       1 SAM1101     0.0000 
     21 C5        -75.3700   25.7630  152.0410 C.ar      1 SAM1101     0.0000 
     22 C6        -74.6880   24.9610  151.1420 C.ar      1 SAM1101     0.0000 
     23 N6        -73.4360   24.6020  151.4140 N.pl3     1 SAM1101     0.0000 
     24 N1        -75.3120   24.5480  149.9850 N.ar      1 SAM1101     0.0000 
     25 C2        -76.6120   24.9410  149.7360 C.ar      1 SAM1101     0.0000 
     26 N3        -77.2870   25.7420  150.6400 N.ar      1 SAM1101     0.0000 
     27 C4        -76.6750   26.1520  151.7770 C.ar      1 SAM1101     0.0000 
     28 HN1       -75.8260   32.4930  151.2450 H         1 SAM1101     0.0000 
     29 HA        -77.5420   31.6670  152.8800 H         1 SAM1101     0.0000 
     30 HB1       -75.3120   32.8920  154.2940 H         1 SAM1101     0.0000 
     31 HB2       -76.9390   33.0320  154.9470 H         1 SAM1101     0.0000 
     32 HG1       -76.2760   30.2650  154.2150 H         1 SAM1101     0.0000 
     33 HG2       -75.1450   30.9340  155.3880 H         1 SAM1101     0.0000 
     34 HE1       -76.5760   31.4020  158.4810 H         1 SAM1101     0.0000 
     35 HE2       -76.4860   29.6430  158.2240 H         1 SAM1101     0.0000 
     36 HE3       -75.2740   30.7150  157.4800 H         1 SAM1101     0.0000 
     37 H5'1      -76.9870   28.4390  155.9940 H         1 SAM1101     0.0000 
     38 H5'2      -78.3380   28.7370  157.0700 H         1 SAM1101     0.0000 
     39 H4'       -79.6440   29.5030  155.0110 H         1 SAM1101     0.0000 
     40 H3'       -78.9160   26.8420  155.9510 H         1 SAM1101     0.0000 
     41 HO3'      -81.3700   27.0360  154.8270 H         1 SAM1101     0.0000 
     42 H2'       -78.7690   25.7180  154.0310 H         1 SAM1101     0.0000 
     43 HO2'      -80.5730   26.9220  152.3910 H         1 SAM1101     0.0000 
     44 H1'       -78.8610   27.7740  152.0710 H         1 SAM1101     0.0000 
     45 H8        -76.0330   27.5430  154.6620 H         1 SAM1101     0.0000 
     46 HN61      -72.9930   24.9160  152.2710 H         1 SAM1101     0.0000 
     47 HN62      -72.9260   24.0100  150.7660 H         1 SAM1101     0.0000 
     48 H2        -77.1090   24.6190  148.8220 H         1 SAM1101     0.0000 
@<TRIPOS>BOND
     1    1    2 1    
     2    2    3 1    
     3    1   28 1    
     4    2    6 1    
     5    2   29 1    
     6    3    4 ar   
     7    3    5 ar   
     8    6    7 1    
     9    6   30 1    
    10    6   31 1    
    11    7    8 1    
    12    7   32 1    
    13    7   33 1    
    14    8    9 1    
    15    8   10 1    
    16    9   34 1    
    17    9   35 1    
    18    9   36 1    
    19   10   11 1    
    20   10   37 1    
    21   10   38 1    
    22   11   12 1    
    23   11   13 1    
    24   11   39 1    
    25   12   17 1    
    26   13   14 1    
    27   13   15 1    
    28   13   40 1    
    29   14   41 1    
    30   15   16 1    
    31   15   17 1    
    32   15   42 1    
    33   16   43 1    
    34   17   18 1    
    35   17   44 1    
    36   18   19 1    
    37   18   27 1    
    38   19   20 2    
    39   19   45 1    
    40   20   21 1    
    41   21   22 ar   
    42   21   27 ar   
    43   22   23 1    
    44   22   24 ar   
    45   23   46 1    
    46   23   47 1    
    47   24   25 ar   
    48   25   26 ar   
    49   25   48 1    
    50   26   27 ar   
@<TRIPOS>SUBSTRUCTURE
     1 SAM1101     1 GROUP   
@<TRIPOS>SET

