#    Name: 6chg_2_THR_MET_GLN
#    Modification time : Fri May 22 19:29:24 2020

@<TRIPOS>MOLECULE
6chg_2_THR_MET_GLN
   47    46     3     0     0
SMALL
NO_CHARGES


@<TRIPOS>ATOM
      1 N         -82.2690   24.4470  161.5400 N.4       1 THR3        0.0000 
      2 CA        -81.5900   24.6290  162.8190 C.3       1 THR3        0.0000 
      3 C         -80.1120   24.2700  162.6990 C.2       1 THR3        0.0000 
      4 O         -79.7610   23.1930  162.2180 O.2       1 THR3        0.0000 
      5 CB        -82.2390   23.7750  163.9300 C.3       1 THR3        0.0000 
      6 OG1       -83.5710   24.2460  164.1820 O.3       1 THR3        0.0000 
      7 CG2       -81.4300   23.8440  165.2220 C.3       1 THR3        0.0000 
      8 HA        -81.6530   25.5610  163.0800 H         1 THR3        0.0000 
      9 HB        -82.2760   22.8490  163.6430 H         1 THR3        0.0000 
     10 HG1       -84.0330   24.1870  163.4830 H         1 THR3        0.0000 
     11 HG21      -81.8520   23.3020  165.9070 H         1 THR3        0.0000 
     12 HG22      -80.5310   23.5130  165.0680 H         1 THR3        0.0000 
     13 HG23      -81.3790   24.7620  165.5320 H         1 THR3        0.0000 
     14 N         -79.2520   25.1810  163.1480 N.am      2 MET4        0.0000 
     15 CA        -77.8090   24.9790  163.1360 C.3       2 MET4        0.0000 
     16 C         -77.3400   24.6610  164.5500 C.2       2 MET4        0.0000 
     17 O         -77.6210   25.4170  165.4860 O.2       2 MET4        0.0000 
     18 CB        -77.0850   26.2210  162.6130 C.3       2 MET4        0.0000 
     19 CG        -77.7110   26.8560  161.3790 C.3       2 MET4        0.0000 
     20 SD        -76.9990   28.4750  161.0130 S.3       2 MET4        0.0000 
     21 CE        -75.2730   28.0530  160.8040 C.3       2 MET4        0.0000 
     22 H         -79.4880   25.9420  163.4720 H         2 MET4        0.0000 
     23 HA        -77.5950   24.2340  162.5530 H         2 MET4        0.0000 
     24 HB2       -77.0760   26.8910  163.3150 H         2 MET4        0.0000 
     25 HB3       -76.1750   25.9750  162.3860 H         2 MET4        0.0000 
     26 HG2       -77.5610   26.2800  160.6130 H         2 MET4        0.0000 
     27 HG3       -78.6630   26.9720  161.5280 H         2 MET4        0.0000 
     28 HE1       -74.7740   28.8590  160.5990 H         2 MET4        0.0000 
     29 HE2       -74.9430   27.6590  161.6270 H         2 MET4        0.0000 
     30 HE3       -75.1890   27.4170  160.0770 H         2 MET4        0.0000 
     31 N         -76.6300   23.5470  164.7010 N.am      3 GLN5        0.0000 
     32 CA        -76.1040   23.1500  166.0030 C.3       3 GLN5        0.0000 
     33 C         -74.5830   23.0920  165.9690 C.2       3 GLN5        0.0000 
     34 O         -73.9410   22.8190  166.9820 O.2       3 GLN5        0.0000 
     35 CB        -76.6740   21.7950  166.4260 C.3       3 GLN5        0.0000 
     36 CG        -78.1820   21.7830  166.6040 C.3       3 GLN5        0.0000 
     37 CD        -78.6820   20.4950  167.2240 C.2       3 GLN5        0.0000 
     38 OE1       -77.8950   19.6570  167.6640 O.2       3 GLN5        0.0000 
     39 NE2       -79.9980   20.3310  167.2630 N.am      3 GLN5        0.0000 
     40 H         -76.4380   23.0030  164.0630 H         3 GLN5        0.0000 
     41 HA        -76.3670   23.8080  166.6650 H         3 GLN5        0.0000 
     42 HB2       -76.4510   21.1380  165.7480 H         3 GLN5        0.0000 
     43 HB3       -76.2740   21.5410  167.2730 H         3 GLN5        0.0000 
     44 HG2       -78.4380   22.5160  167.1850 H         3 GLN5        0.0000 
     45 HG3       -78.6040   21.8830  165.7360 H         3 GLN5        0.0000 
     46 HE21      -80.5170   20.9400  166.9470 H         3 GLN5        0.0000 
     47 HE22      -80.3320   19.6170  167.6060 H         3 GLN5        0.0000 
@<TRIPOS>BOND
     1    1    2 1    
     2    2    3 1    
     3    2    5 1    
     4    2    8 1    
     5    3    4 2    
     6    3   14 am   
     7    5    6 1    
     8    5    7 1    
     9    5    9 1    
    10    6   10 1    
    11    7   11 1    
    12    7   12 1    
    13    7   13 1    
    14   14   15 1    
    15   15   16 1    
    16   14   22 1    
    17   15   18 1    
    18   15   23 1    
    19   16   17 2    
    20   16   31 am   
    21   18   19 1    
    22   18   24 1    
    23   18   25 1    
    24   19   20 1    
    25   19   26 1    
    26   19   27 1    
    27   20   21 1    
    28   21   28 1    
    29   21   29 1    
    30   21   30 1    
    31   31   32 1    
    32   32   33 1    
    33   31   40 1    
    34   32   35 1    
    35   32   41 1    
    36   33   34 2    
    37   35   36 1    
    38   35   42 1    
    39   35   43 1    
    40   36   37 1    
    41   36   44 1    
    42   36   45 1    
    43   37   38 2    
    44   37   39 am   
    45   39   46 1    
    46   39   47 1    
@<TRIPOS>SUBSTRUCTURE
     1 THR3        1 RESIDUE 
     2 MET4       14 RESIDUE 
     3 GLN5       31 RESIDUE 
@<TRIPOS>SET

