#    Name: 6chg_2_THR_MET_GLN_CAVITY_N1_8
#    Modification time : Fri May 22 19:29:26 2020

@<TRIPOS>MOLECULE
6chg_2_THR_MET_GLN_CAVITY_N1_8
  143     0     7     0     0
SMALL
NO_CHARGES


@<TRIPOS>ATOM
      1 OG        -80.6800   25.8700  156.9700 O.3       1 SER1        0.0000 
      2 OG        -75.3800   27.0900  153.6600 O.3       1 SER1        0.0000 
      3 OG        -76.6600   27.3100  154.4200 O.3       1 SER1        0.0000 
      4 OG        -82.9500   25.6300  162.0900 O.3       1 SER1        0.0000 
      5 OG        -77.7200   29.6200  154.9300 O.3       1 SER1        0.0000 
      6 OG        -77.2700   28.6300  155.9600 O.3       1 SER1        0.0000 
      7 OG        -78.4700   26.0800  160.5800 O.3       1 SER1        0.0000 
      8 OG        -76.6200   29.7300  156.7400 O.3       1 SER1        0.0000 
      9 OG        -75.5100   29.8400  158.5500 O.3       1 SER1        0.0000 
     10 OG        -75.0700   28.8400  159.5800 O.3       1 SER1        0.0000 
     11 OG        -76.3400   29.0600  160.3400 O.3       1 SER1        0.0000 
     12 OG        -77.6100   29.2800  161.1100 O.3       1 SER1        0.0000 
     13 OG        -76.1300   31.1600  160.0900 O.3       1 SER1        0.0000 
     14 O         -81.7900   25.7600  155.1600 O.2       2 ALA2        0.0000 
     15 O         -79.8600   26.6400  155.1700 O.2       2 ALA2        0.0000 
     16 N         -79.2000   27.7400  155.9500 N.am      2 ALA2        0.0000 
     17 O         -74.9400   26.0900  154.6900 O.2       2 ALA2        0.0000 
     18 N         -81.2300   24.4200  162.3600 N.am      2 ALA2        0.0000 
     19 N         -82.5000   24.6400  163.1300 N.am      2 ALA2        0.0000 
     20 O         -87.1400   24.5200  167.2100 O.2       2 ALA2        0.0000 
     21 N         -79.0600   22.2200  163.6600 N.am      2 ALA2        0.0000 
     22 N         -78.6100   21.2200  164.6900 N.am      2 ALA2        0.0000 
     23 N         -76.4500   29.4000  154.1700 N.am      2 ALA2        0.0000 
     24 N         -78.9900   29.8400  155.7000 N.am      2 ALA2        0.0000 
     25 N         -78.5500   28.8400  156.7300 N.am      2 ALA2        0.0000 
     26 N         -78.1000   27.8500  157.7600 N.am      2 ALA2        0.0000 
     27 N         -79.7500   26.3000  161.3500 N.am      2 ALA2        0.0000 
     28 N         -78.0300   25.0900  161.6100 N.am      2 ALA2        0.0000 
     29 N         -79.3000   25.3100  162.3800 N.am      2 ALA2        0.0000 
     30 N         -81.8400   25.7400  163.9000 N.am      2 ALA2        0.0000 
     31 N         -77.5800   24.0900  162.6400 N.am      2 ALA2        0.0000 
     32 N         -78.8500   24.3100  163.4100 N.am      2 ALA2        0.0000 
     33 N         -80.1200   24.5300  164.1700 N.am      2 ALA2        0.0000 
     34 N         -81.4000   24.7500  164.9300 N.am      2 ALA2        0.0000 
     35 N         -78.4000   23.3200  164.4400 N.am      2 ALA2        0.0000 
     36 N         -76.6800   22.1100  164.7000 N.am      2 ALA2        0.0000 
     37 N         -77.9600   22.3200  165.4700 N.am      2 ALA2        0.0000 
     38 N         -76.2400   21.1100  165.7300 N.am      2 ALA2        0.0000 
     39 N         -77.8900   29.9500  157.5100 N.am      2 ALA2        0.0000 
     40 N         -77.4400   28.9500  158.5400 N.am      2 ALA2        0.0000 
     41 N         -78.2700   28.1800  160.3300 N.am      2 ALA2        0.0000 
     42 N         -77.8200   27.1800  161.3600 N.am      2 ALA2        0.0000 
     43 N         -77.3700   26.1900  162.3900 N.am      2 ALA2        0.0000 
     44 N         -75.6500   24.9800  162.6600 N.am      2 ALA2        0.0000 
     45 N         -76.9200   25.2000  163.4200 N.am      2 ALA2        0.0000 
     46 N         -78.2000   25.4100  164.1800 N.am      2 ALA2        0.0000 
     47 O         -80.7400   25.8500  165.7100 O.2       2 ALA2        0.0000 
     48 N         -76.4800   24.2000  164.4500 N.am      2 ALA2        0.0000 
     49 O         -77.7500   24.4200  165.2200 O.2       2 ALA2        0.0000 
     50 N         -76.0300   23.2100  165.4800 N.am      2 ALA2        0.0000 
     51 N         -75.5800   22.2100  166.5100 N.am      2 ALA2        0.0000 
     52 N         -75.9600   30.8300  157.5200 N.am      2 ALA2        0.0000 
     53 N         -77.2300   31.0500  158.2800 N.am      2 ALA2        0.0000 
     54 N         -76.7900   30.0600  159.3100 N.am      2 ALA2        0.0000 
     55 N         -77.1600   28.2900  162.1400 N.am      2 ALA2        0.0000 
     56 O         -77.0900   25.5200  165.9900 O.2       2 ALA2        0.0000 
     57 N         -76.6400   24.5300  167.0200 N.am      2 ALA2        0.0000 
     58 N         -76.2000   23.5400  168.0500 N.am      2 ALA2        0.0000 
     59 N         -74.8600   30.9400  159.3300 N.am      2 ALA2        0.0000 
     60 N         -74.4100   29.9500  160.3600 N.am      2 ALA2        0.0000 
     61 OD1       -83.9800   22.7600  164.1400 O.co2     3 ASP3        0.0000 
     62 OD1       -85.2500   22.9800  164.9000 O.co2     3 ASP3        0.0000 
     63 OD1       -86.5300   23.2000  165.6700 O.co2     3 ASP3        0.0000 
     64 OD1       -83.3300   23.8700  164.9200 O.co2     3 ASP3        0.0000 
     65 OD1       -85.8700   24.3000  166.4500 O.co2     3 ASP3        0.0000 
     66 OD1       -81.6100   22.6500  165.1900 O.co2     3 ASP3        0.0000 
     67 OD1       -79.8800   21.4400  165.4500 O.co2     3 ASP3        0.0000 
     68 OD1       -82.6700   24.9700  165.7000 O.co2     3 ASP3        0.0000 
     69 OD1       -83.9400   25.1900  166.4600 O.co2     3 ASP3        0.0000 
     70 OD1       -85.2100   25.4000  167.2200 O.co2     3 ASP3        0.0000 
     71 OD1       -80.9500   23.7600  165.9600 O.co2     3 ASP3        0.0000 
     72 NZ        -88.9000   23.3100  164.6200 N.4       4 LYS4        0.0000 
     73 NZ        -83.6000   24.5300  161.3200 N.4       4 LYS4        0.0000 
     74 NZ        -83.1600   23.5400  162.3500 N.4       4 LYS4        0.0000 
     75 NZ        -84.4300   23.7600  163.1100 N.4       4 LYS4        0.0000 
     76 NZ        -85.7000   23.9800  163.8700 N.4       4 LYS4        0.0000 
     77 NZ        -86.9700   24.1900  164.6400 N.4       4 LYS4        0.0000 
     78 NZ        -83.7700   24.8600  163.8900 N.4       4 LYS4        0.0000 
     79 NZ        -85.0500   25.0800  164.6500 N.4       4 LYS4        0.0000 
     80 CZ        -81.3400   24.7600  156.1900 C.ar      5 PHE5        0.0000 
     81 CZ        -77.3100   26.2000  153.6400 C.ar      5 PHE5        0.0000 
     82 CZ        -78.5800   26.4200  154.4100 C.ar      5 PHE5        0.0000 
     83 CZ        -76.8600   25.2100  154.6800 C.ar      5 PHE5        0.0000 
     84 CZ        -78.1400   25.4300  155.4400 C.ar      5 PHE5        0.0000 
     85 CZ        -79.4100   25.6500  156.2000 C.ar      5 PHE5        0.0000 
     86 CZ        -82.3300   24.3100  160.5500 C.ar      5 PHE5        0.0000 
     87 CZ        -81.8800   23.3200  161.5800 C.ar      5 PHE5        0.0000 
     88 CZ        -81.4400   22.3300  162.6100 C.ar      5 PHE5        0.0000 
     89 CZ        -77.9300   27.5200  155.1900 C.ar      5 PHE5        0.0000 
     90 CZ        -78.7500   26.7500  156.9800 C.ar      5 PHE5        0.0000 
     91 CZ        -79.1300   24.9800  159.8000 C.ar      5 PHE5        0.0000 
     92 CZ        -78.6800   23.9900  160.8300 C.ar      5 PHE5        0.0000 
     93 CZ        -79.9600   24.2000  161.6000 C.ar      5 PHE5        0.0000 
     94 CZ        -79.5100   23.2100  162.6300 C.ar      5 PHE5        0.0000 
     95 CZ        -77.2000   25.8600  159.8200 C.ar      5 PHE5        0.0000 
     96 CZ        -76.7500   24.8700  160.8500 C.ar      5 PHE5        0.0000 
     97 CZ        -76.9900   27.9600  159.5700 C.ar      5 PHE5        0.0000 
     98 CZ        -76.5500   26.9700  160.6000 C.ar      5 PHE5        0.0000 
     99 CZ        -76.1000   25.9700  161.6300 C.ar      5 PHE5        0.0000 
    100 CZ        -74.6200   27.8500  160.6100 C.ar      5 PHE5        0.0000 
    101 CZ        -75.8900   28.0700  161.3700 C.ar      5 PHE5        0.0000 
    102 CZ        -74.1700   26.8600  161.6400 C.ar      5 PHE5        0.0000 
    103 CZ        -75.4400   27.0700  162.4100 C.ar      5 PHE5        0.0000 
    104 CZ        -76.7200   27.2900  163.1700 C.ar      5 PHE5        0.0000 
    105 CZ        -75.0000   26.0800  163.4400 C.ar      5 PHE5        0.0000 
    106 CZ        -76.2700   26.3000  164.2000 C.ar      5 PHE5        0.0000 
    107 CZ        -75.8200   25.3000  165.2300 C.ar      5 PHE5        0.0000 
    108 CZ        -75.3700   24.3100  166.2600 C.ar      5 PHE5        0.0000 
    109 CZ        -75.6800   30.1600  161.1200 C.ar      5 PHE5        0.0000 
    110 CZ        -73.9600   28.9500  161.3900 C.ar      5 PHE5        0.0000 
    111 CZ        -75.2300   29.1700  162.1500 C.ar      5 PHE5        0.0000 
    112 CA        -80.5100   25.5400  154.3900 C.3       6 GLY6        0.0000 
    113 CA        -77.5200   24.1100  153.9000 C.3       6 GLY6        0.0000 
    114 CA        -78.7900   24.3300  154.6600 C.3       6 GLY6        0.0000 
    115 CA        -80.0700   24.5400  155.4200 C.3       6 GLY6        0.0000 
    116 CA        -88.4500   22.3200  165.6500 C.3       6 GLY6        0.0000 
    117 CA        -80.3000   27.6300  154.1400 C.3       6 GLY6        0.0000 
    118 CA        -75.5900   24.9900  153.9100 C.3       6 GLY6        0.0000 
    119 CA        -84.0500   25.5300  160.2900 C.3       6 GLY6        0.0000 
    120 CA        -88.2500   24.4100  165.4000 C.3       6 GLY6        0.0000 
    121 CA        -87.8000   23.4200  166.4300 C.3       6 GLY6        0.0000 
    122 CA        -79.6500   28.7400  154.9200 C.3       6 GLY6        0.0000 
    123 CA        -84.2200   25.8500  162.8600 C.3       6 GLY6        0.0000 
    124 CA        -86.3200   25.3000  165.4200 C.3       6 GLY6        0.0000 
    125 CA        -87.5900   25.5100  166.1800 C.3       6 GLY6        0.0000 
    126 CA        -83.1200   25.9600  164.6700 C.3       6 GLY6        0.0000 
    127 CA        -84.3900   26.1800  165.4300 C.3       6 GLY6        0.0000 
    128 CA        -85.6600   26.4000  166.1900 C.3       6 GLY6        0.0000 
    129 CA        -79.6800   23.5400  165.2000 C.3       6 GLY6        0.0000 
    130 CA        -79.2300   22.5400  166.2300 C.3       6 GLY6        0.0000 
    131 CA        -83.7300   27.2800  166.2100 C.3       6 GLY6        0.0000 
    132 CA        -82.0100   26.0700  166.4800 C.3       6 GLY6        0.0000 
    133 CA        -79.0200   24.6400  165.9800 C.3       6 GLY6        0.0000 
    134 CA        -77.3000   23.4300  166.2500 C.3       6 GLY6        0.0000 
    135 CA        -78.1300   22.6500  168.0400 C.3       6 GLY6        0.0000 
    136 CA        -78.0600   30.2700  160.0800 C.3       6 GLY6        0.0000 
    137 DU        -79.0300   27.4200  153.3800 H         7 CUB7        0.0000 
    138 DU        -82.7100   22.5500  163.3800 H         7 CUB7        0.0000 
    139 DU        -77.1000   28.3000  153.3900 H         7 CUB7        0.0000 
    140 DU        -78.3800   28.5200  154.1600 H         7 CUB7        0.0000 
    141 DU        -80.7800   23.4300  163.3900 H         7 CUB7        0.0000 
    142 DU        -82.0500   23.6500  164.1600 H         7 CUB7        0.0000 
    143 DU        -80.3300   22.4400  164.4200 H         7 CUB7        0.0000 
@<TRIPOS>BOND
@<TRIPOS>SUBSTRUCTURE
     1 SER1        1 GROUP   
     2 ALA2       14 GROUP   
     3 ASP3       61 GROUP   
     4 LYS4       72 GROUP   
     5 PHE5       80 GROUP   
     6 GLY6      112 GROUP   
     7 CUB7      137 GROUP   
@<TRIPOS>SET

