#    Name: 6se3_6_NAP
#    Modification time : Fri May 22 19:34:05 2020

@<TRIPOS>MOLECULE
6se3_6_NAP
   48    52     1     0     1
SMALL
NO_CHARGES


@<TRIPOS>ATOM
      1 PA        -96.8750  -15.5600   22.5290 P.3       1 NAP602      0.0000 
      2 O1A       -98.3390  -15.8850   22.5830 O.co2     1 NAP602      0.0000 
      3 O2A       -95.8790  -16.1540   23.4220 O.co2     1 NAP602      0.0000 
      4 O5B       -96.5560  -14.0260   22.6110 O.3       1 NAP602      0.0000 
      5 C5B       -97.0490  -13.0880   21.6810 C.3       1 NAP602      0.0000 
      6 C4B       -96.2130  -11.8090   21.8750 C.3       1 NAP602      0.0000 
      7 O4B       -96.7490  -10.7690   21.0550 O.3       1 NAP602      0.0000 
      8 C3B       -96.2280  -11.2560   23.2910 C.3       1 NAP602      0.0000 
      9 O3B       -95.0690  -10.4610   23.5120 O.3       1 NAP602      0.0000 
     10 C2B       -97.4140  -10.3220   23.3130 C.3       1 NAP602      0.0000 
     11 O2B       -97.2710   -9.2740   24.2990 O.3       1 NAP602      0.0000 
     12 C1B       -97.3670   -9.7820   21.8870 C.3       1 NAP602      0.0000 
     13 N9A       -98.7260   -9.3550   21.4710 N.pl3     1 NAP602      0.0000 
     14 C8A       -99.8810  -10.0610   21.4410 C.2       1 NAP602      0.0000 
     15 N7A      -100.8710   -9.2490   21.0040 N.2       1 NAP602      0.0000 
     16 C5A      -100.3310   -8.0230   20.7780 C.ar      1 NAP602      0.0000 
     17 C6A      -100.7660   -6.6880   20.3330 C.ar      1 NAP602      0.0000 
     18 N6A      -102.0400   -6.4980   20.0320 N.pl3     1 NAP602      0.0000 
     19 N1A       -99.8910   -5.6640   20.2060 N.ar      1 NAP602      0.0000 
     20 C2A       -98.6000   -5.8340   20.5160 C.ar      1 NAP602      0.0000 
     21 N3A       -98.1200   -7.0230   20.9250 N.ar      1 NAP602      0.0000 
     22 C4A       -98.9200   -8.1100   21.0770 C.ar      1 NAP602      0.0000 
     23 O3        -96.5970  -16.0620   21.0400 O.3       1 NAP602      0.0000 
     24 PN        -95.3100  -16.8150   20.4840 P.3       1 NAP602      0.0000 
     25 O1N       -94.2020  -15.7580   20.6400 O.co2     1 NAP602      0.0000 
     26 O2N       -95.7030  -17.2750   19.1180 O.co2     1 NAP602      0.0000 
     27 O5D       -95.2720  -18.0960   21.4250 O.3       1 NAP602      0.0000 
     28 C5D       -96.3900  -18.9490   21.5060 C.3       1 NAP602      0.0000 
     29 C4D       -96.0040  -20.2780   22.1670 C.3       1 NAP602      0.0000 
     30 O4D       -95.1820  -21.1140   21.3370 O.3       1 NAP602      0.0000 
     31 C3D       -95.2730  -20.0360   23.4480 C.3       1 NAP602      0.0000 
     32 O3D       -95.6590  -20.9930   24.4130 O.3       1 NAP602      0.0000 
     33 C2D       -93.8760  -20.3030   23.0880 C.3       1 NAP602      0.0000 
     34 O2D       -93.1730  -20.7740   24.2210 O.3       1 NAP602      0.0000 
     35 C1D       -93.9500  -21.3590   21.9920 C.3       1 NAP602      0.0000 
     36 N1N       -92.7200  -21.1790   21.1880 N.pl3     1 NAP602      0.0000 
     37 C2N       -91.6490  -21.9190   21.5090 C.ar      1 NAP602      0.0000 
     38 C3N       -90.4760  -21.7530   20.7820 C.ar      1 NAP602      0.0000 
     39 C7N       -89.2690  -22.5310   21.1380 C.2       1 NAP602      0.0000 
     40 O7N       -88.2410  -21.8310   21.1990 O.2       1 NAP602      0.0000 
     41 N7N       -89.3700  -23.8320   21.4390 N.am      1 NAP602      0.0000 
     42 C4N       -90.3730  -20.7890   19.7900 C.ar      1 NAP602      0.0000 
     43 C5N       -91.4900  -20.0310   19.4940 C.ar      1 NAP602      0.0000 
     44 C6N       -92.6530  -20.2350   20.2180 C.ar      1 NAP602      0.0000 
     45 P2B       -98.0000   -9.2640   25.7480 P.3       1 NAP602      0.0000 
     46 O1X       -97.1960  -10.0420   26.7700 O.co2     1 NAP602      0.0000 
     47 O2X       -98.1050   -7.7900   26.1140 O.co2     1 NAP602      0.0000 
     48 O3X       -99.2340  -10.0040   25.2790 O.co2     1 NAP602      0.0000 
@<TRIPOS>BOND
     1    1    2 ar   
     2    1    3 ar   
     3    1    4 1    
     4    1   23 1    
     5    4    5 1    
     6    5    6 1    
     7    6    7 1    
     8    6    8 1    
     9    7   12 1    
    10    8    9 1    
    11    8   10 1    
    12   10   11 1    
    13   10   12 1    
    14   11   45 1    
    15   12   13 1    
    16   13   14 1    
    17   13   22 1    
    18   14   15 2    
    19   15   16 1    
    20   16   17 ar   
    21   16   22 ar   
    22   17   18 1    
    23   17   19 ar   
    24   19   20 ar   
    25   20   21 ar   
    26   21   22 ar   
    27   23   24 1    
    28   24   25 ar   
    29   24   26 ar   
    30   24   27 1    
    31   27   28 1    
    32   28   29 1    
    33   29   30 1    
    34   29   31 1    
    35   30   35 1    
    36   31   32 1    
    37   31   33 1    
    38   33   34 1    
    39   33   35 1    
    40   35   36 1    
    41   36   37 ar   
    42   36   44 ar   
    43   37   38 ar   
    44   38   39 1    
    45   38   42 ar   
    46   39   40 2    
    47   39   41 am   
    48   42   43 ar   
    49   43   44 ar   
    50   45   46 ar   
    51   45   47 ar   
    52   45   48 ar   
@<TRIPOS>SUBSTRUCTURE
     1 NAP602      1 GROUP   
@<TRIPOS>SET
ATOM$ORANGE STATIC     ATOMS   COLORGROUP SYSTEM 
42 5 5 6 6 8 8 10 10 12 12 14 14 16 16 17 17 20 \
20 22 22 28 28 29 29 31 31 33 33 35 35 37 37 38 38 39 \
39 42 42 43 43 44 44 

