#    Name: 6se3_2_NAP
#    Modification time : Fri May 22 19:33:36 2020

@<TRIPOS>MOLECULE
6se3_2_NAP
   48    52     1     0     1
SMALL
NO_CHARGES


@<TRIPOS>ATOM
      1 PA         -7.0230   11.1080  -20.0080 P.3       1 NAP602      0.0000 
      2 O1A        -6.0010   12.2000  -20.0190 O.co2     1 NAP602      0.0000 
      3 O2A        -6.7730    9.8900  -20.8730 O.co2     1 NAP602      0.0000 
      4 O5B        -8.5270   11.6670  -20.1600 O.3       1 NAP602      0.0000 
      5 C5B        -9.1350   12.4640  -19.1610 C.3       1 NAP602      0.0000 
      6 C4B       -10.5130   12.7620  -19.7060 C.3       1 NAP602      0.0000 
      7 O4B       -11.2670   13.6300  -18.8420 O.3       1 NAP602      0.0000 
      8 C3B       -10.3930   13.4540  -21.0520 C.3       1 NAP602      0.0000 
      9 O3B       -11.0600   12.6970  -22.0940 O.3       1 NAP602      0.0000 
     10 C2B       -10.9570   14.8530  -20.7740 C.3       1 NAP602      0.0000 
     11 O2B       -11.6820   15.3280  -21.9040 O.3       1 NAP602      0.0000 
     12 C1B       -11.7980   14.7760  -19.5060 C.3       1 NAP602      0.0000 
     13 N9A       -11.7270   15.9800  -18.5950 N.pl3     1 NAP602      0.0000 
     14 C8A       -10.6470   16.6230  -18.0300 C.2       1 NAP602      0.0000 
     15 N7A       -11.0840   17.6720  -17.2450 N.2       1 NAP602      0.0000 
     16 C5A       -12.4440   17.7100  -17.3050 C.ar      1 NAP602      0.0000 
     17 C6A       -13.5870   18.5150  -16.7570 C.ar      1 NAP602      0.0000 
     18 N6A       -13.4000   19.5720  -15.9280 N.pl3     1 NAP602      0.0000 
     19 N1A       -14.8770   18.1940  -17.0990 N.ar      1 NAP602      0.0000 
     20 C2A       -15.1680   17.1600  -17.9140 C.ar      1 NAP602      0.0000 
     21 N3A       -14.1760   16.3840  -18.4330 N.ar      1 NAP602      0.0000 
     22 C4A       -12.8450   16.5970  -18.1840 C.ar      1 NAP602      0.0000 
     23 O3         -7.1310   10.6870  -18.4800 O.3       1 NAP602      0.0000 
     24 PN         -7.6210    9.2070  -18.1590 P.3       1 NAP602      0.0000 
     25 O1N        -9.0660    9.0600  -18.7070 O.co2     1 NAP602      0.0000 
     26 O2N        -7.4430    9.1970  -16.6240 O.co2     1 NAP602      0.0000 
     27 O5D        -6.5060    8.3770  -19.0890 O.3       1 NAP602      0.0000 
     28 C5D        -5.0980    8.4650  -18.9370 C.3       1 NAP602      0.0000 
     29 C4D        -4.2110    8.0230  -20.1180 C.3       1 NAP602      0.0000 
     30 O4D        -3.3580    6.9340  -19.7110 O.3       1 NAP602      0.0000 
     31 C3D        -4.8830    7.4940  -21.3680 C.3       1 NAP602      0.0000 
     32 O3D        -5.0850    8.5330  -22.2970 O.3       1 NAP602      0.0000 
     33 C2D        -3.9410    6.4060  -21.9060 C.3       1 NAP602      0.0000 
     34 O2D        -2.7920    6.8070  -22.6910 O.3       1 NAP602      0.0000 
     35 C1D        -3.4860    5.7930  -20.5900 C.3       1 NAP602      0.0000 
     36 N1N        -4.4990    4.7730  -20.1660 N.pl3     1 NAP602      0.0000 
     37 C2N        -4.4260    3.5170  -20.6890 C.ar      1 NAP602      0.0000 
     38 C3N        -5.3530    2.5100  -20.3510 C.ar      1 NAP602      0.0000 
     39 C7N        -5.2850    1.1340  -20.9200 C.2       1 NAP602      0.0000 
     40 O7N        -6.3410    0.5310  -20.9720 O.2       1 NAP602      0.0000 
     41 N7N        -4.1360    0.5870  -21.3610 N.am      1 NAP602      0.0000 
     42 C4N        -6.3960    2.8140  -19.4800 C.ar      1 NAP602      0.0000 
     43 C5N        -6.4890    4.1070  -18.9510 C.ar      1 NAP602      0.0000 
     44 C6N        -5.5290    5.0670  -19.3110 C.ar      1 NAP602      0.0000 
     45 P2B       -10.8370   15.7380  -23.2180 P.3       1 NAP602      0.0000 
     46 O1X       -10.8830   14.5170  -24.1130 O.co2     1 NAP602      0.0000 
     47 O2X       -11.6900   16.9370  -23.6130 O.co2     1 NAP602      0.0000 
     48 O3X        -9.3970   15.9740  -22.7780 O.co2     1 NAP602      0.0000 
@<TRIPOS>BOND
     1    1    2 ar   
     2    1    3 ar   
     3    1    4 1    
     4    1   23 1    
     5    4    5 1    
     6    5    6 1    
     7    6    7 1    
     8    6    8 1    
     9    7   12 1    
    10    8    9 1    
    11    8   10 1    
    12   10   11 1    
    13   10   12 1    
    14   11   45 1    
    15   12   13 1    
    16   13   14 1    
    17   13   22 1    
    18   14   15 2    
    19   15   16 1    
    20   16   17 ar   
    21   16   22 ar   
    22   17   18 1    
    23   17   19 ar   
    24   19   20 ar   
    25   20   21 ar   
    26   21   22 ar   
    27   23   24 1    
    28   24   25 ar   
    29   24   26 ar   
    30   24   27 1    
    31   27   28 1    
    32   28   29 1    
    33   29   30 1    
    34   29   31 1    
    35   30   35 1    
    36   31   32 1    
    37   31   33 1    
    38   33   34 1    
    39   33   35 1    
    40   35   36 1    
    41   36   37 ar   
    42   36   44 ar   
    43   37   38 ar   
    44   38   39 1    
    45   38   42 ar   
    46   39   40 2    
    47   39   41 am   
    48   42   43 ar   
    49   43   44 ar   
    50   45   46 ar   
    51   45   47 ar   
    52   45   48 ar   
@<TRIPOS>SUBSTRUCTURE
     1 NAP602      1 GROUP   
@<TRIPOS>SET
ATOM$ORANGE STATIC     ATOMS   COLORGROUP SYSTEM 
42 5 5 6 6 8 8 10 10 12 12 14 14 16 16 17 17 20 \
20 22 22 28 28 29 29 31 31 33 33 35 35 37 37 38 38 39 \
39 42 42 43 43 44 44 

