#    Name: 6se3_10_NAP
#    Modification time : Fri May 22 19:34:33 2020

@<TRIPOS>MOLECULE
6se3_10_NAP
   48    52     1     0     1
SMALL
NO_CHARGES


@<TRIPOS>ATOM
      1 PA        -25.5710  -25.4820  -26.5960 P.3       1 NAP602      0.0000 
      2 O1A       -26.1320  -26.8030  -27.0270 O.co2     1 NAP602      0.0000 
      3 O2A       -25.8780  -24.1360  -27.2760 O.co2     1 NAP602      0.0000 
      4 O5B       -24.0170  -25.6390  -26.8110 O.3       1 NAP602      0.0000 
      5 C5B       -23.3590  -26.8440  -26.4670 C.3       1 NAP602      0.0000 
      6 C4B       -21.8710  -26.6980  -26.7680 C.3       1 NAP602      0.0000 
      7 O4B       -21.3110  -27.7890  -26.0530 O.3       1 NAP602      0.0000 
      8 C3B       -21.5480  -26.8130  -28.2790 C.3       1 NAP602      0.0000 
      9 O3B       -20.4380  -25.9680  -28.7350 O.3       1 NAP602      0.0000 
     10 C2B       -21.3780  -28.3250  -28.3640 C.3       1 NAP602      0.0000 
     11 O2B       -20.6140  -28.8340  -29.4280 O.3       1 NAP602      0.0000 
     12 C1B       -20.6990  -28.6030  -27.0520 C.3       1 NAP602      0.0000 
     13 N9A       -20.7930  -30.0120  -26.7310 N.pl3     1 NAP602      0.0000 
     14 C8A       -21.8960  -30.7400  -26.5710 C.2       1 NAP602      0.0000 
     15 N7A       -21.5580  -31.9990  -26.2780 N.2       1 NAP602      0.0000 
     16 C5A       -20.2240  -32.0500  -26.2550 C.ar      1 NAP602      0.0000 
     17 C6A       -19.2240  -33.0780  -26.0200 C.ar      1 NAP602      0.0000 
     18 N6A       -19.6470  -34.3270  -25.7400 N.pl3     1 NAP602      0.0000 
     19 N1A       -17.9280  -32.7040  -26.0820 N.ar      1 NAP602      0.0000 
     20 C2A       -17.5040  -31.4500  -26.3560 C.ar      1 NAP602      0.0000 
     21 N3A       -18.3680  -30.4600  -26.5920 N.ar      1 NAP602      0.0000 
     22 C4A       -19.7070  -30.7230  -26.5490 C.ar      1 NAP602      0.0000 
     23 O3        -25.6750  -25.3440  -24.9940 O.3       1 NAP602      0.0000 
     24 PN        -25.5630  -23.9130  -24.2460 P.3       1 NAP602      0.0000 
     25 O1N       -24.2410  -23.2210  -24.6070 O.co2     1 NAP602      0.0000 
     26 O2N       -25.7400  -24.2870  -22.7810 O.co2     1 NAP602      0.0000 
     27 O5D       -26.8070  -23.1870  -24.9100 O.3       1 NAP602      0.0000 
     28 C5D       -28.1950  -23.5930  -24.8370 C.3       1 NAP602      0.0000 
     29 C4D       -29.2230  -22.5310  -25.3940 C.3       1 NAP602      0.0000 
     30 O4D       -29.3960  -21.3610  -24.5520 O.3       1 NAP602      0.0000 
     31 C3D       -28.8530  -21.9240  -26.7310 C.3       1 NAP602      0.0000 
     32 O3D       -29.9950  -21.8000  -27.5370 O.3       1 NAP602      0.0000 
     33 C2D       -28.3050  -20.5430  -26.4420 C.3       1 NAP602      0.0000 
     34 O2D       -28.5710  -19.5550  -27.3840 O.3       1 NAP602      0.0000 
     35 C1D       -29.0820  -20.1410  -25.2550 C.3       1 NAP602      0.0000 
     36 N1N       -28.2450  -19.2380  -24.5020 N.pl3     1 NAP602      0.0000 
     37 C2N       -28.3470  -17.9060  -24.6900 C.ar      1 NAP602      0.0000 
     38 C3N       -27.5560  -17.0230  -23.9140 C.ar      1 NAP602      0.0000 
     39 C7N       -27.5960  -15.5270  -24.0460 C.2       1 NAP602      0.0000 
     40 O7N       -26.5020  -14.9250  -24.0650 O.2       1 NAP602      0.0000 
     41 N7N       -28.8170  -14.9530  -24.1020 N.am      1 NAP602      0.0000 
     42 C4N       -26.6850  -17.5490  -22.9640 C.ar      1 NAP602      0.0000 
     43 C5N       -26.6110  -18.9280  -22.8100 C.ar      1 NAP602      0.0000 
     44 C6N       -27.4090  -19.7620  -23.5910 C.ar      1 NAP602      0.0000 
     45 P2B       -21.3320  -29.2810  -30.8050 P.3       1 NAP602      0.0000 
     46 O1X       -21.6150  -27.9750  -31.5230 O.co2     1 NAP602      0.0000 
     47 O2X       -20.3980  -30.2110  -31.6220 O.co2     1 NAP602      0.0000 
     48 O3X       -22.5330  -30.0060  -30.2150 O.co2     1 NAP602      0.0000 
@<TRIPOS>BOND
     1    1    2 ar   
     2    1    3 ar   
     3    1    4 1    
     4    1   23 1    
     5    4    5 1    
     6    5    6 1    
     7    6    7 1    
     8    6    8 1    
     9    7   12 1    
    10    8    9 1    
    11    8   10 1    
    12   10   11 1    
    13   10   12 1    
    14   11   45 1    
    15   12   13 1    
    16   13   14 1    
    17   13   22 1    
    18   14   15 2    
    19   15   16 1    
    20   16   17 ar   
    21   16   22 ar   
    22   17   18 1    
    23   17   19 ar   
    24   19   20 ar   
    25   20   21 ar   
    26   21   22 ar   
    27   23   24 1    
    28   24   25 ar   
    29   24   26 ar   
    30   24   27 1    
    31   27   28 1    
    32   28   29 1    
    33   29   30 1    
    34   29   31 1    
    35   30   35 1    
    36   31   32 1    
    37   31   33 1    
    38   33   34 1    
    39   33   35 1    
    40   35   36 1    
    41   36   37 ar   
    42   36   44 ar   
    43   37   38 ar   
    44   38   39 1    
    45   38   42 ar   
    46   39   40 2    
    47   39   41 am   
    48   42   43 ar   
    49   43   44 ar   
    50   45   46 ar   
    51   45   47 ar   
    52   45   48 ar   
@<TRIPOS>SUBSTRUCTURE
     1 NAP602      1 GROUP   
@<TRIPOS>SET
ATOM$ORANGE STATIC     ATOMS   COLORGROUP SYSTEM 
42 5 5 6 6 8 8 10 10 12 12 14 14 16 16 17 17 20 \
20 22 22 28 28 29 29 31 31 33 33 35 35 37 37 38 38 39 \
39 42 42 43 43 44 44 

