#    Name: 6se3_8_NAP
#    Modification time : Fri May 22 19:34:19 2020

@<TRIPOS>MOLECULE
6se3_8_NAP
   48    52     1     0     1
SMALL
NO_CHARGES


@<TRIPOS>ATOM
      1 PA        -52.6940  -27.8260   96.1090 P.3       1 NAP602      0.0000 
      2 O1A       -51.8060  -29.0700   95.9900 O.co2     1 NAP602      0.0000 
      3 O2A       -53.8910  -27.6950   95.1880 O.co2     1 NAP602      0.0000 
      4 O5B       -51.7670  -26.5560   95.9050 O.3       1 NAP602      0.0000 
      5 C5B       -50.3720  -26.5610   96.2390 C.3       1 NAP602      0.0000 
      6 C4B       -49.8140  -25.2180   95.7640 C.3       1 NAP602      0.0000 
      7 O4B       -48.5250  -24.9460   96.3040 O.3       1 NAP602      0.0000 
      8 C3B       -49.6790  -25.2450   94.2590 C.3       1 NAP602      0.0000 
      9 O3B       -49.8140  -23.8990   93.7310 O.3       1 NAP602      0.0000 
     10 C2B       -48.3070  -25.8260   94.1270 C.3       1 NAP602      0.0000 
     11 O2B       -47.8680  -25.4030   92.8720 O.3       1 NAP602      0.0000 
     12 C1B       -47.5610  -25.1470   95.2660 C.3       1 NAP602      0.0000 
     13 N9A       -46.3970  -25.9040   95.7980 N.pl3     1 NAP602      0.0000 
     14 C8A       -46.3590  -27.2000   96.1820 C.2       1 NAP602      0.0000 
     15 N7A       -45.1470  -27.5310   96.6610 N.2       1 NAP602      0.0000 
     16 C5A       -44.3870  -26.4230   96.5640 C.ar      1 NAP602      0.0000 
     17 C6A       -42.9770  -26.0550   96.8610 C.ar      1 NAP602      0.0000 
     18 N6A       -42.1520  -26.9960   97.3480 N.pl3     1 NAP602      0.0000 
     19 N1A       -42.5740  -24.7760   96.6300 N.ar      1 NAP602      0.0000 
     20 C2A       -43.4070  -23.8320   96.1260 C.ar      1 NAP602      0.0000 
     21 N3A       -44.6960  -24.0950   95.8190 N.ar      1 NAP602      0.0000 
     22 C4A       -45.2230  -25.3450   96.0140 C.ar      1 NAP602      0.0000 
     23 O3        -53.1640  -27.7600   97.6670 O.3       1 NAP602      0.0000 
     24 PN        -54.2460  -26.8060   98.3760 P.3       1 NAP602      0.0000 
     25 O1N       -54.0180  -25.3170   97.9700 O.co2     1 NAP602      0.0000 
     26 O2N       -54.1040  -27.1270   99.8580 O.co2     1 NAP602      0.0000 
     27 O5D       -55.5150  -27.5320   97.7460 O.3       1 NAP602      0.0000 
     28 C5D       -55.7560  -28.9260   97.9160 C.3       1 NAP602      0.0000 
     29 C4D       -57.1740  -29.3780   97.4580 C.3       1 NAP602      0.0000 
     30 O4D       -58.2090  -28.9460   98.3630 O.3       1 NAP602      0.0000 
     31 C3D       -57.5160  -28.8610   96.0650 C.3       1 NAP602      0.0000 
     32 O3D       -58.1830  -29.8080   95.2260 O.3       1 NAP602      0.0000 
     33 C2D       -58.4350  -27.7280   96.3670 C.3       1 NAP602      0.0000 
     34 O2D       -59.3180  -27.4990   95.2600 O.3       1 NAP602      0.0000 
     35 C1D       -59.1290  -28.1190   97.6770 C.3       1 NAP602      0.0000 
     36 N1N       -59.4930  -26.8430   98.3030 N.pl3     1 NAP602      0.0000 
     37 C2N       -60.7340  -26.3910   98.0550 C.ar      1 NAP602      0.0000 
     38 C3N       -61.1710  -25.1640   98.5340 C.ar      1 NAP602      0.0000 
     39 C7N       -62.5590  -24.7540   98.2600 C.2       1 NAP602      0.0000 
     40 O7N       -62.8390  -23.5740   98.1220 O.2       1 NAP602      0.0000 
     41 N7N       -63.4820  -25.6990   98.1630 N.am      1 NAP602      0.0000 
     42 C4N       -60.3130  -24.3380   99.2420 C.ar      1 NAP602      0.0000 
     43 C5N       -59.0110  -24.8000   99.4550 C.ar      1 NAP602      0.0000 
     44 C6N       -58.6190  -26.0650   98.9540 C.ar      1 NAP602      0.0000 
     45 P2B       -47.5650  -26.3810   91.6540 P.3       1 NAP602      0.0000 
     46 O1X       -48.8660  -26.6100   90.8750 O.co2     1 NAP602      0.0000 
     47 O2X       -46.5090  -25.5730   90.8850 O.co2     1 NAP602      0.0000 
     48 O3X       -47.0870  -27.5850   92.4740 O.co2     1 NAP602      0.0000 
@<TRIPOS>BOND
     1    1    2 ar   
     2    1    3 ar   
     3    1    4 1    
     4    1   23 1    
     5    4    5 1    
     6    5    6 1    
     7    6    7 1    
     8    6    8 1    
     9    7   12 1    
    10    8    9 1    
    11    8   10 1    
    12   10   11 1    
    13   10   12 1    
    14   11   45 1    
    15   12   13 1    
    16   13   14 1    
    17   13   22 1    
    18   14   15 2    
    19   15   16 1    
    20   16   17 ar   
    21   16   22 ar   
    22   17   18 1    
    23   17   19 ar   
    24   19   20 ar   
    25   20   21 ar   
    26   21   22 ar   
    27   23   24 1    
    28   24   25 ar   
    29   24   26 ar   
    30   24   27 1    
    31   27   28 1    
    32   28   29 1    
    33   29   30 1    
    34   29   31 1    
    35   30   35 1    
    36   31   32 1    
    37   31   33 1    
    38   33   34 1    
    39   33   35 1    
    40   35   36 1    
    41   36   37 ar   
    42   36   44 ar   
    43   37   38 ar   
    44   38   39 1    
    45   38   42 ar   
    46   39   40 2    
    47   39   41 am   
    48   42   43 ar   
    49   43   44 ar   
    50   45   46 ar   
    51   45   47 ar   
    52   45   48 ar   
@<TRIPOS>SUBSTRUCTURE
     1 NAP602      1 GROUP   
@<TRIPOS>SET
ATOM$ORANGE STATIC     ATOMS   COLORGROUP SYSTEM 
42 5 5 6 6 8 8 10 10 12 12 14 14 16 16 17 17 20 \
20 22 22 28 28 29 29 31 31 33 33 35 35 37 37 38 38 39 \
39 42 42 43 43 44 44 

