#    Name: 6se3_12_NAP_CAVITY_N1_12
#    Modification time : Fri May 22 19:34:50 2020

@<TRIPOS>MOLECULE
6se3_12_NAP_CAVITY_N1_12
  107     0     6     0     0
SMALL
NO_CHARGES


@<TRIPOS>ATOM
      1 OG        -57.9600  -18.5200   14.1000 O.3       1 SER1        0.0000 
      2 OG        -57.3300  -17.2600   13.6100 O.3       1 SER1        0.0000 
      3 OG        -57.3700  -18.2800   15.4600 O.3       1 SER1        0.0000 
      4 OG        -59.2000  -15.4900   15.7500 O.3       1 SER1        0.0000 
      5 OG        -57.9700  -16.2500   15.3600 O.3       1 SER1        0.0000 
      6 OG        -56.7400  -17.0100   14.9700 O.3       1 SER1        0.0000 
      7 OG        -57.3500  -14.9800   14.8700 O.3       1 SER1        0.0000 
      8 OG        -56.1500  -11.2000   16.9900 O.3       1 SER1        0.0000 
      9 OG        -56.1700   -8.9300   18.2500 O.3       1 SER1        0.0000 
     10 OG        -56.8100   -7.9200   20.0000 O.3       1 SER1        0.0000 
     11 OG        -55.5800   -8.6900   19.6100 O.3       1 SER1        0.0000 
     12 OG        -51.3700  -17.3300   20.9900 O.3       1 SER1        0.0000 
     13 OG        -50.1400  -18.1000   20.5900 O.3       1 SER1        0.0000 
     14 OG        -50.7400  -16.0700   20.4900 O.3       1 SER1        0.0000 
     15 OG        -51.4100  -18.3600   22.8400 O.3       1 SER1        0.0000 
     16 O         -58.6000  -17.5200   15.8600 O.2       2 ALA2        0.0000 
     17 O         -54.9600  -20.8400   16.5300 O.2       2 ALA2        0.0000 
     18 O         -58.0200  -17.2800   17.2200 O.2       2 ALA2        0.0000 
     19 N         -60.4500  -12.4500   17.4000 N.am      2 ALA2        0.0000 
     20 O         -57.4400  -17.0400   18.5800 O.2       2 ALA2        0.0000 
     21 O         -59.2700  -14.2400   18.8700 O.2       2 ALA2        0.0000 
     22 N         -56.1800  -14.5000   17.5900 N.am      2 ALA2        0.0000 
     23 N         -59.2400  -10.9400   18.2700 N.am      2 ALA2        0.0000 
     24 N         -56.7800  -12.4700   17.4900 N.am      2 ALA2        0.0000 
     25 N         -54.3600  -15.0200   18.5600 N.am      2 ALA2        0.0000 
     26 O         -58.6600  -10.7000   19.6300 O.2       2 ALA2        0.0000 
     27 O         -59.2600   -8.6700   19.5300 O.2       2 ALA2        0.0000 
     28 O         -58.0300   -9.4300   19.1400 O.2       2 ALA2        0.0000 
     29 N         -55.5700  -10.9600   18.3500 N.am      2 ALA2        0.0000 
     30 O         -59.9300  -10.9700   21.8800 O.2       2 ALA2        0.0000 
     31 N         -53.7800  -14.7800   19.9200 N.am      2 ALA2        0.0000 
     32 N         -52.5500  -15.5400   19.5200 N.am      2 ALA2        0.0000 
     33 O         -59.3000   -9.7000   21.3800 O.2       2 ALA2        0.0000 
     34 O         -58.6700   -8.4300   20.8900 O.2       2 ALA2        0.0000 
     35 N         -58.7200   -9.4600   22.7400 N.am      2 ALA2        0.0000 
     36 N         -57.4900  -10.2200   22.3500 N.am      2 ALA2        0.0000 
     37 N         -51.3400  -14.0300   20.3900 N.am      2 ALA2        0.0000 
     38 N         -58.0900   -8.1900   22.2500 N.am      2 ALA2        0.0000 
     39 N         -56.8600   -8.9500   21.8600 N.am      2 ALA2        0.0000 
     40 N         -55.0000   -8.4400   20.9700 N.am      2 ALA2        0.0000 
     41 O         -52.6400  -17.6000   23.2300 O.2       2 ALA2        0.0000 
     42 NZ        -58.0400  -15.0100   18.4700 N.4       3 LYS4        0.0000 
     43 NZ        -56.8100  -15.7700   18.0800 N.4       3 LYS4        0.0000 
     44 NZ        -58.6400  -12.9700   18.3700 N.4       3 LYS4        0.0000 
     45 NZ        -57.4100  -13.7400   17.9800 N.4       3 LYS4        0.0000 
     46 NZ        -58.0100  -11.7100   17.8800 N.4       3 LYS4        0.0000 
     47 NZ        -56.8500  -16.8000   19.9400 N.4       3 LYS4        0.0000 
     48 NZ        -56.2200  -15.5300   19.4400 N.4       3 LYS4        0.0000 
     49 NZ        -55.5900  -14.2600   18.9500 N.4       3 LYS4        0.0000 
     50 NZ        -57.4300  -11.4600   19.2400 N.4       3 LYS4        0.0000 
     51 NZ        -56.2000  -12.2300   18.8500 N.4       3 LYS4        0.0000 
     52 NZ        -54.4100  -16.0500   20.4100 N.4       3 LYS4        0.0000 
     53 NZ        -58.0700  -10.4600   20.9900 N.4       3 LYS4        0.0000 
     54 NZ        -53.2000  -14.5400   21.2800 N.4       3 LYS4        0.0000 
     55 CZ        -56.1200  -15.7500   14.4700 C.ar      4 PHE5        0.0000 
     56 CZ        -55.5300  -15.5000   15.8300 C.ar      4 PHE5        0.0000 
     57 CZ        -57.3600  -12.7100   16.1200 C.ar      4 PHE5        0.0000 
     58 CZ        -54.9500  -15.2600   17.2000 C.ar      4 PHE5        0.0000 
     59 CZ        -55.5500  -13.2300   17.0900 C.ar      4 PHE5        0.0000 
     60 CZ        -59.3500  -10.7200   23.2400 C.ar      4 PHE5        0.0000 
     61 CA        -56.1400  -19.0500   15.0700 C.3       5 GLY6        0.0000 
     62 CA        -55.5100  -17.7800   14.5800 C.3       5 GLY6        0.0000 
     63 CA        -57.4200  -19.3100   17.3200 C.3       5 GLY6        0.0000 
     64 CA        -56.1900  -20.0700   16.9300 C.3       5 GLY6        0.0000 
     65 CA        -59.2500  -16.5200   17.6100 C.3       5 GLY6        0.0000 
     66 CA        -55.5600  -18.8000   16.4300 C.3       5 GLY6        0.0000 
     67 CA        -54.3300  -19.5700   16.0400 C.3       5 GLY6        0.0000 
     68 CA        -59.8500  -14.4800   17.5100 C.3       5 GLY6        0.0000 
     69 CA        -58.6200  -15.2500   17.1100 C.3       5 GLY6        0.0000 
     70 CA        -58.0700  -18.3100   19.0700 C.3       5 GLY6        0.0000 
     71 CA        -56.8400  -19.0700   18.6800 C.3       5 GLY6        0.0000 
     72 CA        -58.6700  -16.2700   18.9700 C.3       5 GLY6        0.0000 
     73 CA        -53.7500  -19.3300   17.4000 C.3       5 GLY6        0.0000 
     74 CA        -55.0400  -17.3200   20.9100 C.3       5 GLY6        0.0000 
     75 CA        -56.2100   -9.9500   20.1000 C.3       5 GLY6        0.0000 
     76 CA        -53.8500  -19.1100   22.3700 C.3       5 GLY6        0.0000 
     77 CA        -54.4600  -17.0800   22.2700 C.3       5 GLY6        0.0000 
     78 CA        -53.8300  -15.8100   21.7700 C.3       5 GLY6        0.0000 
     79 CA        -50.1100  -14.8000   20.0000 C.3       5 GLY6        0.0000 
     80 CA        -53.2700  -18.8700   23.7300 C.3       5 GLY6        0.0000 
     81 CA        -52.0400  -19.6300   23.3400 C.3       5 GLY6        0.0000 
     82 CA        -53.2400  -15.5700   23.1300 C.3       5 GLY6        0.0000 
     83 CA        -52.0100  -16.3300   22.7400 C.3       5 GLY6        0.0000 
     84 CA        -51.3800  -15.0600   22.2500 C.3       5 GLY6        0.0000 
     85 CA        -52.0600  -17.3600   24.6000 C.3       5 GLY6        0.0000 
     86 CA        -50.8300  -18.1200   24.2000 C.3       5 GLY6        0.0000 
     87 DU        -56.7900  -18.0400   16.8200 H         6 CUB7        0.0000 
     88 DU        -57.3900  -16.0100   16.7200 H         6 CUB7        0.0000 
     89 DU        -56.1600  -16.7700   16.3300 H         6 CUB7        0.0000 
     90 DU        -59.2200  -13.2100   17.0100 H         6 CUB7        0.0000 
     91 DU        -57.9900  -13.9800   16.6200 H         6 CUB7        0.0000 
     92 DU        -56.7600  -14.7400   16.2300 H         6 CUB7        0.0000 
     93 DU        -58.5900  -11.9500   16.5200 H         6 CUB7        0.0000 
     94 DU        -55.6100  -19.8300   18.2900 H         6 CUB7        0.0000 
     95 DU        -56.2100  -17.8000   18.1800 H         6 CUB7        0.0000 
     96 DU        -54.9800  -18.5600   17.7900 H         6 CUB7        0.0000 
     97 DU        -57.3800  -10.4400   17.3800 H         6 CUB7        0.0000 
     98 DU        -55.6200  -17.5600   19.5500 H         6 CUB7        0.0000 
     99 DU        -54.9900  -16.2900   19.0500 H         6 CUB7        0.0000 
    100 DU        -53.7600  -17.0500   18.6600 H         6 CUB7        0.0000 
    101 DU        -56.8000  -10.2000   18.7400 H         6 CUB7        0.0000 
    102 DU        -53.1800  -16.8100   20.0200 H         6 CUB7        0.0000 
    103 DU        -51.3200  -16.3100   19.1300 H         6 CUB7        0.0000 
    104 DU        -57.4400   -9.1900   20.5000 H         6 CUB7        0.0000 
    105 DU        -53.2300  -17.8400   21.8700 H         6 CUB7        0.0000 
    106 DU        -52.6000  -16.5700   21.3800 H         6 CUB7        0.0000 
    107 DU        -51.9700  -15.3000   20.8800 H         6 CUB7        0.0000 
@<TRIPOS>BOND
@<TRIPOS>SUBSTRUCTURE
     1 SER1        1 GROUP   
     2 ALA2       16 GROUP   
     3 LYS4       42 GROUP   
     4 PHE5       55 GROUP   
     5 GLY6       61 GROUP   
     6 CUB7       87 GROUP   
@<TRIPOS>SET

