#    Name: 6se3_11_FAD
#    Modification time : Fri May 22 19:34:41 2020

@<TRIPOS>MOLECULE
6se3_11_FAD
   53    58     1     0     1
SMALL
NO_CHARGES


@<TRIPOS>ATOM
      1 PA        -53.3170   -5.5580    9.1250 P.3       1 FAD601      0.0000 
      2 O1A       -53.0930   -7.0030    8.8080 O.co2     1 FAD601      0.0000 
      3 O2A       -54.6940   -4.9660    9.4360 O.co2     1 FAD601      0.0000 
      4 O5B       -52.7270   -4.5630    8.0080 O.3       1 FAD601      0.0000 
      5 C5B       -51.4170   -4.5840    7.4230 C.3       1 FAD601      0.0000 
      6 C4B       -51.5050   -3.7540    6.1160 C.3       1 FAD601      0.0000 
      7 O4B       -50.2200   -3.7360    5.5500 O.3       1 FAD601      0.0000 
      8 C3B       -52.4430   -4.2840    5.0270 C.3       1 FAD601      0.0000 
      9 O3B       -53.3580   -3.2660    4.5590 O.3       1 FAD601      0.0000 
     10 C2B       -51.5120   -4.7700    3.9290 C.3       1 FAD601      0.0000 
     11 O2B       -51.9850   -4.4660    2.6290 O.3       1 FAD601      0.0000 
     12 C1B       -50.2510   -4.0260    4.1460 C.3       1 FAD601      0.0000 
     13 N9A       -48.9610   -4.7060    3.8280 N.pl3     1 FAD601      0.0000 
     14 C8A       -48.4440   -5.8470    4.3420 C.2       1 FAD601      0.0000 
     15 N7A       -47.1900   -6.0990    3.8470 N.2       1 FAD601      0.0000 
     16 C5A       -46.9040   -5.0840    3.0150 C.ar      1 FAD601      0.0000 
     17 C6A       -45.7790   -4.6580    2.1710 C.ar      1 FAD601      0.0000 
     18 N6A       -44.6830   -5.4160    2.0780 N.pl3     1 FAD601      0.0000 
     19 N1A       -45.8610   -3.5050    1.4940 N.ar      1 FAD601      0.0000 
     20 C2A       -46.9300   -2.7210    1.5330 C.ar      1 FAD601      0.0000 
     21 N3A       -47.9770   -3.0330    2.2780 N.ar      1 FAD601      0.0000 
     22 C4A       -48.0400   -4.1680    3.0210 C.ar      1 FAD601      0.0000 
     23 N1        -58.1400   -7.0280   17.4300 N.2       1 FAD601      0.0000 
     24 C2        -58.8510   -6.3360   18.3780 C.2       1 FAD601      0.0000 
     25 O2        -58.2430   -5.4830   19.0950 O.2       1 FAD601      0.0000 
     26 N3        -60.1760   -6.5390   18.5370 N.am      1 FAD601      0.0000 
     27 C4        -60.8320   -7.4460   17.7800 C.2       1 FAD601      0.0000 
     28 O4        -62.0430   -7.7050   17.8740 O.2       1 FAD601      0.0000 
     29 C4X       -60.1360   -8.2110   16.7580 C.2       1 FAD601      0.0000 
     30 N5        -60.7950   -9.1130   16.0040 N.2       1 FAD601      0.0000 
     31 C5X       -60.1040   -9.8010   15.0860 C.ar      1 FAD601      0.0000 
     32 C6        -60.7680  -10.7040   14.3260 C.ar      1 FAD601      0.0000 
     33 C7        -60.0990  -11.4470   13.4020 C.ar      1 FAD601      0.0000 
     34 C7M       -60.8520  -12.4420   12.5690 C.3       1 FAD601      0.0000 
     35 C8        -58.6670  -11.2550   13.2170 C.ar      1 FAD601      0.0000 
     36 C8M       -57.8980  -12.0680   12.2050 C.3       1 FAD601      0.0000 
     37 C9        -58.0110  -10.3290   13.9680 C.ar      1 FAD601      0.0000 
     38 C9A       -58.6620   -9.5930   14.9070 C.ar      1 FAD601      0.0000 
     39 N10       -57.9910   -8.6340   15.6910 N.pl3     1 FAD601      0.0000 
     40 C10       -58.7080   -7.9280   16.6210 C.2       1 FAD601      0.0000 
     41 C1'       -56.5740   -8.4030   15.6270 C.3       1 FAD601      0.0000 
     42 C2'       -56.1440   -7.5300   14.4780 C.3       1 FAD601      0.0000 
     43 O2'       -54.8830   -8.1050   14.1390 O.3       1 FAD601      0.0000 
     44 C3'       -55.9650   -6.0450   14.8660 C.3       1 FAD601      0.0000 
     45 O3'       -57.1900   -5.4390   15.3570 O.3       1 FAD601      0.0000 
     46 C4'       -55.5000   -5.2720   13.6590 C.3       1 FAD601      0.0000 
     47 O4'       -56.5020   -5.4160   12.6540 O.3       1 FAD601      0.0000 
     48 C5'       -54.1560   -5.6620   13.0860 C.3       1 FAD601      0.0000 
     49 O5'       -53.9260   -4.6790   12.0750 O.3       1 FAD601      0.0000 
     50 P         -52.4570   -4.2430   11.5480 P.3       1 FAD601      0.0000 
     51 O1P       -52.5860   -2.8450   11.0130 O.co2     1 FAD601      0.0000 
     52 O2P       -51.3240   -4.5710   12.4750 O.co2     1 FAD601      0.0000 
     53 O3P       -52.2320   -5.2360   10.2790 O.3       1 FAD601      0.0000 
@<TRIPOS>BOND
     1    1    2 ar   
     2    1    3 ar   
     3    1    4 1    
     4    1   53 1    
     5    4    5 1    
     6    5    6 1    
     7    6    7 1    
     8    6    8 1    
     9    7   12 1    
    10    8    9 1    
    11    8   10 1    
    12   10   11 1    
    13   10   12 1    
    14   12   13 1    
    15   13   14 1    
    16   13   22 1    
    17   14   15 2    
    18   15   16 1    
    19   16   17 ar   
    20   16   22 ar   
    21   17   18 1    
    22   17   19 ar   
    23   19   20 ar   
    24   20   21 ar   
    25   21   22 ar   
    26   23   24 1    
    27   23   40 2    
    28   24   25 2    
    29   24   26 am   
    30   26   27 am   
    31   27   28 2    
    32   27   29 1    
    33   29   30 2    
    34   29   40 1    
    35   30   31 1    
    36   31   32 ar   
    37   31   38 ar   
    38   32   33 ar   
    39   33   34 1    
    40   33   35 ar   
    41   35   36 1    
    42   35   37 ar   
    43   37   38 ar   
    44   38   39 1    
    45   39   40 1    
    46   39   41 1    
    47   41   42 1    
    48   42   43 1    
    49   42   44 1    
    50   44   45 1    
    51   44   46 1    
    52   46   47 1    
    53   46   48 1    
    54   48   49 1    
    55   49   50 1    
    56   50   51 ar   
    57   50   52 ar   
    58   50   53 1    
@<TRIPOS>SUBSTRUCTURE
     1 FAD601      1 GROUP   
@<TRIPOS>SET
ATOM$ORANGE STATIC     ATOMS   COLORGROUP SYSTEM 
54 5 5 6 6 8 8 10 10 12 12 14 14 16 16 17 17 20 \
20 22 22 24 24 27 27 29 29 31 31 32 32 33 33 34 34 35 \
35 36 36 37 37 38 38 40 40 41 41 42 42 44 44 46 46 48 \
48 

