#    Name: 6se3_7_FAD
#    Modification time : Fri May 22 19:34:12 2020

@<TRIPOS>MOLECULE
6se3_7_FAD
   53    58     1     0     1
SMALL
NO_CHARGES


@<TRIPOS>ATOM
      1 PA        -61.5230  -37.2770  104.8810 P.3       1 FAD601      0.0000 
      2 O1A       -60.1260  -36.6830  105.2060 O.co2     1 FAD601      0.0000 
      3 O2A       -62.6880  -36.3230  105.0560 O.co2     1 FAD601      0.0000 
      4 O5B       -61.9190  -38.6580  105.6470 O.3       1 FAD601      0.0000 
      5 C5B       -61.0140  -39.4460  106.4300 C.3       1 FAD601      0.0000 
      6 C4B       -61.7670  -39.9590  107.6480 C.3       1 FAD601      0.0000 
      7 O4B       -61.1530  -41.1280  108.1940 O.3       1 FAD601      0.0000 
      8 C3B       -61.8090  -38.9380  108.7800 C.3       1 FAD601      0.0000 
      9 O3B       -63.0920  -39.0650  109.4260 O.3       1 FAD601      0.0000 
     10 C2B       -60.6820  -39.3800  109.7070 C.3       1 FAD601      0.0000 
     11 O2B       -60.9610  -38.9750  111.0570 O.3       1 FAD601      0.0000 
     12 C1B       -60.7050  -40.8980  109.5550 C.3       1 FAD601      0.0000 
     13 N9A       -59.4350  -41.6620  109.7310 N.pl3     1 FAD601      0.0000 
     14 C8A       -58.2320  -41.3620  109.1820 C.2       1 FAD601      0.0000 
     15 N7A       -57.3040  -42.3110  109.4850 N.2       1 FAD601      0.0000 
     16 C5A       -57.9010  -43.2320  110.2320 C.ar      1 FAD601      0.0000 
     17 C6A       -57.4590  -44.4650  110.8710 C.ar      1 FAD601      0.0000 
     18 N6A       -56.1940  -44.8820  110.7590 N.pl3     1 FAD601      0.0000 
     19 N1A       -58.3530  -45.1650  111.5480 N.ar      1 FAD601      0.0000 
     20 C2A       -59.6370  -44.7490  111.6460 C.ar      1 FAD601      0.0000 
     21 N3A       -60.1230  -43.6080  111.1070 N.ar      1 FAD601      0.0000 
     22 C4A       -59.3000  -42.8200  110.3880 C.ar      1 FAD601      0.0000 
     23 N1        -64.0230  -31.6690   97.2390 N.2       1 FAD601      0.0000 
     24 C2        -65.0950  -31.3580   96.5080 C.2       1 FAD601      0.0000 
     25 O2        -65.5610  -32.2650   95.8440 O.2       1 FAD601      0.0000 
     26 N3        -65.6660  -30.1560   96.4860 N.am      1 FAD601      0.0000 
     27 C4        -65.2200  -29.1400   97.2180 C.2       1 FAD601      0.0000 
     28 O4        -65.8670  -28.0530   97.1660 O.2       1 FAD601      0.0000 
     29 C4X       -64.0000  -29.3880   98.0520 C.2       1 FAD601      0.0000 
     30 N5        -63.4110  -28.5120   98.8580 N.2       1 FAD601      0.0000 
     31 C5X       -62.3040  -28.7940   99.6050 C.ar      1 FAD601      0.0000 
     32 C6        -61.7570  -27.7820  100.3820 C.ar      1 FAD601      0.0000 
     33 C7        -60.6230  -27.9710  101.0940 C.ar      1 FAD601      0.0000 
     34 C7M       -60.0340  -26.8520  101.9230 C.3       1 FAD601      0.0000 
     35 C8        -60.0130  -29.3030  101.0620 C.ar      1 FAD601      0.0000 
     36 C8M       -58.7680  -29.4790  101.8790 C.3       1 FAD601      0.0000 
     37 C9        -60.5360  -30.3420  100.3200 C.ar      1 FAD601      0.0000 
     38 C9A       -61.6590  -30.1210   99.5570 C.ar      1 FAD601      0.0000 
     39 N10       -62.2790  -31.0800   98.7510 N.pl3     1 FAD601      0.0000 
     40 C10       -63.4230  -30.7430   98.0160 C.2       1 FAD601      0.0000 
     41 C1'       -61.8390  -32.4400   98.5920 C.3       1 FAD601      0.0000 
     42 C2'       -62.2570  -33.2500   99.7910 C.3       1 FAD601      0.0000 
     43 O2'       -61.0780  -33.9650  100.1560 O.3       1 FAD601      0.0000 
     44 C3'       -63.3860  -34.2170   99.4950 C.3       1 FAD601      0.0000 
     45 O3'       -64.5400  -33.4410   99.0930 O.3       1 FAD601      0.0000 
     46 C4'       -63.6830  -35.1270  100.7350 C.3       1 FAD601      0.0000 
     47 O4'       -64.0110  -34.3830  101.9260 O.3       1 FAD601      0.0000 
     48 C5'       -62.5680  -36.0810  101.2140 C.3       1 FAD601      0.0000 
     49 O5'       -63.2490  -37.0840  101.9520 O.3       1 FAD601      0.0000 
     50 P         -62.6170  -38.4610  102.4170 P.3       1 FAD601      0.0000 
     51 O1P       -63.7380  -39.2310  103.1110 O.co2     1 FAD601      0.0000 
     52 O2P       -61.9310  -39.2300  101.2950 O.co2     1 FAD601      0.0000 
     53 O3P       -61.4680  -37.8400  103.3460 O.3       1 FAD601      0.0000 
@<TRIPOS>BOND
     1    1    2 ar   
     2    1    3 ar   
     3    1    4 1    
     4    1   53 1    
     5    4    5 1    
     6    5    6 1    
     7    6    7 1    
     8    6    8 1    
     9    7   12 1    
    10    8    9 1    
    11    8   10 1    
    12   10   11 1    
    13   10   12 1    
    14   12   13 1    
    15   13   14 1    
    16   13   22 1    
    17   14   15 2    
    18   15   16 1    
    19   16   17 ar   
    20   16   22 ar   
    21   17   18 1    
    22   17   19 ar   
    23   19   20 ar   
    24   20   21 ar   
    25   21   22 ar   
    26   23   24 1    
    27   23   40 2    
    28   24   25 2    
    29   24   26 am   
    30   26   27 am   
    31   27   28 2    
    32   27   29 1    
    33   29   30 2    
    34   29   40 1    
    35   30   31 1    
    36   31   32 ar   
    37   31   38 ar   
    38   32   33 ar   
    39   33   34 1    
    40   33   35 ar   
    41   35   36 1    
    42   35   37 ar   
    43   37   38 ar   
    44   38   39 1    
    45   39   40 1    
    46   39   41 1    
    47   41   42 1    
    48   42   43 1    
    49   42   44 1    
    50   44   45 1    
    51   44   46 1    
    52   46   47 1    
    53   46   48 1    
    54   48   49 1    
    55   49   50 1    
    56   50   51 ar   
    57   50   52 ar   
    58   50   53 1    
@<TRIPOS>SUBSTRUCTURE
     1 FAD601      1 GROUP   
@<TRIPOS>SET
ATOM$ORANGE STATIC     ATOMS   COLORGROUP SYSTEM 
54 5 5 6 6 8 8 10 10 12 12 14 14 16 16 17 17 20 \
20 22 22 24 24 27 27 29 29 31 31 32 32 33 33 34 34 35 \
35 36 36 37 37 38 38 40 40 41 41 42 42 44 44 46 46 48 \
48 

