#    Name: 6se3_4_NAP
#    Modification time : Fri May 22 19:33:50 2020

@<TRIPOS>MOLECULE
6se3_4_NAP
   48    52     1     0     1
SMALL
NO_CHARGES


@<TRIPOS>ATOM
      1 PA        -77.1140    6.3240   96.9480 P.3       1 NAP602      0.0000 
      2 O1A       -77.9610    7.5410   96.9420 O.co2     1 NAP602      0.0000 
      3 O2A       -76.1690    6.1210   95.8040 O.co2     1 NAP602      0.0000 
      4 O5B       -78.0980    5.0570   96.9600 O.3       1 NAP602      0.0000 
      5 C5B       -79.1320    4.9670   97.9050 C.3       1 NAP602      0.0000 
      6 C4B       -79.8400    3.6360   97.7470 C.3       1 NAP602      0.0000 
      7 O4B       -80.8840    3.6010   98.7370 O.3       1 NAP602      0.0000 
      8 C3B       -80.4950    3.5040   96.3840 C.3       1 NAP602      0.0000 
      9 O3B       -80.6100    2.1010   96.0190 O.3       1 NAP602      0.0000 
     10 C2B       -81.8180    4.1940   96.6790 C.3       1 NAP602      0.0000 
     11 O2B       -82.9480    3.8020   95.9280 O.3       1 NAP602      0.0000 
     12 C1B       -82.1360    3.7020   98.0790 C.3       1 NAP602      0.0000 
     13 N9A       -83.1440    4.5230   98.8010 N.pl3     1 NAP602      0.0000 
     14 C8A       -83.1730    5.8590   99.0130 C.2       1 NAP602      0.0000 
     15 N7A       -84.2590    6.2190   99.7450 N.2       1 NAP602      0.0000 
     16 C5A       -84.9530    5.0790   99.9820 C.ar      1 NAP602      0.0000 
     17 C6A       -86.2030    4.6860  100.6700 C.ar      1 NAP602      0.0000 
     18 N6A       -86.9460    5.6270  101.2580 N.pl3     1 NAP602      0.0000 
     19 N1A       -86.5820    3.3820  100.6940 N.ar      1 NAP602      0.0000 
     20 C2A       -85.8480    2.4250  100.1080 C.ar      1 NAP602      0.0000 
     21 N3A       -84.7120    2.6990   99.4560 N.ar      1 NAP602      0.0000 
     22 C4A       -84.2190    3.9710   99.3580 C.ar      1 NAP602      0.0000 
     23 O3        -76.2520    6.2460   98.3010 O.3       1 NAP602      0.0000 
     24 PN        -74.8400    5.4700   98.5470 P.3       1 NAP602      0.0000 
     25 O1N       -75.0470    3.9550   98.5170 O.co2     1 NAP602      0.0000 
     26 O2N       -74.5400    6.0920   99.8960 O.co2     1 NAP602      0.0000 
     27 O5D       -73.7940    6.0260   97.4820 O.3       1 NAP602      0.0000 
     28 C5D       -73.6410    7.4500   97.4780 C.3       1 NAP602      0.0000 
     29 C4D       -72.4140    7.9670   96.7200 C.3       1 NAP602      0.0000 
     30 O4D       -71.1720    7.5800   97.3540 O.3       1 NAP602      0.0000 
     31 C3D       -72.3770    7.4830   95.2850 C.3       1 NAP602      0.0000 
     32 O3D       -71.8380    8.4930   94.4340 O.3       1 NAP602      0.0000 
     33 C2D       -71.4700    6.2990   95.4450 C.3       1 NAP602      0.0000 
     34 O2D       -70.7910    5.8740   94.2900 O.3       1 NAP602      0.0000 
     35 C1D       -70.4540    6.7930   96.4210 C.3       1 NAP602      0.0000 
     36 N1N       -69.8650    5.6220   97.0140 N.pl3     1 NAP602      0.0000 
     37 C2N       -68.7120    5.1860   96.5260 C.ar      1 NAP602      0.0000 
     38 C3N       -68.1130    4.0880   97.0810 C.ar      1 NAP602      0.0000 
     39 C7N       -66.8250    3.5470   96.5780 C.2       1 NAP602      0.0000 
     40 O7N       -66.6300    2.3540   96.6670 O.2       1 NAP602      0.0000 
     41 N7N       -65.9070    4.3240   96.0420 N.am      1 NAP602      0.0000 
     42 C4N       -68.7260    3.4430   98.1250 C.ar      1 NAP602      0.0000 
     43 C5N       -69.9130    3.9430   98.6020 C.ar      1 NAP602      0.0000 
     44 C6N       -70.4820    5.0410   98.0220 C.ar      1 NAP602      0.0000 
     45 P2B       -83.2740    4.1440   94.3990 P.3       1 NAP602      0.0000 
     46 O1X       -82.0830    3.5200   93.6580 O.co2     1 NAP602      0.0000 
     47 O2X       -84.6000    3.4470   94.1340 O.co2     1 NAP602      0.0000 
     48 O3X       -83.3920    5.6630   94.5360 O.co2     1 NAP602      0.0000 
@<TRIPOS>BOND
     1    1    2 ar   
     2    1    3 ar   
     3    1    4 1    
     4    1   23 1    
     5    4    5 1    
     6    5    6 1    
     7    6    7 1    
     8    6    8 1    
     9    7   12 1    
    10    8    9 1    
    11    8   10 1    
    12   10   11 1    
    13   10   12 1    
    14   11   45 1    
    15   12   13 1    
    16   13   14 1    
    17   13   22 1    
    18   14   15 2    
    19   15   16 1    
    20   16   17 ar   
    21   16   22 ar   
    22   17   18 1    
    23   17   19 ar   
    24   19   20 ar   
    25   20   21 ar   
    26   21   22 ar   
    27   23   24 1    
    28   24   25 ar   
    29   24   26 ar   
    30   24   27 1    
    31   27   28 1    
    32   28   29 1    
    33   29   30 1    
    34   29   31 1    
    35   30   35 1    
    36   31   32 1    
    37   31   33 1    
    38   33   34 1    
    39   33   35 1    
    40   35   36 1    
    41   36   37 ar   
    42   36   44 ar   
    43   37   38 ar   
    44   38   39 1    
    45   38   42 ar   
    46   39   40 2    
    47   39   41 am   
    48   42   43 ar   
    49   43   44 ar   
    50   45   46 ar   
    51   45   47 ar   
    52   45   48 ar   
@<TRIPOS>SUBSTRUCTURE
     1 NAP602      1 GROUP   
@<TRIPOS>SET
ATOM$ORANGE STATIC     ATOMS   COLORGROUP SYSTEM 
42 5 5 6 6 8 8 10 10 12 12 14 14 16 16 17 17 20 \
20 22 22 28 28 29 29 31 31 33 33 35 35 37 37 38 38 39 \
39 42 42 43 43 44 44 

