#    Name: 6se3_9_FAD
#    Modification time : Fri May 22 19:34:26 2020

@<TRIPOS>MOLECULE
6se3_9_FAD
   53    58     1     0     1
SMALL
NO_CHARGES


@<TRIPOS>ATOM
      1 PA        -39.2000  -22.7530  -19.5490 P.3       1 FAD601      0.0000 
      2 O1A       -38.1730  -23.7340  -19.0190 O.co2     1 FAD601      0.0000 
      3 O2A       -38.9700  -21.2520  -19.4900 O.co2     1 FAD601      0.0000 
      4 O5B       -40.6340  -23.0750  -18.9380 O.3       1 FAD601      0.0000 
      5 C5B       -40.9510  -24.2860  -18.2950 C.3       1 FAD601      0.0000 
      6 C4B       -41.8790  -24.0510  -17.1070 C.3       1 FAD601      0.0000 
      7 O4B       -42.6690  -25.2360  -17.0350 O.3       1 FAD601      0.0000 
      8 C3B       -41.1700  -23.8030  -15.7680 C.3       1 FAD601      0.0000 
      9 O3B       -41.6940  -22.6780  -14.9850 O.3       1 FAD601      0.0000 
     10 C2B       -41.4150  -25.1290  -15.0750 C.3       1 FAD601      0.0000 
     11 O2B       -41.6940  -24.9050  -13.7190 O.3       1 FAD601      0.0000 
     12 C1B       -42.6730  -25.6750  -15.6880 C.3       1 FAD601      0.0000 
     13 N9A       -42.8080  -27.1500  -15.6010 N.pl3     1 FAD601      0.0000 
     14 C8A       -42.0070  -28.0740  -16.1340 C.2       1 FAD601      0.0000 
     15 N7A       -42.4800  -29.3180  -15.8940 N.2       1 FAD601      0.0000 
     16 C5A       -43.5970  -29.2020  -15.1990 C.ar      1 FAD601      0.0000 
     17 C6A       -44.5620  -30.1300  -14.6030 C.ar      1 FAD601      0.0000 
     18 N6A       -44.4290  -31.4510  -14.7370 N.pl3     1 FAD601      0.0000 
     19 N1A       -45.5990  -29.6380  -13.9620 N.ar      1 FAD601      0.0000 
     20 C2A       -45.7650  -28.3110  -13.8710 C.ar      1 FAD601      0.0000 
     21 N3A       -44.9360  -27.3910  -14.3740 N.ar      1 FAD601      0.0000 
     22 C4A       -43.8320  -27.7770  -15.0320 C.ar      1 FAD601      0.0000 
     23 N1        -34.5150  -17.3830  -26.1820 N.2       1 FAD601      0.0000 
     24 C2        -34.6870  -16.2580  -26.9100 C.2       1 FAD601      0.0000 
     25 O2        -35.6750  -16.1660  -27.7130 O.2       1 FAD601      0.0000 
     26 N3        -33.8290  -15.2240  -26.7320 N.am      1 FAD601      0.0000 
     27 C4        -32.7960  -15.2450  -25.8540 C.2       1 FAD601      0.0000 
     28 O4        -32.0170  -14.2860  -25.6920 O.2       1 FAD601      0.0000 
     29 C4X       -32.5620  -16.4490  -25.0670 C.2       1 FAD601      0.0000 
     30 N5        -31.5650  -16.5370  -24.1800 N.2       1 FAD601      0.0000 
     31 C5X       -31.3860  -17.6860  -23.4810 C.ar      1 FAD601      0.0000 
     32 C6        -30.3490  -17.8110  -22.5470 C.ar      1 FAD601      0.0000 
     33 C7        -30.1610  -18.9880  -21.8290 C.ar      1 FAD601      0.0000 
     34 C7M       -29.0630  -19.1360  -20.8200 C.3       1 FAD601      0.0000 
     35 C8        -31.0620  -20.1240  -22.0510 C.ar      1 FAD601      0.0000 
     36 C8M       -30.8500  -21.3960  -21.2630 C.3       1 FAD601      0.0000 
     37 C9        -32.1190  -20.0050  -22.9450 C.ar      1 FAD601      0.0000 
     38 C9A       -32.3070  -18.8370  -23.6820 C.ar      1 FAD601      0.0000 
     39 N10       -33.3590  -18.7040  -24.6070 N.pl3     1 FAD601      0.0000 
     40 C10       -33.5160  -17.5300  -25.3060 C.2       1 FAD601      0.0000 
     41 C1'       -34.2750  -19.7820  -24.8710 C.3       1 FAD601      0.0000 
     42 C2'       -35.3370  -20.0090  -23.8280 C.3       1 FAD601      0.0000 
     43 O2'       -35.3270  -21.4210  -23.8330 O.3       1 FAD601      0.0000 
     44 C3'       -36.6690  -19.3550  -24.2280 C.3       1 FAD601      0.0000 
     45 O3'       -36.4200  -17.9310  -24.3750 O.3       1 FAD601      0.0000 
     46 C4'       -37.7720  -19.5640  -23.2080 C.3       1 FAD601      0.0000 
     47 O4'       -37.3260  -19.1560  -21.8980 O.3       1 FAD601      0.0000 
     48 C5'       -38.2420  -20.9980  -23.0820 C.3       1 FAD601      0.0000 
     49 O5'       -39.3990  -20.9780  -22.2470 O.3       1 FAD601      0.0000 
     50 P         -40.3460  -22.2540  -22.1400 P.3       1 FAD601      0.0000 
     51 O1P       -41.7030  -21.8950  -21.5950 O.co2     1 FAD601      0.0000 
     52 O2P       -40.2350  -22.8160  -23.5210 O.co2     1 FAD601      0.0000 
     53 O3P       -39.5740  -23.1590  -21.0650 O.3       1 FAD601      0.0000 
@<TRIPOS>BOND
     1    1    2 ar   
     2    1    3 ar   
     3    1    4 1    
     4    1   53 1    
     5    4    5 1    
     6    5    6 1    
     7    6    7 1    
     8    6    8 1    
     9    7   12 1    
    10    8    9 1    
    11    8   10 1    
    12   10   11 1    
    13   10   12 1    
    14   12   13 1    
    15   13   14 1    
    16   13   22 1    
    17   14   15 2    
    18   15   16 1    
    19   16   17 ar   
    20   16   22 ar   
    21   17   18 1    
    22   17   19 ar   
    23   19   20 ar   
    24   20   21 ar   
    25   21   22 ar   
    26   23   24 1    
    27   23   40 2    
    28   24   25 2    
    29   24   26 am   
    30   26   27 am   
    31   27   28 2    
    32   27   29 1    
    33   29   30 2    
    34   29   40 1    
    35   30   31 1    
    36   31   32 ar   
    37   31   38 ar   
    38   32   33 ar   
    39   33   34 1    
    40   33   35 ar   
    41   35   36 1    
    42   35   37 ar   
    43   37   38 ar   
    44   38   39 1    
    45   39   40 1    
    46   39   41 1    
    47   41   42 1    
    48   42   43 1    
    49   42   44 1    
    50   44   45 1    
    51   44   46 1    
    52   46   47 1    
    53   46   48 1    
    54   48   49 1    
    55   49   50 1    
    56   50   51 ar   
    57   50   52 ar   
    58   50   53 1    
@<TRIPOS>SUBSTRUCTURE
     1 FAD601      1 GROUP   
@<TRIPOS>SET
ATOM$ORANGE STATIC     ATOMS   COLORGROUP SYSTEM 
54 5 5 6 6 8 8 10 10 12 12 14 14 16 16 17 17 20 \
20 22 22 24 24 27 27 29 29 31 31 32 32 33 33 34 34 35 \
35 36 36 37 37 38 38 40 40 41 41 42 42 44 44 46 46 48 \
48 

