#    Name: 6se3_1_FAD
#    Modification time : Fri May 22 19:33:28 2020

@<TRIPOS>MOLECULE
6se3_1_FAD
   53    58     1     0     1
SMALL
NO_CHARGES


@<TRIPOS>ATOM
      1 PA          6.3360    6.5200  -14.4540 P.3       1 FAD601      0.0000 
      2 O1A         5.3090    7.1930  -13.4800 O.co2     1 FAD601      0.0000 
      3 O2A         6.3740    5.0030  -14.6940 O.co2     1 FAD601      0.0000 
      4 O5B         7.8750    6.5890  -13.8670 O.3       1 FAD601      0.0000 
      5 C5B         8.4090    7.4130  -12.8090 C.3       1 FAD601      0.0000 
      6 C4B         9.2180    6.6790  -11.7010 C.3       1 FAD601      0.0000 
      7 O4B        10.0310    7.6180  -10.9590 O.3       1 FAD601      0.0000 
      8 C3B         8.3180    6.0320  -10.6290 C.3       1 FAD601      0.0000 
      9 O3B         8.9890    4.9680   -9.9130 O.3       1 FAD601      0.0000 
     10 C2B         8.0070    7.2250   -9.7340 C.3       1 FAD601      0.0000 
     11 O2B         7.3570    6.9740   -8.4740 O.3       1 FAD601      0.0000 
     12 C1B         9.4430    7.7230   -9.6400 C.3       1 FAD601      0.0000 
     13 N9A         9.4590    9.0170   -8.9310 N.pl3     1 FAD601      0.0000 
     14 C8A         8.4150    9.8400   -8.6060 C.2       1 FAD601      0.0000 
     15 N7A         8.8760   10.8900   -7.8730 N.2       1 FAD601      0.0000 
     16 C5A        10.2230   10.7210   -7.7130 C.ar      1 FAD601      0.0000 
     17 C6A        11.3510   11.4410   -7.0450 C.ar      1 FAD601      0.0000 
     18 N6A        11.1270   12.6170   -6.3860 N.pl3     1 FAD601      0.0000 
     19 N1A        12.6020   10.8640   -7.1430 N.ar      1 FAD601      0.0000 
     20 C2A        12.8840    9.6980   -7.7950 C.ar      1 FAD601      0.0000 
     21 N3A        11.9130    9.0060   -8.4310 N.ar      1 FAD601      0.0000 
     22 C4A        10.6060    9.4630   -8.4110 C.ar      1 FAD601      0.0000 
     23 N1          1.6870    3.4580  -22.2110 N.2       1 FAD601      0.0000 
     24 C2          1.9000    2.5730  -23.2130 C.2       1 FAD601      0.0000 
     25 O2          2.9310    2.7350  -23.9200 O.2       1 FAD601      0.0000 
     26 N3          1.0190    1.5340  -23.4180 N.am      1 FAD601      0.0000 
     27 C4         -0.0870    1.3500  -22.6330 C.2       1 FAD601      0.0000 
     28 O4         -0.8870    0.4200  -22.8030 O.2       1 FAD601      0.0000 
     29 C4X        -0.3630    2.2680  -21.5250 C.2       1 FAD601      0.0000 
     30 N5         -1.4150    2.1250  -20.6930 N.2       1 FAD601      0.0000 
     31 C5X        -1.6030    2.9930  -19.6670 C.ar      1 FAD601      0.0000 
     32 C6         -2.6920    2.8430  -18.7890 C.ar      1 FAD601      0.0000 
     33 C7         -2.9090    3.7720  -17.7510 C.ar      1 FAD601      0.0000 
     34 C7M        -4.0650    3.7130  -16.7860 C.3       1 FAD601      0.0000 
     35 C8         -1.9610    4.9120  -17.5800 C.ar      1 FAD601      0.0000 
     36 C8M        -2.2050    5.9000  -16.4570 C.3       1 FAD601      0.0000 
     37 C9         -0.8620    5.0480  -18.4470 C.ar      1 FAD601      0.0000 
     38 C9A        -0.6480    4.1370  -19.4840 C.ar      1 FAD601      0.0000 
     39 N10         0.4680    4.2590  -20.3500 N.pl3     1 FAD601      0.0000 
     40 C10         0.6260    3.3450  -21.3760 C.2       1 FAD601      0.0000 
     41 C1'         1.4890    5.3150  -20.2900 C.3       1 FAD601      0.0000 
     42 C2'         2.4740    5.1300  -19.1530 C.3       1 FAD601      0.0000 
     43 O2'         2.2920    6.3940  -18.4270 O.3       1 FAD601      0.0000 
     44 C3'         3.9090    4.7350  -19.6460 C.3       1 FAD601      0.0000 
     45 O3'         4.0180    3.4700  -20.3720 O.3       1 FAD601      0.0000 
     46 C4'         4.9230    4.7040  -18.4750 C.3       1 FAD601      0.0000 
     47 O4'         4.3020    5.4250  -17.3780 O.3       1 FAD601      0.0000 
     48 C5'         6.3510    5.2580  -18.8550 C.3       1 FAD601      0.0000 
     49 O5'         7.4650    5.3330  -17.8960 O.3       1 FAD601      0.0000 
     50 P           7.8110    6.5210  -16.8080 P.3       1 FAD601      0.0000 
     51 O1P         8.7180    5.5770  -16.0220 O.co2     1 FAD601      0.0000 
     52 O2P         8.4490    7.7780  -17.3820 O.co2     1 FAD601      0.0000 
     53 O3P         6.4720    7.1170  -15.9850 O.3       1 FAD601      0.0000 
@<TRIPOS>BOND
     1    1    2 ar   
     2    1    3 ar   
     3    1    4 1    
     4    1   53 1    
     5    4    5 1    
     6    5    6 1    
     7    6    7 1    
     8    6    8 1    
     9    7   12 1    
    10    8    9 1    
    11    8   10 1    
    12   10   11 1    
    13   10   12 1    
    14   12   13 1    
    15   13   14 1    
    16   13   22 1    
    17   14   15 2    
    18   15   16 1    
    19   16   17 ar   
    20   16   22 ar   
    21   17   18 1    
    22   17   19 ar   
    23   19   20 ar   
    24   20   21 ar   
    25   21   22 ar   
    26   23   24 1    
    27   23   40 2    
    28   24   25 2    
    29   24   26 am   
    30   26   27 am   
    31   27   28 2    
    32   27   29 1    
    33   29   30 2    
    34   29   40 1    
    35   30   31 1    
    36   31   32 ar   
    37   31   38 ar   
    38   32   33 ar   
    39   33   34 1    
    40   33   35 ar   
    41   35   36 1    
    42   35   37 ar   
    43   37   38 ar   
    44   38   39 1    
    45   39   40 1    
    46   39   41 1    
    47   41   42 1    
    48   42   43 1    
    49   42   44 1    
    50   44   45 1    
    51   44   46 1    
    52   46   47 1    
    53   46   48 1    
    54   48   49 1    
    55   49   50 1    
    56   50   51 ar   
    57   50   52 ar   
    58   50   53 1    
@<TRIPOS>SUBSTRUCTURE
     1 FAD601      1 GROUP   
@<TRIPOS>SET
ATOM$ORANGE STATIC     ATOMS   COLORGROUP SYSTEM 
54 5 5 6 6 8 8 10 10 12 12 14 14 16 16 17 17 20 \
20 22 22 24 24 27 27 29 29 31 31 32 32 33 33 34 34 35 \
35 36 36 37 37 38 38 40 40 41 41 42 42 44 44 46 46 48 \
48 

