#    Name: 6se3_12_NAP
#    Modification time : Fri May 22 19:34:48 2020

@<TRIPOS>MOLECULE
6se3_12_NAP
   48    52     1     0     1
SMALL
NO_CHARGES


@<TRIPOS>ATOM
      1 PA        -55.5270  -18.8140   17.2170 P.3       1 NAP602      0.0000 
      2 O1A       -54.0530  -19.1190   17.1670 O.co2     1 NAP602      0.0000 
      3 O2A       -56.2040  -18.0570   18.3320 O.co2     1 NAP602      0.0000 
      4 O5B       -56.1950  -20.2460   17.1790 O.3       1 NAP602      0.0000 
      5 C5B       -55.4570  -21.3830   16.7920 C.3       1 NAP602      0.0000 
      6 C4B       -56.1730  -22.5790   17.3980 C.3       1 NAP602      0.0000 
      7 O4B       -55.7310  -23.7510   16.7460 O.3       1 NAP602      0.0000 
      8 C3B       -55.9000  -22.7880   18.8690 C.3       1 NAP602      0.0000 
      9 O3B       -56.9910  -23.5520   19.4000 O.3       1 NAP602      0.0000 
     10 C2B       -54.6610  -23.6190   18.8260 C.3       1 NAP602      0.0000 
     11 O2B       -54.6750  -24.5350   19.9010 O.3       1 NAP602      0.0000 
     12 C1B       -54.9500  -24.4990   17.6630 C.3       1 NAP602      0.0000 
     13 N9A       -53.7900  -25.0720   16.9390 N.pl3     1 NAP602      0.0000 
     14 C8A       -52.6970  -24.4630   16.4260 C.2       1 NAP602      0.0000 
     15 N7A       -51.9350  -25.3710   15.7900 N.2       1 NAP602      0.0000 
     16 C5A       -52.5560  -26.5580   15.8990 C.ar      1 NAP602      0.0000 
     17 C6A       -52.2960  -27.9420   15.4820 C.ar      1 NAP602      0.0000 
     18 N6A       -51.1720  -28.1800   14.7870 N.pl3     1 NAP602      0.0000 
     19 N1A       -53.1990  -28.9140   15.8010 N.ar      1 NAP602      0.0000 
     20 C2A       -54.3230  -28.6540   16.5080 C.ar      1 NAP602      0.0000 
     21 N3A       -54.6170  -27.4200   16.9560 N.ar      1 NAP602      0.0000 
     22 C4A       -53.7840  -26.3700   16.6590 C.ar      1 NAP602      0.0000 
     23 O3        -56.0410  -18.1100   15.8730 O.3       1 NAP602      0.0000 
     24 PN        -57.5770  -17.7550   15.3680 P.3       1 NAP602      0.0000 
     25 O1N       -58.6760  -18.6680   15.9040 O.co2     1 NAP602      0.0000 
     26 O2N       -57.5900  -17.6420   13.8200 O.co2     1 NAP602      0.0000 
     27 O5D       -57.4570  -16.3100   16.0750 O.3       1 NAP602      0.0000 
     28 C5D       -56.3590  -15.4250   15.7950 C.3       1 NAP602      0.0000 
     29 C4D       -56.5080  -14.0180   16.3950 C.3       1 NAP602      0.0000 
     30 O4D       -57.5660  -13.4100   15.6620 O.3       1 NAP602      0.0000 
     31 C3D       -56.8620  -14.0690   17.8900 C.3       1 NAP602      0.0000 
     32 O3D       -56.2960  -13.0260   18.7160 O.3       1 NAP602      0.0000 
     33 C2D       -58.3550  -14.0170   17.7980 C.3       1 NAP602      0.0000 
     34 O2D       -58.9260  -13.4580   18.9580 O.3       1 NAP602      0.0000 
     35 C1D       -58.6180  -13.1440   16.5830 C.3       1 NAP602      0.0000 
     36 N1N       -59.9860  -13.4280   16.1190 N.pl3     1 NAP602      0.0000 
     37 C2N       -60.9830  -12.6130   16.5620 C.ar      1 NAP602      0.0000 
     38 C3N       -62.3070  -12.8460   16.2000 C.ar      1 NAP602      0.0000 
     39 C7N       -63.4170  -11.9910   16.6950 C.2       1 NAP602      0.0000 
     40 O7N       -64.5190  -12.5410   16.8230 O.2       1 NAP602      0.0000 
     41 N7N       -63.1560  -10.6940   16.9370 N.am      1 NAP602      0.0000 
     42 C4N       -62.6150  -13.9190   15.3760 C.ar      1 NAP602      0.0000 
     43 C5N       -61.5790  -14.7480   14.9480 C.ar      1 NAP602      0.0000 
     44 C6N       -60.2600  -14.4890   15.3250 C.ar      1 NAP602      0.0000 
     45 P2B       -53.5190  -24.6930   20.9980 P.3       1 NAP602      0.0000 
     46 O1X       -54.1620  -23.9860   22.1840 O.co2     1 NAP602      0.0000 
     47 O2X       -53.3110  -26.1740   21.2790 O.co2     1 NAP602      0.0000 
     48 O3X       -52.4440  -24.0150   20.1550 O.co2     1 NAP602      0.0000 
@<TRIPOS>BOND
     1    1    2 ar   
     2    1    3 ar   
     3    1    4 1    
     4    1   23 1    
     5    4    5 1    
     6    5    6 1    
     7    6    7 1    
     8    6    8 1    
     9    7   12 1    
    10    8    9 1    
    11    8   10 1    
    12   10   11 1    
    13   10   12 1    
    14   11   45 1    
    15   12   13 1    
    16   13   14 1    
    17   13   22 1    
    18   14   15 2    
    19   15   16 1    
    20   16   17 ar   
    21   16   22 ar   
    22   17   18 1    
    23   17   19 ar   
    24   19   20 ar   
    25   20   21 ar   
    26   21   22 ar   
    27   23   24 1    
    28   24   25 ar   
    29   24   26 ar   
    30   24   27 1    
    31   27   28 1    
    32   28   29 1    
    33   29   30 1    
    34   29   31 1    
    35   30   35 1    
    36   31   32 1    
    37   31   33 1    
    38   33   34 1    
    39   33   35 1    
    40   35   36 1    
    41   36   37 ar   
    42   36   44 ar   
    43   37   38 ar   
    44   38   39 1    
    45   38   42 ar   
    46   39   40 2    
    47   39   41 am   
    48   42   43 ar   
    49   43   44 ar   
    50   45   46 ar   
    51   45   47 ar   
    52   45   48 ar   
@<TRIPOS>SUBSTRUCTURE
     1 NAP602      1 GROUP   
@<TRIPOS>SET
ATOM$ORANGE STATIC     ATOMS   COLORGROUP SYSTEM 
42 5 5 6 6 8 8 10 10 12 12 14 14 16 16 17 17 20 \
20 22 22 28 28 29 29 31 31 33 33 35 35 37 37 38 38 39 \
39 42 42 43 43 44 44 

