#    Name: 6se3_3_FAD
#    Modification time : Fri May 22 19:33:43 2020

@<TRIPOS>MOLECULE
6se3_3_FAD
   53    58     1     0     1
SMALL
NO_CHARGES


@<TRIPOS>ATOM
      1 PA        -66.1460   16.8460  100.9900 P.3       1 FAD601      0.0000 
      2 O1A       -67.3270   16.5270  101.8990 O.co2     1 FAD601      0.0000 
      3 O2A       -65.0920   15.7720  100.7500 O.co2     1 FAD601      0.0000 
      4 O5B       -65.3150   18.0670  101.5960 O.3       1 FAD601      0.0000 
      5 C5B       -65.9500   19.2360  102.0720 C.3       1 FAD601      0.0000 
      6 C4B       -65.1390   20.0360  103.0910 C.3       1 FAD601      0.0000 
      7 O4B       -65.9570   21.1530  103.4510 O.3       1 FAD601      0.0000 
      8 C3B       -64.8860   19.2530  104.3630 C.3       1 FAD601      0.0000 
      9 O3B       -63.4980   19.2950  104.7630 O.3       1 FAD601      0.0000 
     10 C2B       -65.7330   19.9050  105.4240 C.3       1 FAD601      0.0000 
     11 O2B       -64.9660   19.8900  106.6260 O.3       1 FAD601      0.0000 
     12 C1B       -65.8770   21.2860  104.8560 C.3       1 FAD601      0.0000 
     13 N9A       -67.0210   22.1090  105.2530 N.pl3     1 FAD601      0.0000 
     14 C8A       -68.3160   21.8380  105.1080 C.2       1 FAD601      0.0000 
     15 N7A       -69.0520   22.8970  105.5540 N.2       1 FAD601      0.0000 
     16 C5A       -68.2140   23.8470  105.9900 C.ar      1 FAD601      0.0000 
     17 C6A       -68.3130   25.1950  106.5940 C.ar      1 FAD601      0.0000 
     18 N6A       -69.4870   25.8000  106.8460 N.pl3     1 FAD601      0.0000 
     19 N1A       -67.1720   25.8210  106.8970 N.ar      1 FAD601      0.0000 
     20 C2A       -65.9710   25.2600  106.6550 C.ar      1 FAD601      0.0000 
     21 N3A       -65.8050   24.0550  106.1070 N.ar      1 FAD601      0.0000 
     22 C4A       -66.8720   23.3160  105.7690 C.ar      1 FAD601      0.0000 
     23 N1        -65.8540   10.2650   93.8720 N.2       1 FAD601      0.0000 
     24 C2        -65.0010    9.8740   92.9130 C.2       1 FAD601      0.0000 
     25 O2        -64.7140   10.6510   91.9670 O.2       1 FAD601      0.0000 
     26 N3        -64.4260    8.6630   92.9720 N.am      1 FAD601      0.0000 
     27 C4        -64.6440    7.8110   93.9610 C.2       1 FAD601      0.0000 
     28 O4        -64.0710    6.7390   93.9590 O.2       1 FAD601      0.0000 
     29 C4X       -65.5480    8.1360   95.0530 C.2       1 FAD601      0.0000 
     30 N5        -65.7930    7.3180   96.0940 N.2       1 FAD601      0.0000 
     31 C5X       -66.6310    7.6780   97.0580 C.ar      1 FAD601      0.0000 
     32 C6        -66.8560    6.8120   98.0690 C.ar      1 FAD601      0.0000 
     33 C7        -67.7220    7.1600   99.0650 C.ar      1 FAD601      0.0000 
     34 C7M       -68.0000    6.2160  100.2110 C.3       1 FAD601      0.0000 
     35 C8        -68.4180    8.4430   99.0330 C.ar      1 FAD601      0.0000 
     36 C8M       -69.3720    8.7970  100.1430 C.3       1 FAD601      0.0000 
     37 C9        -68.1980    9.3210   98.0110 C.ar      1 FAD601      0.0000 
     38 C9A       -67.3300    8.9840   97.0000 C.ar      1 FAD601      0.0000 
     39 N10       -67.0630    9.8680   95.9120 N.pl3     1 FAD601      0.0000 
     40 C10       -66.1530    9.4670   94.9290 C.2       1 FAD601      0.0000 
     41 C1'       -67.6110   11.2160   95.7500 C.3       1 FAD601      0.0000 
     42 C2'       -66.8010   12.2090   96.5910 C.3       1 FAD601      0.0000 
     43 O2'       -67.8500   13.0370   97.0720 O.3       1 FAD601      0.0000 
     44 C3'       -65.7160   13.0400   95.8830 C.3       1 FAD601      0.0000 
     45 O3'       -64.6160   12.2180   95.4200 O.3       1 FAD601      0.0000 
     46 C4'       -65.1320   14.1760   96.7820 C.3       1 FAD601      0.0000 
     47 O4'       -64.6150   13.6550   98.0000 O.3       1 FAD601      0.0000 
     48 C5'       -66.0610   15.3070   97.2710 C.3       1 FAD601      0.0000 
     49 O5'       -65.3170   16.3720   97.8370 O.3       1 FAD601      0.0000 
     50 P         -65.9280   17.7930   98.2340 P.3       1 FAD601      0.0000 
     51 O1P       -64.8360   18.8490   98.4520 O.co2     1 FAD601      0.0000 
     52 O2P       -67.0840   18.2040   97.3380 O.co2     1 FAD601      0.0000 
     53 O3P       -66.7090   17.5040   99.6350 O.3       1 FAD601      0.0000 
@<TRIPOS>BOND
     1    1    2 ar   
     2    1    3 ar   
     3    1    4 1    
     4    1   53 1    
     5    4    5 1    
     6    5    6 1    
     7    6    7 1    
     8    6    8 1    
     9    7   12 1    
    10    8    9 1    
    11    8   10 1    
    12   10   11 1    
    13   10   12 1    
    14   12   13 1    
    15   13   14 1    
    16   13   22 1    
    17   14   15 2    
    18   15   16 1    
    19   16   17 ar   
    20   16   22 ar   
    21   17   18 1    
    22   17   19 ar   
    23   19   20 ar   
    24   20   21 ar   
    25   21   22 ar   
    26   23   24 1    
    27   23   40 2    
    28   24   25 2    
    29   24   26 am   
    30   26   27 am   
    31   27   28 2    
    32   27   29 1    
    33   29   30 2    
    34   29   40 1    
    35   30   31 1    
    36   31   32 ar   
    37   31   38 ar   
    38   32   33 ar   
    39   33   34 1    
    40   33   35 ar   
    41   35   36 1    
    42   35   37 ar   
    43   37   38 ar   
    44   38   39 1    
    45   39   40 1    
    46   39   41 1    
    47   41   42 1    
    48   42   43 1    
    49   42   44 1    
    50   44   45 1    
    51   44   46 1    
    52   46   47 1    
    53   46   48 1    
    54   48   49 1    
    55   49   50 1    
    56   50   51 ar   
    57   50   52 ar   
    58   50   53 1    
@<TRIPOS>SUBSTRUCTURE
     1 FAD601      1 GROUP   
@<TRIPOS>SET
ATOM$ORANGE STATIC     ATOMS   COLORGROUP SYSTEM 
54 5 5 6 6 8 8 10 10 12 12 14 14 16 16 17 17 20 \
20 22 22 24 24 27 27 29 29 31 31 32 32 33 33 34 34 35 \
35 36 36 37 37 38 38 40 40 41 41 42 42 44 44 46 46 48 \
48 

