#    Name: 6se3_5_FAD
#    Modification time : Fri May 22 19:33:58 2020

@<TRIPOS>MOLECULE
6se3_5_FAD
   53    58     1     0     1
SMALL
NO_CHARGES


@<TRIPOS>ATOM
      1 PA       -101.0220  -29.8920   17.7030 P.3       1 FAD601      0.0000 
      2 O1A      -101.3490  -28.5750   17.0080 O.co2     1 FAD601      0.0000 
      3 O2A       -99.5800  -30.4870   17.7640 O.co2     1 FAD601      0.0000 
      4 O5B      -101.9960  -31.1060   17.2370 O.3       1 FAD601      0.0000 
      5 C5B      -103.2720  -30.8430   16.6530 C.3       1 FAD601      0.0000 
      6 C4B      -103.6720  -31.8700   15.6030 C.3       1 FAD601      0.0000 
      7 O4B      -105.0810  -31.8960   15.4750 O.3       1 FAD601      0.0000 
      8 C3B      -103.1460  -31.5670   14.2320 C.3       1 FAD601      0.0000 
      9 O3B      -102.4970  -32.7490   13.7770 O.3       1 FAD601      0.0000 
     10 C2B      -104.3550  -31.2860   13.3680 C.3       1 FAD601      0.0000 
     11 O2B      -104.1480  -31.8570   12.0590 O.3       1 FAD601      0.0000 
     12 C1B      -105.4640  -31.9750   14.1260 C.3       1 FAD601      0.0000 
     13 N9A      -106.8140  -31.3590   13.9860 N.pl3     1 FAD601      0.0000 
     14 C8A      -107.1940  -30.1080   14.3070 C.2       1 FAD601      0.0000 
     15 N7A      -108.5080  -29.9000   14.0670 N.2       1 FAD601      0.0000 
     16 C5A      -108.9520  -31.0570   13.5820 C.ar      1 FAD601      0.0000 
     17 C6A      -110.2360  -31.5380   13.1170 C.ar      1 FAD601      0.0000 
     18 N6A      -111.2980  -30.7000   13.1290 N.pl3     1 FAD601      0.0000 
     19 N1A      -110.3110  -32.8170   12.6960 N.ar      1 FAD601      0.0000 
     20 C2A      -109.2640  -33.6590   12.6910 C.ar      1 FAD601      0.0000 
     21 N3A      -108.0620  -33.2690   13.1000 N.ar      1 FAD601      0.0000 
     22 C4A      -107.8650  -32.0070   13.5350 C.ar      1 FAD601      0.0000 
     23 N1        -94.1590  -27.4030   24.0070 N.2       1 FAD601      0.0000 
     24 C2        -93.2370  -27.9660   24.8170 C.2       1 FAD601      0.0000 
     25 O2        -93.5540  -28.7420   25.7840 O.2       1 FAD601      0.0000 
     26 N3        -91.9430  -27.7090   24.5710 N.am      1 FAD601      0.0000 
     27 C4        -91.4770  -26.9190   23.5720 C.2       1 FAD601      0.0000 
     28 O4        -90.2420  -26.6940   23.3740 O.2       1 FAD601      0.0000 
     29 C4X       -92.4370  -26.2780   22.6630 C.2       1 FAD601      0.0000 
     30 N5        -92.0260  -25.4820   21.6470 N.2       1 FAD601      0.0000 
     31 C5X       -92.9390  -24.9290   20.8440 C.ar      1 FAD601      0.0000 
     32 C6        -92.4880  -24.1440   19.8050 C.ar      1 FAD601      0.0000 
     33 C7        -93.3850  -23.5180   18.9660 C.ar      1 FAD601      0.0000 
     34 C7M       -92.8350  -22.6630   17.8700 C.3       1 FAD601      0.0000 
     35 C8        -94.8550  -23.7160   19.1680 C.ar      1 FAD601      0.0000 
     36 C8M       -95.8470  -23.0720   18.2590 C.3       1 FAD601      0.0000 
     37 C9        -95.3070  -24.5370   20.1890 C.ar      1 FAD601      0.0000 
     38 C9A       -94.4050  -25.1380   21.0570 C.ar      1 FAD601      0.0000 
     39 N10       -94.8290  -25.9790   22.1040 N.pl3     1 FAD601      0.0000 
     40 C10       -93.8580  -26.5810   22.9500 C.2       1 FAD601      0.0000 
     41 C1'       -96.2430  -26.1930   22.4020 C.3       1 FAD601      0.0000 
     42 C2'       -97.0520  -27.2470   21.6870 C.3       1 FAD601      0.0000 
     43 O2'       -98.3460  -26.6790   21.8000 O.3       1 FAD601      0.0000 
     44 C3'       -97.0540  -28.6170   22.3320 C.3       1 FAD601      0.0000 
     45 O3'       -95.7390  -29.1110   22.5830 O.3       1 FAD601      0.0000 
     46 C4'       -97.6640  -29.5850   21.3820 C.3       1 FAD601      0.0000 
     47 O4'       -96.9190  -29.4560   20.1910 O.3       1 FAD601      0.0000 
     48 C5'       -99.1010  -29.3480   20.9650 C.3       1 FAD601      0.0000 
     49 O5'       -99.6090  -30.6050   20.5040 O.3       1 FAD601      0.0000 
     50 P        -101.2010  -30.8050   20.3890 P.3       1 FAD601      0.0000 
     51 O1P      -101.4140  -32.3050   20.0610 O.co2     1 FAD601      0.0000 
     52 O2P      -101.8270  -30.1290   21.5820 O.co2     1 FAD601      0.0000 
     53 O3P      -101.5260  -29.7320   19.2260 O.3       1 FAD601      0.0000 
@<TRIPOS>BOND
     1    1    2 ar   
     2    1    3 ar   
     3    1    4 1    
     4    1   53 1    
     5    4    5 1    
     6    5    6 1    
     7    6    7 1    
     8    6    8 1    
     9    7   12 1    
    10    8    9 1    
    11    8   10 1    
    12   10   11 1    
    13   10   12 1    
    14   12   13 1    
    15   13   14 1    
    16   13   22 1    
    17   14   15 2    
    18   15   16 1    
    19   16   17 ar   
    20   16   22 ar   
    21   17   18 1    
    22   17   19 ar   
    23   19   20 ar   
    24   20   21 ar   
    25   21   22 ar   
    26   23   24 1    
    27   23   40 2    
    28   24   25 2    
    29   24   26 am   
    30   26   27 am   
    31   27   28 2    
    32   27   29 1    
    33   29   30 2    
    34   29   40 1    
    35   30   31 1    
    36   31   32 ar   
    37   31   38 ar   
    38   32   33 ar   
    39   33   34 1    
    40   33   35 ar   
    41   35   36 1    
    42   35   37 ar   
    43   37   38 ar   
    44   38   39 1    
    45   39   40 1    
    46   39   41 1    
    47   41   42 1    
    48   42   43 1    
    49   42   44 1    
    50   44   45 1    
    51   44   46 1    
    52   46   47 1    
    53   46   48 1    
    54   48   49 1    
    55   49   50 1    
    56   50   51 ar   
    57   50   52 ar   
    58   50   53 1    
@<TRIPOS>SUBSTRUCTURE
     1 FAD601      1 GROUP   
@<TRIPOS>SET
ATOM$ORANGE STATIC     ATOMS   COLORGROUP SYSTEM 
54 5 5 6 6 8 8 10 10 12 12 14 14 16 16 17 17 20 \
20 22 22 24 24 27 27 29 29 31 31 32 32 33 33 34 34 35 \
35 36 36 37 37 38 38 40 40 41 41 42 42 44 44 46 46 48 \
48 

