#    Name: 5zxu_1_NDP
#    Modification time : Fri May 22 19:31:49 2020

@<TRIPOS>MOLECULE
5zxu_1_NDP
   48    52     1     0     1
SMALL
NO_CHARGES


@<TRIPOS>ATOM
      1 PA         12.8340  -28.3850   -6.2050 P.3       1 NDP401      0.0000 
      2 O1A        12.3150  -28.7080   -7.5650 O.co2     1 NDP401      0.0000 
      3 O2A        11.9390  -27.8160   -5.1420 O.co2     1 NDP401      0.0000 
      4 O5B        13.6300  -29.6980   -5.6040 O.3       1 NDP401      0.0000 
      5 C5B        14.6900  -29.9020   -6.4890 C.3       1 NDP401      0.0000 
      6 C4B        14.3210  -31.0340   -7.4190 C.3       1 NDP401      0.0000 
      7 O4B        15.2590  -31.1610   -8.4580 O.3       1 NDP401      0.0000 
      8 C3B        14.3550  -32.3580   -6.6620 C.3       1 NDP401      0.0000 
      9 O3B        13.2210  -32.4930   -5.8680 O.3       1 NDP401      0.0000 
     10 C2B        14.2540  -33.3230   -7.8600 C.3       1 NDP401      0.0000 
     11 O2B        13.0070  -33.5070   -8.2780 O.3       1 NDP401      0.0000 
     12 C1B        15.0500  -32.4850   -8.9740 C.3       1 NDP401      0.0000 
     13 N9A        16.3580  -33.0750   -9.3430 N.pl3     1 NDP401      0.0000 
     14 C8A        17.5730  -33.0600   -8.6280 C.2       1 NDP401      0.0000 
     15 N7A        18.5800  -33.6990   -9.2700 N.2       1 NDP401      0.0000 
     16 C5A        17.9840  -34.1480  -10.4630 C.ar      1 NDP401      0.0000 
     17 C6A        18.4930  -34.8740  -11.5550 C.ar      1 NDP401      0.0000 
     18 N6A        19.8130  -35.2790  -11.5750 N.pl3     1 NDP401      0.0000 
     19 N1A        17.7050  -35.2010  -12.6250 N.ar      1 NDP401      0.0000 
     20 C2A        16.4000  -34.7680  -12.5380 C.ar      1 NDP401      0.0000 
     21 N3A        15.7680  -34.0720  -11.5790 N.ar      1 NDP401      0.0000 
     22 C4A        16.6020  -33.7660  -10.5230 C.ar      1 NDP401      0.0000 
     23 O3         13.9410  -27.2130   -6.5570 O.3       1 NDP401      0.0000 
     24 PN         13.1640  -25.8800   -6.9380 P.3       1 NDP401      0.0000 
     25 O1N        13.3650  -24.9030   -5.8480 O.co2     1 NDP401      0.0000 
     26 O2N        11.8350  -26.1000   -7.6270 O.co2     1 NDP401      0.0000 
     27 O5D        14.0670  -25.1000   -8.2260 O.3       1 NDP401      0.0000 
     28 C5D        14.2590  -26.0740   -9.1780 C.3       1 NDP401      0.0000 
     29 C4D        15.1970  -25.5340  -10.2520 C.3       1 NDP401      0.0000 
     30 O4D        14.9260  -24.1380  -10.4950 O.3       1 NDP401      0.0000 
     31 C3D        16.6600  -25.6310   -9.7290 C.3       1 NDP401      0.0000 
     32 O3D        17.4740  -25.9710  -10.7940 O.3       1 NDP401      0.0000 
     33 C2D        16.9310  -24.2050   -9.2700 C.3       1 NDP401      0.0000 
     34 O2D        18.2660  -23.8480   -9.3790 O.3       1 NDP401      0.0000 
     35 C1D        16.1300  -23.4140  -10.3330 C.3       1 NDP401      0.0000 
     36 N1N        15.8130  -22.0800   -9.8190 N.pl3     1 NDP401      0.0000 
     37 C2N        16.1900  -20.9720  -10.5390 C.2       1 NDP401      0.0000 
     38 C3N        15.7580  -19.7320  -10.1880 C.2       1 NDP401      0.0000 
     39 C7N        16.2130  -18.6280  -11.0210 C.2       1 NDP401      0.0000 
     40 O7N        16.2170  -17.4400  -10.6730 O.2       1 NDP401      0.0000 
     41 N7N        16.6630  -18.9480  -12.2900 N.am      1 NDP401      0.0000 
     42 C4N        14.8660  -19.5000   -9.0200 C.3       1 NDP401      0.0000 
     43 C5N        14.6810  -20.7270   -8.2020 C.2       1 NDP401      0.0000 
     44 C6N        15.1300  -21.9220   -8.5980 C.2       1 NDP401      0.0000 
     45 P2B        12.6440  -35.2380   -8.7460 P.3       1 NDP401      0.0000 
     46 O1X        13.9430  -35.5180   -9.4350 O.co2     1 NDP401      0.0000 
     47 O2X        11.3940  -35.1030   -9.6220 O.co2     1 NDP401      0.0000 
     48 O3X        12.4590  -35.7900   -7.3610 O.co2     1 NDP401      0.0000 
@<TRIPOS>BOND
     1    1    2 ar   
     2    1    3 ar   
     3    1    4 1    
     4    1   23 1    
     5    4    5 1    
     6    5    6 1    
     7    6    7 1    
     8    6    8 1    
     9    7   12 1    
    10    8    9 1    
    11    8   10 1    
    12   10   11 1    
    13   10   12 1    
    14   11   45 1    
    15   12   13 1    
    16   13   14 1    
    17   13   22 1    
    18   14   15 2    
    19   15   16 1    
    20   16   17 ar   
    21   16   22 ar   
    22   17   18 1    
    23   17   19 ar   
    24   19   20 ar   
    25   20   21 ar   
    26   21   22 ar   
    27   23   24 1    
    28   24   25 ar   
    29   24   26 ar   
    30   24   27 1    
    31   27   28 1    
    32   28   29 1    
    33   29   30 1    
    34   29   31 1    
    35   30   35 1    
    36   31   32 1    
    37   31   33 1    
    38   33   34 1    
    39   33   35 1    
    40   35   36 1    
    41   36   37 1    
    42   36   44 1    
    43   37   38 2    
    44   38   39 1    
    45   38   42 1    
    46   39   40 2    
    47   39   41 am   
    48   42   43 1    
    49   43   44 2    
    50   45   46 ar   
    51   45   47 ar   
    52   45   48 ar   
@<TRIPOS>SUBSTRUCTURE
     1 NDP401      1 GROUP   
@<TRIPOS>SET
ATOM$ORANGE STATIC     ATOMS   COLORGROUP SYSTEM 
42 5 5 6 6 8 8 10 10 12 12 14 14 16 16 17 17 20 \
20 22 22 28 28 29 29 31 31 33 33 35 35 37 37 38 38 39 \
39 42 42 43 43 44 44 

