#    Name: 6t1t_1_FMN_CAVITY_N1_6
#    Modification time : Fri May 22 19:25:46 2020

@<TRIPOS>MOLECULE
6t1t_1_FMN_CAVITY_N1_6
   43     0     7     0     0
SMALL
NO_CHARGES


@<TRIPOS>ATOM
      1 OG        -29.6000   -6.3100  -14.4200 O.3       1 SER1        0.0000 
      2 N         -33.3400   -5.3700  -18.5000 N.am      2 ALA2        0.0000 
      3 N         -27.8500   -5.0100  -19.5900 N.am      2 ALA2        0.0000 
      4 O         -30.3200   -3.3800  -19.1500 O.2       2 ALA2        0.0000 
      5 N         -28.4300   -6.1200  -18.7600 N.am      2 ALA2        0.0000 
      6 O         -31.5300   -3.0700  -16.8700 O.2       2 ALA2        0.0000 
      7 OD1       -30.8700   -4.9900  -16.2600 O.co2     3 ASP3        0.0000 
      8 OD1       -32.1100   -4.1700  -16.0400 O.co2     3 ASP3        0.0000 
      9 OD1       -32.6900   -5.2800  -15.2100 O.co2     3 ASP3        0.0000 
     10 OD1       -30.9200   -2.4700  -15.6400 O.co2     3 ASP3        0.0000 
     11 OD1       -29.0200   -5.2100  -15.2500 O.co2     3 ASP3        0.0000 
     12 OD1       -30.2600   -4.3900  -15.0300 O.co2     3 ASP3        0.0000 
     13 OD1       -28.4100   -4.6100  -14.0200 O.co2     3 ASP3        0.0000 
     14 NZ        -32.1000   -6.1900  -18.7200 N.4       4 LYS4        0.0000 
     15 NZ        -30.2500   -6.4100  -17.7100 N.4       4 LYS4        0.0000 
     16 CZ        -29.0900   -4.1900  -19.3700 C.ar      5 PHE5        0.0000 
     17 CZ        -31.4900   -5.5900  -17.4900 C.ar      5 PHE5        0.0000 
     18 CZ        -32.0700   -6.7000  -16.6600 C.ar      5 PHE5        0.0000 
     19 CZ        -33.3100   -5.8800  -16.4400 C.ar      5 PHE5        0.0000 
     20 CZ        -27.2300   -4.4100  -18.3600 C.ar      5 PHE5        0.0000 
     21 CZ        -28.4700   -3.5900  -18.1400 C.ar      5 PHE5        0.0000 
     22 CZ        -29.0500   -4.7000  -17.3100 C.ar      5 PHE5        0.0000 
     23 CZ        -30.2900   -3.8800  -17.0900 C.ar      5 PHE5        0.0000 
     24 CZ        -29.6300   -5.8100  -16.4800 C.ar      5 PHE5        0.0000 
     25 CZ        -31.4500   -6.1000  -15.4300 C.ar      5 PHE5        0.0000 
     26 CZ        -26.6200   -3.8100  -17.1300 C.ar      5 PHE5        0.0000 
     27 CZ        -27.2000   -4.9200  -16.3000 C.ar      5 PHE5        0.0000 
     28 CZ        -28.4400   -4.1000  -16.0800 C.ar      5 PHE5        0.0000 
     29 CZ        -29.6800   -3.2800  -15.8600 C.ar      5 PHE5        0.0000 
     30 CZ        -27.7800   -6.0200  -15.4700 C.ar      5 PHE5        0.0000 
     31 CZ        -26.5900   -4.3200  -15.0700 C.ar      5 PHE5        0.0000 
     32 CZ        -27.1700   -5.4200  -14.2400 C.ar      5 PHE5        0.0000 
     33 CA        -32.7600   -4.2700  -19.3300 C.3       6 GLY6        0.0000 
     34 CA        -34.5800   -4.5600  -18.2800 C.3       6 GLY6        0.0000 
     35 CA        -32.1400   -3.6700  -18.1000 C.3       6 GLY6        0.0000 
     36 CA        -33.9600   -3.9600  -17.0500 C.3       6 GLY6        0.0000 
     37 CA        -32.7700   -2.2500  -16.6500 C.3       6 GLY6        0.0000 
     38 CA        -31.5700   -0.5400  -16.2500 C.3       6 GLY6        0.0000 
     39 CA        -27.8200   -3.5000  -14.8500 C.3       6 GLY6        0.0000 
     40 DU        -29.6700   -5.3000  -18.5400 H         7 CUB7        0.0000 
     41 DU        -30.9100   -4.4800  -18.3200 H         7 CUB7        0.0000 
     42 DU        -32.7300   -4.7700  -17.2700 H         7 CUB7        0.0000 
     43 DU        -27.8100   -5.5200  -17.5300 H         7 CUB7        0.0000 
@<TRIPOS>BOND
@<TRIPOS>SUBSTRUCTURE
     1 SER1        1 GROUP   
     2 ALA2        2 GROUP   
     3 ASP3        7 GROUP   
     4 LYS4       14 GROUP   
     5 PHE5       16 GROUP   
     6 GLY6       33 GROUP   
     7 CUB7       40 GROUP   
@<TRIPOS>SET

