#    Name: 6t1t_2_NDP_CAVITY_N1_ALL
#    Modification time : Fri May 22 19:26:07 2020

@<TRIPOS>MOLECULE
6t1t_2_NDP_CAVITY_N1_ALL
   99     0     7     0     0
SMALL
NO_CHARGES


@<TRIPOS>ATOM
      1 OG        -24.7700  -15.1100  -36.3200 O.3       1 SER1        0.0000 
      2 OG        -26.5900  -15.4000  -35.2700 O.3       1 SER1        0.0000 
      3 OG        -24.6900  -18.1400  -34.8800 O.3       1 SER1        0.0000 
      4 OG        -24.7400  -15.6200  -34.2600 O.3       1 SER1        0.0000 
      5 OG        -24.0800  -17.5400  -33.6500 O.3       1 SER1        0.0000 
      6 OG        -25.3200  -16.7200  -33.4300 O.3       1 SER1        0.0000 
      7 OG        -24.0000  -20.5700  -32.2100 O.3       1 SER1        0.0000 
      8 OG        -25.2400  -19.7500  -31.9900 O.3       1 SER1        0.0000 
      9 OG        -25.8200  -20.8600  -31.1600 O.3       1 SER1        0.0000 
     10 OG        -23.4100  -15.9400  -25.6200 O.3       1 SER1        0.0000 
     11 OG        -23.9900  -17.0400  -24.7900 O.3       1 SER1        0.0000 
     12 O         -29.6500  -14.8700  -34.0000 O.2       2 ALA2        0.0000 
     13 O         -28.4500  -13.1700  -33.6000 O.2       2 ALA2        0.0000 
     14 N         -27.0300  -20.5500  -28.8800 N.am      2 ALA2        0.0000 
     15 O         -27.0700  -18.0300  -28.2600 O.2       2 ALA2        0.0000 
     16 O         -25.8400  -16.8300  -25.8000 O.2       2 ALA2        0.0000 
     17 OD1       -26.0100  -14.3000  -36.1000 O.co2     3 ASP3        0.0000 
     18 OD1       -27.2500  -13.4800  -35.8800 O.co2     3 ASP3        0.0000 
     19 OD1       -25.9700  -14.8000  -34.0400 O.co2     3 ASP3        0.0000 
     20 OD1       -22.8400  -18.3600  -33.8700 O.co2     3 ASP3        0.0000 
     21 OD1       -23.4200  -19.4600  -33.0400 O.co2     3 ASP3        0.0000 
     22 OD1       -22.8100  -18.8600  -31.8100 O.co2     3 ASP3        0.0000 
     23 OD1       -23.3900  -19.9700  -30.9800 O.co2     3 ASP3        0.0000 
     24 OD1       -20.9500  -19.0800  -30.8000 O.co2     3 ASP3        0.0000 
     25 OD1       -22.7700  -19.3700  -29.7500 O.co2     3 ASP3        0.0000 
     26 OD1       -23.3500  -20.4800  -28.9200 O.co2     3 ASP3        0.0000 
     27 OD1       -22.1600  -18.7700  -28.5200 O.co2     3 ASP3        0.0000 
     28 OD1       -23.9800  -19.0600  -27.4700 O.co2     3 ASP3        0.0000 
     29 OD1       -21.5500  -18.1700  -27.2900 O.co2     3 ASP3        0.0000 
     30 OD1       -23.3700  -18.4600  -26.2400 O.co2     3 ASP3        0.0000 
     31 NZ        -29.0700  -13.7700  -34.8300 N.4       4 LYS4        0.0000 
     32 NZ        -26.6000  -13.3900  -32.5900 N.4       4 LYS4        0.0000 
     33 NZ        -25.9400  -15.3100  -31.9800 N.4       4 LYS4        0.0000 
     34 NZ        -27.1800  -14.4900  -31.7600 N.4       4 LYS4        0.0000 
     35 NZ        -24.5500  -22.1800  -29.3200 N.4       4 LYS4        0.0000 
     36 NZ        -25.3300  -14.7100  -30.7500 N.4       4 LYS4        0.0000 
     37 NZ        -23.9400  -21.5800  -28.0900 N.4       4 LYS4        0.0000 
     38 CZ        -27.8300  -14.5900  -35.0500 C.ar      5 PHE5        0.0000 
     39 CZ        -27.1700  -16.5100  -34.4400 C.ar      5 PHE5        0.0000 
     40 CZ        -28.4100  -15.6900  -34.2200 C.ar      5 PHE5        0.0000 
     41 CZ        -25.2700  -19.2500  -34.0500 C.ar      5 PHE5        0.0000 
     42 CZ        -26.5100  -18.4300  -33.8300 C.ar      5 PHE5        0.0000 
     43 CZ        -27.7500  -17.6100  -33.6100 C.ar      5 PHE5        0.0000 
     44 CZ        -28.9900  -16.8000  -33.3900 C.ar      5 PHE5        0.0000 
     45 CZ        -27.0900  -19.5400  -33.0000 C.ar      5 PHE5        0.0000 
     46 CZ        -28.3300  -18.7200  -32.7800 C.ar      5 PHE5        0.0000 
     47 CA        -23.4500  -18.9600  -35.1000 C.3       6 GLY6        0.0000 
     48 CA        -27.2100  -13.9900  -33.8200 C.3       6 GLY6        0.0000 
     49 CA        -27.7900  -15.0900  -32.9900 C.3       6 GLY6        0.0000 
     50 CA        -28.3800  -16.2000  -32.1600 C.3       6 GLY6        0.0000 
     51 CA        -28.9600  -17.3000  -31.3300 C.3       6 GLY6        0.0000 
     52 CA        -24.5800  -21.6800  -31.3800 C.3       6 GLY6        0.0000 
     53 CA        -28.3000  -19.2300  -30.7200 C.3       6 GLY6        0.0000 
     54 CA        -25.3600  -14.2000  -32.8100 C.3       6 GLY6        0.0000 
     55 CA        -27.7600  -15.6000  -30.9300 C.3       6 GLY6        0.0000 
     56 CA        -28.3400  -16.7000  -30.1000 C.3       6 GLY6        0.0000 
     57 CA        -23.9700  -21.0800  -30.1500 C.3       6 GLY6        0.0000 
     58 CA        -27.6900  -18.6300  -29.4900 C.3       6 GLY6        0.0000 
     59 CA        -25.7900  -21.3700  -29.1000 C.3       6 GLY6        0.0000 
     60 CA        -25.9100  -15.8100  -29.9200 C.3       6 GLY6        0.0000 
     61 CA        -27.1500  -15.0000  -29.7000 C.3       6 GLY6        0.0000 
     62 CA        -25.8300  -18.8400  -28.4800 C.3       6 GLY6        0.0000 
     63 CA        -25.1800  -20.7700  -27.8700 C.3       6 GLY6        0.0000 
     64 CA        -25.2900  -15.2100  -28.6900 C.3       6 GLY6        0.0000 
     65 CA        -25.8800  -16.3200  -27.8600 C.3       6 GLY6        0.0000 
     66 CA        -25.2200  -18.2400  -27.2500 C.3       6 GLY6        0.0000 
     67 CA        -24.5600  -20.1700  -26.6400 C.3       6 GLY6        0.0000 
     68 CA        -25.2600  -15.7200  -26.6300 C.3       6 GLY6        0.0000 
     69 CA        -24.6000  -17.6400  -26.0200 C.3       6 GLY6        0.0000 
     70 CA        -23.9500  -19.5700  -25.4100 C.3       6 GLY6        0.0000 
     71 CA        -22.7500  -17.8600  -25.0100 C.3       6 GLY6        0.0000 
     72 CA        -21.5600  -16.1500  -24.6100 C.3       6 GLY6        0.0000 
     73 CA        -22.7900  -15.3400  -24.3900 C.3       6 GLY6        0.0000 
     74 DU        -26.5600  -15.9100  -33.2100 H         7 CUB7        0.0000 
     75 DU        -24.6600  -18.6500  -32.8200 H         7 CUB7        0.0000 
     76 DU        -25.9000  -17.8300  -32.6000 H         7 CUB7        0.0000 
     77 DU        -27.1400  -17.0100  -32.3800 H         7 CUB7        0.0000 
     78 DU        -26.4800  -18.9400  -31.7700 H         7 CUB7        0.0000 
     79 DU        -27.7200  -18.1200  -31.5500 H         7 CUB7        0.0000 
     80 DU        -27.0600  -20.0400  -30.9400 H         7 CUB7        0.0000 
     81 DU        -24.7000  -16.1200  -32.2000 H         7 CUB7        0.0000 
     82 DU        -26.5200  -16.4100  -31.1500 H         7 CUB7        0.0000 
     83 DU        -24.6300  -19.1500  -30.7600 H         7 CUB7        0.0000 
     84 DU        -27.1000  -17.5200  -30.3200 H         7 CUB7        0.0000 
     85 DU        -25.2100  -20.2600  -29.9300 H         7 CUB7        0.0000 
     86 DU        -26.4500  -19.4400  -29.7100 H         7 CUB7        0.0000 
     87 DU        -22.1900  -18.2600  -30.5800 H         7 CUB7        0.0000 
     88 DU        -24.6700  -16.6300  -30.1400 H         7 CUB7        0.0000 
     89 DU        -24.0100  -18.5500  -29.5300 H         7 CUB7        0.0000 
     90 DU        -25.2500  -17.7400  -29.3100 H         7 CUB7        0.0000 
     91 DU        -26.4900  -16.9200  -29.0900 H         7 CUB7        0.0000 
     92 DU        -24.5900  -19.6600  -28.7000 H         7 CUB7        0.0000 
     93 DU        -24.0600  -16.0300  -28.9100 H         7 CUB7        0.0000 
     94 DU        -23.4000  -17.9500  -28.3000 H         7 CUB7        0.0000 
     95 DU        -24.6400  -17.1400  -28.0800 H         7 CUB7        0.0000 
     96 DU        -23.4400  -15.4300  -27.6800 H         7 CUB7        0.0000 
     97 DU        -22.7800  -17.3500  -27.0700 H         7 CUB7        0.0000 
     98 DU        -24.0200  -16.5400  -26.8500 H         7 CUB7        0.0000 
     99 DU        -22.1700  -16.7500  -25.8400 H         7 CUB7        0.0000 
@<TRIPOS>BOND
@<TRIPOS>SUBSTRUCTURE
     1 SER1        1 GROUP   
     2 ALA2       12 GROUP   
     3 ASP3       17 GROUP   
     4 LYS4       31 GROUP   
     5 PHE5       38 GROUP   
     6 GLY6       47 GROUP   
     7 CUB7       74 GROUP   
@<TRIPOS>SET

