#    Name: 6t1t_1_FMN
#    Modification time : Fri May 22 19:25:45 2020

@<TRIPOS>MOLECULE
6t1t_1_FMN
   31    33     1     0     1
SMALL
NO_CHARGES


@<TRIPOS>ATOM
      1 N1        -27.8060    1.6990  -24.1820 N.2       1 FMN701      0.0000 
      2 C2        -28.8100    2.4470  -24.7310 C.2       1 FMN701      0.0000 
      3 O2        -28.4880    3.4490  -25.4210 O.2       1 FMN701      0.0000 
      4 N3        -30.1220    2.1410  -24.5800 N.am      1 FMN701      0.0000 
      5 C4        -30.5350    1.0890  -23.8540 C.2       1 FMN701      0.0000 
      6 O4        -31.7450    0.8130  -23.6890 O.2       1 FMN701      0.0000 
      7 C4A       -29.5010    0.2310  -23.2160 C.2       1 FMN701      0.0000 
      8 N5        -29.8540   -0.8420  -22.4690 N.2       1 FMN701      0.0000 
      9 C5A       -28.9180   -1.6230  -21.8850 C.ar      1 FMN701      0.0000 
     10 C6        -29.3320   -2.7460  -21.1550 C.ar      1 FMN701      0.0000 
     11 C7        -28.3840   -3.5720  -20.5620 C.ar      1 FMN701      0.0000 
     12 C7M       -28.8740   -4.7410  -19.7610 C.3       1 FMN701      0.0000 
     13 C8        -26.9250   -3.2610  -20.7040 C.ar      1 FMN701      0.0000 
     14 C8M       -25.8450   -4.1190  -20.0720 C.3       1 FMN701      0.0000 
     15 C9        -26.5310   -2.1700  -21.4570 C.ar      1 FMN701      0.0000 
     16 C9A       -27.4590   -1.3260  -22.0560 C.ar      1 FMN701      0.0000 
     17 N10       -27.0630   -0.1890  -22.8230 N.pl3     1 FMN701      0.0000 
     18 C10       -28.0730    0.6070  -23.4200 C.2       1 FMN701      0.0000 
     19 C1'       -25.6420    0.1540  -23.0070 C.3       1 FMN701      0.0000 
     20 C2'       -25.0540    0.7610  -21.7260 C.3       1 FMN701      0.0000 
     21 O2'       -25.7390    1.9920  -21.4460 O.3       1 FMN701      0.0000 
     22 C3'       -23.5320    0.9360  -21.8820 C.3       1 FMN701      0.0000 
     23 O3'       -22.9680   -0.3720  -21.8080 O.3       1 FMN701      0.0000 
     24 C4'       -22.8740    1.8940  -20.8620 C.3       1 FMN701      0.0000 
     25 O4'       -21.5770    2.2680  -21.2850 O.3       1 FMN701      0.0000 
     26 C5'       -22.7450    1.3410  -19.4510 C.3       1 FMN701      0.0000 
     27 O5'       -22.4300    2.4030  -18.5490 O.3       1 FMN701      0.0000 
     28 P         -22.1710    2.1750  -16.9620 P.3       1 FMN701      0.0000 
     29 O1P       -21.9750    3.6000  -16.4780 O.co2     1 FMN701      0.0000 
     30 O2P       -20.9700    1.2250  -16.9670 O.co2     1 FMN701      0.0000 
     31 O3P       -23.4170    1.5720  -16.3860 O.co2     1 FMN701      0.0000 
@<TRIPOS>BOND
     1    1    2 1    
     2    1   18 2    
     3    2    3 2    
     4    2    4 am   
     5    4    5 am   
     6    5    6 2    
     7    5    7 1    
     8    7    8 2    
     9    7   18 1    
    10    8    9 1    
    11    9   10 ar   
    12    9   16 ar   
    13   10   11 ar   
    14   11   12 1    
    15   11   13 ar   
    16   13   14 1    
    17   13   15 ar   
    18   15   16 ar   
    19   16   17 1    
    20   17   18 1    
    21   17   19 1    
    22   19   20 1    
    23   20   21 1    
    24   20   22 1    
    25   22   23 1    
    26   22   24 1    
    27   24   25 1    
    28   24   26 1    
    29   26   27 1    
    30   27   28 1    
    31   28   29 ar   
    32   28   30 ar   
    33   28   31 ar   
@<TRIPOS>SUBSTRUCTURE
     1 FMN701      1 GROUP   
@<TRIPOS>SET
ATOM$ORANGE STATIC     ATOMS   COLORGROUP SYSTEM 
34 2 2 5 5 7 7 9 9 10 10 11 11 12 12 13 13 14 \
14 15 15 16 16 18 18 19 19 20 20 22 22 24 24 26 26 

