#    Name: 6t1t_0_FAD
#    Modification time : Fri May 22 19:25:35 2020

@<TRIPOS>MOLECULE
6t1t_0_FAD
   53    58     1     0     1
SMALL
NO_CHARGES


@<TRIPOS>ATOM
      1 PA        -14.8160   -9.5400  -17.9760 P.3       1 FAD700      0.0000 
      2 O1A       -13.7310   -9.5100  -16.9650 O.co2     1 FAD700      0.0000 
      3 O2A       -15.8860   -8.5290  -17.7250 O.co2     1 FAD700      0.0000 
      4 O5B       -14.1920   -9.4490  -19.4540 O.3       1 FAD700      0.0000 
      5 C5B       -15.0610   -9.2260  -20.5870 C.3       1 FAD700      0.0000 
      6 C4B       -14.4400   -9.8070  -21.8360 C.3       1 FAD700      0.0000 
      7 O4B       -13.2560   -9.0510  -22.1750 O.3       1 FAD700      0.0000 
      8 C3B       -13.9760  -11.2700  -21.7730 C.3       1 FAD700      0.0000 
      9 O3B       -14.3990  -11.9550  -22.9440 O.3       1 FAD700      0.0000 
     10 C2B       -12.4460  -11.1790  -21.7410 C.3       1 FAD700      0.0000 
     11 O2B       -11.8030  -12.3240  -22.2730 O.3       1 FAD700      0.0000 
     12 C1B       -12.2130   -9.9060  -22.5490 C.3       1 FAD700      0.0000 
     13 N9A       -11.0050   -9.1770  -22.2390 N.pl3     1 FAD700      0.0000 
     14 C8A       -10.2520   -9.2650  -21.0680 C.2       1 FAD700      0.0000 
     15 N7A        -9.2430   -8.4340  -21.0590 N.2       1 FAD700      0.0000 
     16 C5A        -9.3290   -7.7640  -22.2730 C.ar      1 FAD700      0.0000 
     17 C6A        -8.5410   -6.7480  -22.8410 C.ar      1 FAD700      0.0000 
     18 N6A        -7.4760   -6.2320  -22.2380 N.pl3     1 FAD700      0.0000 
     19 N1A        -8.9150   -6.2660  -24.0500 N.ar      1 FAD700      0.0000 
     20 C2A        -9.9840   -6.8190  -24.6480 C.ar      1 FAD700      0.0000 
     21 N3A       -10.8100   -7.7670  -24.2040 N.ar      1 FAD700      0.0000 
     22 C4A       -10.4220   -8.2010  -22.9970 C.ar      1 FAD700      0.0000 
     23 N1        -23.4260  -13.8850  -18.5550 N.2       1 FAD700      0.0000 
     24 C2        -23.6700  -15.2210  -18.4710 C.2       1 FAD700      0.0000 
     25 O2        -22.7890  -16.0620  -18.7830 O.2       1 FAD700      0.0000 
     26 N3        -24.8690  -15.6850  -18.0000 N.am      1 FAD700      0.0000 
     27 C4        -25.9190  -14.8270  -17.6990 C.2       1 FAD700      0.0000 
     28 O4        -26.9920  -15.2750  -17.2940 O.2       1 FAD700      0.0000 
     29 C4X       -25.7020  -13.4330  -17.8140 C.2       1 FAD700      0.0000 
     30 N5        -26.6850  -12.6060  -17.5240 N.2       1 FAD700      0.0000 
     31 C5X       -26.4410  -11.2610  -17.6580 C.ar      1 FAD700      0.0000 
     32 C6        -27.4620  -10.3360  -17.3570 C.ar      1 FAD700      0.0000 
     33 C7        -27.2470   -8.9770  -17.4420 C.ar      1 FAD700      0.0000 
     34 C7M       -28.3610   -8.0250  -17.1050 C.3       1 FAD700      0.0000 
     35 C8        -25.9710   -8.4930  -17.8540 C.ar      1 FAD700      0.0000 
     36 C8M       -25.6730   -7.0230  -17.9930 C.3       1 FAD700      0.0000 
     37 C9        -24.9790   -9.3830  -18.1550 C.ar      1 FAD700      0.0000 
     38 C9A       -25.1880  -10.7680  -18.0670 C.ar      1 FAD700      0.0000 
     39 N10       -24.1870  -11.6700  -18.3740 N.pl3     1 FAD700      0.0000 
     40 C10       -24.3930  -13.0370  -18.2560 C.2       1 FAD700      0.0000 
     41 C1'       -22.8460  -11.1440  -18.7090 C.3       1 FAD700      0.0000 
     42 C2'       -21.9910  -11.0020  -17.4070 C.3       1 FAD700      0.0000 
     43 O2'       -22.3450   -9.8770  -16.5650 O.3       1 FAD700      0.0000 
     44 C3'       -20.4930  -10.8790  -17.6770 C.3       1 FAD700      0.0000 
     45 O3'       -20.2800   -9.6820  -18.3950 O.3       1 FAD700      0.0000 
     46 C4'       -19.8480  -12.0550  -18.4150 C.3       1 FAD700      0.0000 
     47 O4'       -20.1600  -13.2760  -17.7440 O.3       1 FAD700      0.0000 
     48 C5'       -18.3470  -11.9100  -18.5030 C.3       1 FAD700      0.0000 
     49 O5'       -17.7690  -11.2920  -17.2930 O.3       1 FAD700      0.0000 
     50 P         -16.2710  -11.6640  -16.8390 P.3       1 FAD700      0.0000 
     51 O1P       -16.0000  -10.9000  -15.5860 O.co2     1 FAD700      0.0000 
     52 O2P       -16.0330  -13.1380  -16.9030 O.co2     1 FAD700      0.0000 
     53 O3P       -15.4770  -10.9910  -18.0460 O.3       1 FAD700      0.0000 
@<TRIPOS>BOND
     1    1    2 ar   
     2    1    3 ar   
     3    1    4 1    
     4    1   53 1    
     5    4    5 1    
     6    5    6 1    
     7    6    7 1    
     8    6    8 1    
     9    7   12 1    
    10    8    9 1    
    11    8   10 1    
    12   10   11 1    
    13   10   12 1    
    14   12   13 1    
    15   13   14 1    
    16   13   22 1    
    17   14   15 2    
    18   15   16 1    
    19   16   17 ar   
    20   16   22 ar   
    21   17   18 1    
    22   17   19 ar   
    23   19   20 ar   
    24   20   21 ar   
    25   21   22 ar   
    26   23   24 1    
    27   23   40 2    
    28   24   25 2    
    29   24   26 am   
    30   26   27 am   
    31   27   28 2    
    32   27   29 1    
    33   29   30 2    
    34   29   40 1    
    35   30   31 1    
    36   31   32 ar   
    37   31   38 ar   
    38   32   33 ar   
    39   33   34 1    
    40   33   35 ar   
    41   35   36 1    
    42   35   37 ar   
    43   37   38 ar   
    44   38   39 1    
    45   39   40 1    
    46   39   41 1    
    47   41   42 1    
    48   42   43 1    
    49   42   44 1    
    50   44   45 1    
    51   44   46 1    
    52   46   47 1    
    53   46   48 1    
    54   48   49 1    
    55   49   50 1    
    56   50   51 ar   
    57   50   52 ar   
    58   50   53 1    
@<TRIPOS>SUBSTRUCTURE
     1 FAD700      1 GROUP   
@<TRIPOS>SET
ATOM$ORANGE STATIC     ATOMS   COLORGROUP SYSTEM 
54 5 5 6 6 8 8 10 10 12 12 14 14 16 16 17 17 20 \
20 22 22 24 24 27 27 29 29 31 31 32 32 33 33 34 34 35 \
35 36 36 37 37 38 38 40 40 41 41 42 42 44 44 46 46 48 \
48 

