#    Name: 6t1t_1_FMN_CAVITY_N1_ALL
#    Modification time : Fri May 22 19:25:46 2020

@<TRIPOS>MOLECULE
6t1t_1_FMN_CAVITY_N1_ALL
   81     0     7     0     0
SMALL
NO_CHARGES


@<TRIPOS>ATOM
      1 OG        -29.6000   -6.3100  -14.4200 O.3       1 SER1        0.0000 
      2 N         -33.3400   -5.3700  -18.5000 N.am      2 ALA2        0.0000 
      3 O         -37.0600   -2.9200  -17.8400 O.2       2 ALA2        0.0000 
      4 N         -35.1600   -5.6600  -17.4500 N.am      2 ALA2        0.0000 
      5 N         -27.8500   -5.0100  -19.5900 N.am      2 ALA2        0.0000 
      6 O         -30.3200   -3.3800  -19.1500 O.2       2 ALA2        0.0000 
      7 N         -28.4300   -6.1200  -18.7600 N.am      2 ALA2        0.0000 
      8 O         -36.4400   -2.3200  -16.6100 O.2       2 ALA2        0.0000 
      9 O         -31.5300   -3.0700  -16.8700 O.2       2 ALA2        0.0000 
     10 O         -35.8300   -1.7200  -15.3800 O.2       2 ALA2        0.0000 
     11 O         -35.1700   -3.6500  -14.7700 O.2       2 ALA2        0.0000 
     12 O         -35.2100   -1.1200  -14.1500 O.2       2 ALA2        0.0000 
     13 O         -36.4500   -0.3100  -13.9300 O.2       2 ALA2        0.0000 
     14 N         -34.6800    2.5000  -14.3600 N.am      2 ALA2        0.0000 
     15 OD1       -30.8700   -4.9900  -16.2600 O.co2     3 ASP3        0.0000 
     16 OD1       -32.1100   -4.1700  -16.0400 O.co2     3 ASP3        0.0000 
     17 OD1       -33.3500   -3.3600  -15.8200 O.co2     3 ASP3        0.0000 
     18 OD1       -34.5900   -2.5400  -15.6000 O.co2     3 ASP3        0.0000 
     19 OD1       -32.6900   -5.2800  -15.2100 O.co2     3 ASP3        0.0000 
     20 OD1       -33.9300   -4.4600  -14.9900 O.co2     3 ASP3        0.0000 
     21 OD1       -30.9200   -2.4700  -15.6400 O.co2     3 ASP3        0.0000 
     22 OD1       -32.1500   -1.6500  -15.4200 O.co2     3 ASP3        0.0000 
     23 OD1       -33.3900   -0.8300  -15.2000 O.co2     3 ASP3        0.0000 
     24 OD1       -29.0200   -5.2100  -15.2500 O.co2     3 ASP3        0.0000 
     25 OD1       -30.2600   -4.3900  -15.0300 O.co2     3 ASP3        0.0000 
     26 OD1       -32.7800   -0.2300  -13.9700 O.co2     3 ASP3        0.0000 
     27 OD1       -28.4100   -4.6100  -14.0200 O.co2     3 ASP3        0.0000 
     28 OD1       -34.6000   -0.5200  -12.9200 O.co2     3 ASP3        0.0000 
     29 NZ        -32.1000   -6.1900  -18.7200 N.4       4 LYS4        0.0000 
     30 NZ        -30.2500   -6.4100  -17.7100 N.4       4 LYS4        0.0000 
     31 NZ        -35.8700    0.8000  -14.7600 N.4       4 LYS4        0.0000 
     32 NZ        -37.6900    0.5100  -13.7100 N.4       4 LYS4        0.0000 
     33 NZ        -34.0200    0.5800  -13.7500 N.4       4 LYS4        0.0000 
     34 NZ        -36.5000    2.2200  -13.3100 N.4       4 LYS4        0.0000 
     35 NZ        -34.6400    2.0000  -12.3000 N.4       4 LYS4        0.0000 
     36 NZ        -35.8800    2.8200  -12.0800 N.4       4 LYS4        0.0000 
     37 NZ        -35.2200    0.8900  -11.4700 N.4       4 LYS4        0.0000 
     38 NZ        -36.4600    1.7100  -11.2500 N.4       4 LYS4        0.0000 
     39 CZ        -29.0900   -4.1900  -19.3700 C.ar      5 PHE5        0.0000 
     40 CZ        -31.4900   -5.5900  -17.4900 C.ar      5 PHE5        0.0000 
     41 CZ        -32.0700   -6.7000  -16.6600 C.ar      5 PHE5        0.0000 
     42 CZ        -33.3100   -5.8800  -16.4400 C.ar      5 PHE5        0.0000 
     43 CZ        -27.2300   -4.4100  -18.3600 C.ar      5 PHE5        0.0000 
     44 CZ        -28.4700   -3.5900  -18.1400 C.ar      5 PHE5        0.0000 
     45 CZ        -29.0500   -4.7000  -17.3100 C.ar      5 PHE5        0.0000 
     46 CZ        -30.2900   -3.8800  -17.0900 C.ar      5 PHE5        0.0000 
     47 CZ        -29.6300   -5.8100  -16.4800 C.ar      5 PHE5        0.0000 
     48 CZ        -31.4500   -6.1000  -15.4300 C.ar      5 PHE5        0.0000 
     49 CZ        -26.6200   -3.8100  -17.1300 C.ar      5 PHE5        0.0000 
     50 CZ        -27.2000   -4.9200  -16.3000 C.ar      5 PHE5        0.0000 
     51 CZ        -28.4400   -4.1000  -16.0800 C.ar      5 PHE5        0.0000 
     52 CZ        -29.6800   -3.2800  -15.8600 C.ar      5 PHE5        0.0000 
     53 CZ        -27.7800   -6.0200  -15.4700 C.ar      5 PHE5        0.0000 
     54 CZ        -26.5900   -4.3200  -15.0700 C.ar      5 PHE5        0.0000 
     55 CZ        -27.1700   -5.4200  -14.2400 C.ar      5 PHE5        0.0000 
     56 CA        -32.7600   -4.2700  -19.3300 C.3       6 GLY6        0.0000 
     57 CA        -34.5800   -4.5600  -18.2800 C.3       6 GLY6        0.0000 
     58 CA        -35.8200   -3.7400  -18.0600 C.3       6 GLY6        0.0000 
     59 CA        -36.4000   -4.8500  -17.2300 C.3       6 GLY6        0.0000 
     60 CA        -32.1400   -3.6700  -18.1000 C.3       6 GLY6        0.0000 
     61 CA        -35.8600   -1.2200  -17.4400 C.3       6 GLY6        0.0000 
     62 CA        -33.9600   -3.9600  -17.0500 C.3       6 GLY6        0.0000 
     63 CA        -35.2000   -3.1400  -16.8300 C.3       6 GLY6        0.0000 
     64 CA        -35.7800   -4.2500  -16.0000 C.3       6 GLY6        0.0000 
     65 CA        -33.4300   -0.3300  -17.2600 C.3       6 GLY6        0.0000 
     66 CA        -32.7700   -2.2500  -16.6500 C.3       6 GLY6        0.0000 
     67 CA        -34.0100   -1.4300  -16.4300 C.3       6 GLY6        0.0000 
     68 CA        -35.2500   -0.6200  -16.2100 C.3       6 GLY6        0.0000 
     69 CA        -31.5700   -0.5400  -16.2500 C.3       6 GLY6        0.0000 
     70 CA        -32.8100    0.2700  -16.0300 C.3       6 GLY6        0.0000 
     71 CA        -34.0500    1.0900  -15.8100 C.3       6 GLY6        0.0000 
     72 CA        -34.6300   -0.0200  -14.9800 C.3       6 GLY6        0.0000 
     73 CA        -27.8200   -3.5000  -14.8500 C.3       6 GLY6        0.0000 
     74 DU        -29.6700   -5.3000  -18.5400 H         7 CUB7        0.0000 
     75 DU        -30.9100   -4.4800  -18.3200 H         7 CUB7        0.0000 
     76 DU        -32.7300   -4.7700  -17.2700 H         7 CUB7        0.0000 
     77 DU        -34.5500   -5.0600  -16.2200 H         7 CUB7        0.0000 
     78 DU        -27.8100   -5.5200  -17.5300 H         7 CUB7        0.0000 
     79 DU        -35.2600    1.4000  -13.5300 H         7 CUB7        0.0000 
     80 DU        -35.8400    0.2900  -12.7000 H         7 CUB7        0.0000 
     81 DU        -37.0800    1.1100  -12.4800 H         7 CUB7        0.0000 
@<TRIPOS>BOND
@<TRIPOS>SUBSTRUCTURE
     1 SER1        1 GROUP   
     2 ALA2        2 GROUP   
     3 ASP3       15 GROUP   
     4 LYS4       29 GROUP   
     5 PHE5       39 GROUP   
     6 GLY6       56 GROUP   
     7 CUB7       74 GROUP   
@<TRIPOS>SET

