#    Name: 6t1t_0_FAD_CAVITY_N1_4
#    Modification time : Fri May 22 19:25:37 2020

@<TRIPOS>MOLECULE
6t1t_0_FAD_CAVITY_N1_4
   81     0     7     0     0
SMALL
NO_CHARGES


@<TRIPOS>ATOM
      1 OG        -28.3500   -9.1500  -17.3200 O.3       1 SER1        0.0000 
      2 OG        -29.5900   -8.3300  -17.1000 O.3       1 SER1        0.0000 
      3 OG        -27.6900  -11.0700  -16.7100 O.3       1 SER1        0.0000 
      4 OG        -19.7200  -12.3400  -18.2400 O.3       1 SER1        0.0000 
      5 OG        -20.9600  -11.5200  -18.0200 O.3       1 SER1        0.0000 
      6 OG        -17.8700  -12.5600  -17.2300 O.3       1 SER1        0.0000 
      7 OG        -19.1100  -11.7400  -17.0100 O.3       1 SER1        0.0000 
      8 OG        -20.3500  -10.9200  -16.7900 O.3       1 SER1        0.0000 
      9 OG        -17.2600  -11.9600  -16.0000 O.3       1 SER1        0.0000 
     10 O         -22.1900  -12.7200  -20.4800 O.2       2 ALA2        0.0000 
     11 O         -22.7700  -13.8300  -19.6500 O.2       2 ALA2        0.0000 
     12 N         -23.4000  -12.4100  -18.2000 N.am      2 ALA2        0.0000 
     13 N         -24.6400  -11.5900  -17.9800 N.am      2 ALA2        0.0000 
     14 N         -25.8700  -10.7800  -17.7600 N.am      2 ALA2        0.0000 
     15 N         -25.2200  -12.7000  -17.1500 N.am      2 ALA2        0.0000 
     16 N         -26.4600  -11.8800  -16.9300 N.am      2 ALA2        0.0000 
     17 N         -22.2000  -10.7100  -17.8000 N.am      2 ALA2        0.0000 
     18 N         -23.4400   -9.8900  -17.5800 N.am      2 ALA2        0.0000 
     19 N         -24.6800   -9.0700  -17.3600 N.am      2 ALA2        0.0000 
     20 N         -22.7800  -11.8100  -16.9700 N.am      2 ALA2        0.0000 
     21 N         -21.5900  -10.1100  -16.5700 N.am      2 ALA2        0.0000 
     22 OD1       -15.5100   -8.6400  -18.4900 O.co2     3 ASP3        0.0000 
     23 OD1       -16.0900   -9.7400  -17.6600 O.co2     3 ASP3        0.0000 
     24 OD1       -16.6700  -10.8500  -16.8300 O.co2     3 ASP3        0.0000 
     25 NZ        -29.0100   -7.2200  -17.9300 N.4       4 LYS4        0.0000 
     26 CZ        -21.6100  -11.6200  -21.3100 C.ar      5 PHE5        0.0000 
     27 CZ        -28.9700   -9.7500  -18.5500 C.ar      5 PHE5        0.0000 
     28 CZ        -24.5900  -14.1200  -18.6000 C.ar      5 PHE5        0.0000 
     29 CZ        -25.8300  -13.3000  -18.3800 C.ar      5 PHE5        0.0000 
     30 CZ        -27.0700  -12.4800  -18.1600 C.ar      5 PHE5        0.0000 
     31 CZ        -22.2300  -10.2000  -19.8600 C.ar      5 PHE5        0.0000 
     32 CZ        -23.4700   -9.3800  -19.6400 C.ar      5 PHE5        0.0000 
     33 CZ        -22.8200  -11.3100  -19.0300 C.ar      5 PHE5        0.0000 
     34 CZ        -24.0500  -10.4900  -18.8100 C.ar      5 PHE5        0.0000 
     35 CZ        -25.2900   -9.6700  -18.5900 C.ar      5 PHE5        0.0000 
     36 CZ        -22.1600  -13.2300  -18.4200 C.ar      5 PHE5        0.0000 
     37 CZ        -27.1100   -9.9600  -17.5400 C.ar      5 PHE5        0.0000 
     38 CZ        -23.9800  -13.5200  -17.3700 C.ar      5 PHE5        0.0000 
     39 CZ        -21.5400  -12.6300  -17.1900 C.ar      5 PHE5        0.0000 
     40 CZ        -28.9800   -7.7300  -15.8700 C.ar      5 PHE5        0.0000 
     41 CZ        -25.3800   -4.6300  -17.3500 C.ar      5 PHE5        0.0000 
     42 CZ        -24.7200   -6.5500  -16.7400 C.ar      5 PHE5        0.0000 
     43 CZ        -25.9600   -5.7300  -16.5200 C.ar      5 PHE5        0.0000 
     44 CZ        -27.2000   -4.9200  -16.3000 C.ar      5 PHE5        0.0000 
     45 CZ        -27.7800   -6.0200  -15.4700 C.ar      5 PHE5        0.0000 
     46 CA        -28.3800   -8.6400  -19.3800 C.3       6 GLY6        0.0000 
     47 CA        -18.5200  -12.6500  -20.5200 C.3       6 GLY6        0.0000 
     48 CA        -27.1900   -6.9300  -18.9800 C.3       6 GLY6        0.0000 
     49 CA        -26.5300   -8.8600  -18.3700 C.3       6 GLY6        0.0000 
     50 CA        -27.7700   -8.0400  -18.1500 C.3       6 GLY6        0.0000 
     51 CA        -16.0800  -11.7600  -20.3400 C.3       6 GLY6        0.0000 
     52 CA        -16.6600  -12.8700  -19.5100 C.3       6 GLY6        0.0000 
     53 CA        -17.9000  -12.0500  -19.2900 C.3       6 GLY6        0.0000 
     54 CA        -24.1000   -7.9700  -18.1900 C.3       6 GLY6        0.0000 
     55 CA        -25.3400   -7.1500  -17.9700 C.3       6 GLY6        0.0000 
     56 CA        -18.4800  -13.1600  -18.4600 C.3       6 GLY6        0.0000 
     57 CA        -25.9200   -8.2600  -17.1400 C.3       6 GLY6        0.0000 
     58 CA        -27.1600   -7.4400  -16.9200 C.3       6 GLY6        0.0000 
     59 CA        -26.5000   -9.3600  -16.3100 C.3       6 GLY6        0.0000 
     60 CA        -27.7400   -8.5500  -16.0900 C.3       6 GLY6        0.0000 
     61 CA        -14.8900  -10.0500  -19.9400 C.3       6 GLY6        0.0000 
     62 CA        -15.4700  -11.1600  -19.1100 C.3       6 GLY6        0.0000 
     63 CA        -24.1400   -5.4400  -17.5700 C.3       6 GLY6        0.0000 
     64 CA        -16.0500  -12.2700  -18.2800 C.3       6 GLY6        0.0000 
     65 CA        -18.5300  -10.6300  -17.8400 C.3       6 GLY6        0.0000 
     66 CA        -21.0100   -9.0000  -17.4000 C.3       6 GLY6        0.0000 
     67 CA        -26.5400   -6.8400  -15.6900 C.3       6 GLY6        0.0000 
     68 CA        -14.8500  -10.5600  -17.8800 C.3       6 GLY6        0.0000 
     69 CA        -15.4400  -11.6700  -17.0500 C.3       6 GLY6        0.0000 
     70 DU        -19.7600  -11.8300  -20.3000 H         7 CUB7        0.0000 
     71 DU        -21.0000  -11.0200  -20.0800 H         7 CUB7        0.0000 
     72 DU        -21.5800  -12.1200  -19.2500 H         7 CUB7        0.0000 
     73 DU        -24.7500   -6.0400  -18.8000 H         7 CUB7        0.0000 
     74 DU        -19.1400  -11.2300  -19.0700 H         7 CUB7        0.0000 
     75 DU        -20.3800  -10.4200  -18.8500 H         7 CUB7        0.0000 
     76 DU        -21.6200   -9.6000  -18.6300 H         7 CUB7        0.0000 
     77 DU        -26.5700   -6.3300  -17.7500 H         7 CUB7        0.0000 
     78 DU        -27.8100   -5.5200  -17.5300 H         7 CUB7        0.0000 
     79 DU        -28.4000   -6.6200  -16.7000 H         7 CUB7        0.0000 
     80 DU        -16.7100  -10.3400  -18.8900 H         7 CUB7        0.0000 
     81 DU        -17.2900  -11.4500  -18.0600 H         7 CUB7        0.0000 
@<TRIPOS>BOND
@<TRIPOS>SUBSTRUCTURE
     1 SER1        1 GROUP   
     2 ALA2       10 GROUP   
     3 ASP3       22 GROUP   
     4 LYS4       25 GROUP   
     5 PHE5       26 GROUP   
     6 GLY6       46 GROUP   
     7 CUB7       70 GROUP   
@<TRIPOS>SET

