#    Name: 6t1t_2_NDP
#    Modification time : Fri May 22 19:26:06 2020

@<TRIPOS>MOLECULE
6t1t_2_NDP
   31    33     1     0     1
SMALL
NO_CHARGES


@<TRIPOS>ATOM
      1 PA        -23.7350  -18.6440  -28.5330 P.3       1 NDP702      0.0000 
      2 O1A       -22.9480  -17.4080  -28.8000 O.co2     1 NDP702      0.0000 
      3 O2A       -23.1760  -19.9850  -28.9040 O.co2     1 NDP702      0.0000 
      4 O5B       -25.1800  -18.4650  -29.1900 O.3       1 NDP702      0.0000 
      5 C5B       -26.2510  -19.3960  -28.8900 C.3       1 NDP702      0.0000 
      6 C4B       -26.9180  -19.7530  -30.1880 C.3       1 NDP702      0.0000 
      7 O4B       -27.3020  -18.5200  -30.8550 O.3       1 NDP702      0.0000 
      8 C3B       -26.0150  -20.5030  -31.1840 C.3       1 NDP702      0.0000 
      9 O3B       -26.6840  -21.6490  -31.6980 O.3       1 NDP702      0.0000 
     10 C2B       -25.6930  -19.4250  -32.2140 C.3       1 NDP702      0.0000 
     11 O2B       -25.4100  -20.0710  -33.4300 O.3       1 NDP702      0.0000 
     12 C1B       -27.0090  -18.6700  -32.2180 C.3       1 NDP702      0.0000 
     13 N9A       -27.0330  -17.3600  -32.8570 N.pl3     1 NDP702      0.0000 
     14 C8A       -25.9870  -16.5590  -33.2410 C.2       1 NDP702      0.0000 
     15 N7A       -26.3710  -15.4270  -33.7850 N.2       1 NDP702      0.0000 
     16 C5A       -27.7590  -15.4750  -33.7770 C.ar      1 NDP702      0.0000 
     17 C6A       -28.7590  -14.5800  -34.2260 C.ar      1 NDP702      0.0000 
     18 N6A       -28.5390  -13.3920  -34.7920 N.pl3     1 NDP702      0.0000 
     19 N1A       -30.0460  -14.9560  -34.0360 N.ar      1 NDP702      0.0000 
     20 C2A       -30.2970  -16.1350  -33.4490 C.ar      1 NDP702      0.0000 
     21 N3A       -29.4490  -17.0630  -33.0150 N.ar      1 NDP702      0.0000 
     22 C4A       -28.1760  -16.6680  -33.2020 C.ar      1 NDP702      0.0000 
     23 O3        -24.1320  -18.6320  -26.9810 O.3       1 NDP702      0.0000 
     24 PN        -23.8820  -17.6060  -25.7850 P.3       1 NDP702      0.0000 
     25 O1N       -22.4220  -17.3150  -25.7020 O.3       1 NDP702      0.0000 
     26 O2N       -24.5330  -18.1500  -24.5490 O.co2     1 NDP702      0.0000 
     27 O5D       -24.6740  -16.3210  -26.3230 O.co2     1 NDP702      0.0000 
     28 P2B       -23.9430  -19.7580  -34.0310 P.3       1 NDP702      0.0000 
     29 O1X       -23.6470  -21.0470  -34.7800 O.co2     1 NDP702      0.0000 
     30 O2X       -22.9110  -19.4970  -32.9950 O.co2     1 NDP702      0.0000 
     31 O3X       -24.0760  -18.5510  -34.9250 O.co2     1 NDP702      0.0000 
@<TRIPOS>BOND
     1    1    2 ar   
     2    1    3 ar   
     3    1    4 1    
     4    1   23 1    
     5    4    5 1    
     6    5    6 1    
     7    6    7 1    
     8    6    8 1    
     9    7   12 1    
    10    8    9 1    
    11    8   10 1    
    12   10   11 1    
    13   10   12 1    
    14   11   28 1    
    15   12   13 1    
    16   13   14 1    
    17   13   22 1    
    18   14   15 2    
    19   15   16 1    
    20   16   17 ar   
    21   16   22 ar   
    22   17   18 1    
    23   17   19 ar   
    24   19   20 ar   
    25   20   21 ar   
    26   21   22 ar   
    27   23   24 1    
    28   24   25 1    
    29   24   26 ar   
    30   24   27 ar   
    31   28   29 ar   
    32   28   30 ar   
    33   28   31 ar   
@<TRIPOS>SUBSTRUCTURE
     1 NDP702      1 GROUP   
@<TRIPOS>SET
ATOM$ORANGE STATIC     ATOMS   COLORGROUP SYSTEM 
20 5 5 6 6 8 8 10 10 12 12 14 14 16 16 17 17 20 \
20 22 22 

