#    Name: 6t1t_1_FMN_CAVITY_N1_4
#    Modification time : Fri May 22 19:25:46 2020

@<TRIPOS>MOLECULE
6t1t_1_FMN_CAVITY_N1_4
   20     0     5     0     0
SMALL
NO_CHARGES


@<TRIPOS>ATOM
      1 N         -27.8500   -5.0100  -19.5900 N.am      1 ALA2        0.0000 
      2 O         -30.3200   -3.3800  -19.1500 O.2       1 ALA2        0.0000 
      3 N         -28.4300   -6.1200  -18.7600 N.am      1 ALA2        0.0000 
      4 NZ        -32.1000   -6.1900  -18.7200 N.4       2 LYS4        0.0000 
      5 NZ        -30.2500   -6.4100  -17.7100 N.4       2 LYS4        0.0000 
      6 CZ        -29.0900   -4.1900  -19.3700 C.ar      3 PHE5        0.0000 
      7 CZ        -31.4900   -5.5900  -17.4900 C.ar      3 PHE5        0.0000 
      8 CZ        -27.2300   -4.4100  -18.3600 C.ar      3 PHE5        0.0000 
      9 CZ        -28.4700   -3.5900  -18.1400 C.ar      3 PHE5        0.0000 
     10 CZ        -29.0500   -4.7000  -17.3100 C.ar      3 PHE5        0.0000 
     11 CZ        -30.2900   -3.8800  -17.0900 C.ar      3 PHE5        0.0000 
     12 CZ        -29.6300   -5.8100  -16.4800 C.ar      3 PHE5        0.0000 
     13 CZ        -26.6200   -3.8100  -17.1300 C.ar      3 PHE5        0.0000 
     14 CZ        -27.2000   -4.9200  -16.3000 C.ar      3 PHE5        0.0000 
     15 CZ        -28.4400   -4.1000  -16.0800 C.ar      3 PHE5        0.0000 
     16 CA        -32.7600   -4.2700  -19.3300 C.3       4 GLY6        0.0000 
     17 CA        -32.1400   -3.6700  -18.1000 C.3       4 GLY6        0.0000 
     18 DU        -29.6700   -5.3000  -18.5400 H         5 CUB7        0.0000 
     19 DU        -30.9100   -4.4800  -18.3200 H         5 CUB7        0.0000 
     20 DU        -27.8100   -5.5200  -17.5300 H         5 CUB7        0.0000 
@<TRIPOS>BOND
@<TRIPOS>SUBSTRUCTURE
     1 ALA2        1 GROUP   
     2 LYS4        4 GROUP   
     3 PHE5        6 GROUP   
     4 GLY6       16 GROUP   
     5 CUB7       18 GROUP   
@<TRIPOS>SET

