#    Name: 6dwk_2_DTP_CAVITY_N1_6
#    Modification time : Fri May 22 19:33:35 2020

@<TRIPOS>MOLECULE
6dwk_2_DTP_CAVITY_N1_6
   28     0     6     0     0
SMALL
NO_CHARGES


@<TRIPOS>ATOM
      1 N          36.9000    9.2200   -6.0200 N.am      1 ALA2        0.0000 
      2 OD1        35.3600   19.0700   -4.6500 O.co2     2 ASP3        0.0000 
      3 OD1        33.3300   18.4600   -2.5300 O.co2     2 ASP3        0.0000 
      4 OD1        36.0500   17.7700   -4.3700 O.co2     2 ASP3        0.0000 
      5 OD1        34.1900   19.1400   -1.5100 O.co2     2 ASP3        0.0000 
      6 OD1        33.1800   18.8300   -0.4500 O.co2     2 ASP3        0.0000 
      7 NZ         37.7500   16.7700   -5.1500 N.4       3 LYS4        0.0000 
      8 NZ         37.9300   18.7600   -4.4100 N.4       3 LYS4        0.0000 
      9 NZ         38.6200   17.4500   -4.1200 N.4       3 LYS4        0.0000 
     10 CZ         36.7400   16.4700   -4.0900 C.ar      4 PHE5        0.0000 
     11 CZ         37.4300   15.1700   -3.8000 C.ar      4 PHE5        0.0000 
     12 CZ         36.9100   18.4500   -3.3500 C.ar      4 PHE5        0.0000 
     13 CZ         35.9000   18.1400   -2.2900 C.ar      4 PHE5        0.0000 
     14 CZ         34.8800   17.8400   -1.2300 C.ar      4 PHE5        0.0000 
     15 CZ         37.6000   17.1500   -3.0600 C.ar      4 PHE5        0.0000 
     16 CA         37.7500    7.5500   -7.8200 C.3       5 GLY6        0.0000 
     17 CA         35.3700   12.2000   -4.5000 C.3       5 GLY6        0.0000 
     18 CA         35.0500   10.5900   -3.1600 C.3       5 GLY6        0.0000 
     19 CA         36.2400   12.8800   -3.4800 C.3       5 GLY6        0.0000 
     20 CA         35.9100   11.2700   -2.1400 C.3       5 GLY6        0.0000 
     21 CA         34.3500   18.7700   -3.5900 C.3       5 GLY6        0.0000 
     22 CA         35.0300   17.4600   -3.3100 C.3       5 GLY6        0.0000 
     23 CA         34.0200   17.1600   -2.2500 C.3       5 GLY6        0.0000 
     24 CA         35.7200   16.1600   -3.0300 C.3       5 GLY6        0.0000 
     25 CA         38.4400   15.4700   -4.8600 C.3       5 GLY6        0.0000 
     26 CA         36.2200   19.7500   -3.6300 C.3       5 GLY6        0.0000 
     27 CA         35.2100   19.4500   -2.5700 C.3       5 GLY6        0.0000 
     28 DU         36.0600   10.9000   -4.2200 H         6 CUB7        0.0000 
@<TRIPOS>BOND
@<TRIPOS>SUBSTRUCTURE
     1 ALA2        1 GROUP   
     2 ASP3        2 GROUP   
     3 LYS4        7 GROUP   
     4 PHE5       10 GROUP   
     5 GLY6       16 GROUP   
     6 CUB7       28 GROUP   
@<TRIPOS>SET

