#    Name: 6dwk_1_DTP
#    Modification time : Fri May 22 19:33:19 2020

@<TRIPOS>MOLECULE
6dwk_1_DTP
   30    32     1     0     0
SMALL
NO_CHARGES


@<TRIPOS>ATOM
      1 PG          3.6030    7.5340  -36.2100 P.3       1 DTP703      0.0000 
      2 O1G         4.2900    7.8690  -37.5260 O.co2     1 DTP703      0.0000 
      3 O2G         3.8850    8.4800  -35.1290 O.co2     1 DTP703      0.0000 
      4 O3G         2.1230    7.2360  -36.4270 O.co2     1 DTP703      0.0000 
      5 PB          5.3320    5.2160  -35.9960 P.3       1 DTP703      0.0000 
      6 O1B         6.3060    5.9790  -36.8770 O.co2     1 DTP703      0.0000 
      7 O2B         4.9610    3.8090  -36.3640 O.co2     1 DTP703      0.0000 
      8 O3B         4.1000    6.1100  -35.7060 O.3       1 DTP703      0.0000 
      9 PA          5.9270    4.3870  -33.2530 P.3       1 DTP703      0.0000 
     10 O1A         5.0990    3.2140  -33.4170 O.co2     1 DTP703      0.0000 
     11 O2A         5.6190    5.3150  -32.2000 O.co2     1 DTP703      0.0000 
     12 O3A         6.0560    5.2000  -34.5850 O.3       1 DTP703      0.0000 
     13 O5'         7.3820    3.7320  -33.1450 O.3       1 DTP703      0.0000 
     14 C5'         8.4880    4.4860  -32.6990 C.3       1 DTP703      0.0000 
     15 C4'         9.5860    3.5970  -32.1120 C.3       1 DTP703      0.0000 
     16 O4'         9.0160    3.0060  -30.9200 O.3       1 DTP703      0.0000 
     17 C3'         9.9670    2.4390  -33.0330 C.3       1 DTP703      0.0000 
     18 O3'        11.2700    2.1030  -32.7140 O.3       1 DTP703      0.0000 
     19 C2'         9.1340    1.2540  -32.5540 C.3       1 DTP703      0.0000 
     20 C1'         8.8140    1.5770  -31.0910 C.3       1 DTP703      0.0000 
     21 N9          7.4890    1.2880  -30.5100 N.pl3     1 DTP703      0.0000 
     22 C8          6.2620    1.4280  -31.0640 C.2       1 DTP703      0.0000 
     23 N7          5.2740    1.2770  -30.1460 N.2       1 DTP703      0.0000 
     24 C5          5.8400    1.0350  -28.9880 C.ar      1 DTP703      0.0000 
     25 C6          5.3790    0.7530  -27.6250 C.ar      1 DTP703      0.0000 
     26 N6          4.0620    0.6580  -27.4700 N.pl3     1 DTP703      0.0000 
     27 N1          6.2600    0.6020  -26.5830 N.ar      1 DTP703      0.0000 
     28 C2          7.5620    0.6870  -26.8740 C.ar      1 DTP703      0.0000 
     29 N3          8.0650    0.9470  -28.1080 N.ar      1 DTP703      0.0000 
     30 C4          7.2860    1.0840  -29.1920 C.ar      1 DTP703      0.0000 
@<TRIPOS>BOND
     1    1    2 ar   
     2    1    3 ar   
     3    1    4 ar   
     4    1    8 1    
     5    5    6 ar   
     6    5    7 ar   
     7    5    8 1    
     8    5   12 1    
     9    9   10 ar   
    10    9   11 ar   
    11    9   12 1    
    12    9   13 1    
    13   13   14 1    
    14   14   15 1    
    15   15   16 1    
    16   15   17 1    
    17   16   20 1    
    18   17   18 1    
    19   17   19 1    
    20   19   20 1    
    21   20   21 1    
    22   21   22 1    
    23   21   30 1    
    24   22   23 2    
    25   23   24 1    
    26   24   25 ar   
    27   24   30 ar   
    28   25   26 1    
    29   25   27 ar   
    30   27   28 ar   
    31   28   29 ar   
    32   29   30 ar   
@<TRIPOS>SUBSTRUCTURE
     1 DTP703      1 GROUP   
@<TRIPOS>SET

