#    Name: 6dwk_4_DTP
#    Modification time : Fri May 22 19:34:04 2020

@<TRIPOS>MOLECULE
6dwk_4_DTP
   30    32     1     0     0
SMALL
NO_CHARGES


@<TRIPOS>ATOM
      1 PG         37.8570  -23.8270  -23.8850 P.3       1 DTP702      0.0000 
      2 O1G        37.4430  -24.6690  -25.0730 O.co2     1 DTP702      0.0000 
      3 O2G        37.2040  -24.2430  -22.6250 O.co2     1 DTP702      0.0000 
      4 O3G        39.3530  -23.6780  -23.6600 O.co2     1 DTP702      0.0000 
      5 PB         36.2170  -21.8310  -25.0770 P.3       1 DTP702      0.0000 
      6 O1B        36.7020  -20.7720  -25.9580 O.co2     1 DTP702      0.0000 
      7 O2B        35.4580  -22.9350  -25.7050 O.co2     1 DTP702      0.0000 
      8 O3B        37.3810  -22.3570  -24.1550 O.3       1 DTP702      0.0000 
      9 PA         35.1150  -19.6820  -23.4130 P.3       1 DTP702      0.0000 
     10 O1A        36.1700  -18.7390  -23.9050 O.co2     1 DTP702      0.0000 
     11 O2A        35.0100  -20.0710  -22.0020 O.co2     1 DTP702      0.0000 
     12 O3A        35.2060  -21.1350  -24.0170 O.3       1 DTP702      0.0000 
     13 O5'        33.7590  -19.2830  -24.0780 O.3       1 DTP702      0.0000 
     14 C5'        32.5600  -19.8210  -23.5510 C.3       1 DTP702      0.0000 
     15 C4'        31.3930  -18.8020  -23.5690 C.3       1 DTP702      0.0000 
     16 O4'        31.5890  -17.6490  -22.7270 O.3       1 DTP702      0.0000 
     17 C3'        31.2350  -18.1760  -24.8970 C.3       1 DTP702      0.0000 
     18 O3'        29.8680  -17.9160  -25.1800 O.3       1 DTP702      0.0000 
     19 C2'        31.9120  -16.8150  -24.8400 C.3       1 DTP702      0.0000 
     20 C1'        31.7820  -16.4600  -23.4330 C.3       1 DTP702      0.0000 
     21 N9         32.9790  -15.9310  -22.7680 N.pl3     1 DTP702      0.0000 
     22 C8         34.2930  -16.1170  -22.9400 C.2       1 DTP702      0.0000 
     23 N7         35.0250  -15.4610  -22.0040 N.2       1 DTP702      0.0000 
     24 C5         34.1620  -14.8410  -21.2320 C.ar      1 DTP702      0.0000 
     25 C6         34.2310  -13.9910  -20.0570 C.ar      1 DTP702      0.0000 
     26 N6         35.3980  -13.6670  -19.4970 N.pl3     1 DTP702      0.0000 
     27 N1         33.1140  -13.5510  -19.5040 N.ar      1 DTP702      0.0000 
     28 C2         31.9190  -13.8840  -19.9830 C.ar      1 DTP702      0.0000 
     29 N3         31.7220  -14.6350  -21.0930 N.ar      1 DTP702      0.0000 
     30 C4         32.8450  -15.1100  -21.7310 C.ar      1 DTP702      0.0000 
@<TRIPOS>BOND
     1    1    2 ar   
     2    1    3 ar   
     3    1    4 ar   
     4    1    8 1    
     5    5    6 ar   
     6    5    7 ar   
     7    5    8 1    
     8    5   12 1    
     9    9   10 ar   
    10    9   11 ar   
    11    9   12 1    
    12    9   13 1    
    13   13   14 1    
    14   14   15 1    
    15   15   16 1    
    16   15   17 1    
    17   16   20 1    
    18   17   18 1    
    19   17   19 1    
    20   19   20 1    
    21   20   21 1    
    22   21   22 1    
    23   21   30 1    
    24   22   23 2    
    25   23   24 1    
    26   24   25 ar   
    27   24   30 ar   
    28   25   26 1    
    29   25   27 ar   
    30   27   28 ar   
    31   28   29 ar   
    32   29   30 ar   
@<TRIPOS>SUBSTRUCTURE
     1 DTP702      1 GROUP   
@<TRIPOS>SET

