#    Name: 6dwk_2_DTP
#    Modification time : Fri May 22 19:33:34 2020

@<TRIPOS>MOLECULE
6dwk_2_DTP
   30    32     1     0     0
SMALL
NO_CHARGES


@<TRIPOS>ATOM
      1 PG         31.6110   17.4840   -4.6290 P.3       1 DTP703      0.0000 
      2 O1G        31.2270   17.7360   -6.0600 O.co2     1 DTP703      0.0000 
      3 O2G        30.8360   18.2110   -3.5690 O.co2     1 DTP703      0.0000 
      4 O3G        33.1320   17.5790   -4.3990 O.co2     1 DTP703      0.0000 
      5 PB         30.2010   15.0820   -3.6970 P.3       1 DTP703      0.0000 
      6 O1B        29.0680   16.0160   -3.2910 O.co2     1 DTP703      0.0000 
      7 O2B        30.7160   14.1810   -2.6460 O.co2     1 DTP703      0.0000 
      8 O3B        31.3640   15.9210   -4.3230 O.3       1 DTP703      0.0000 
      9 PA         29.8110   12.9240   -5.6730 P.3       1 DTP703      0.0000 
     10 O1A        29.8650   13.4200   -7.0490 O.co2     1 DTP703      0.0000 
     11 O2A        30.7950   12.1510   -4.9800 O.co2     1 DTP703      0.0000 
     12 O3A        29.5880   14.3520   -4.9670 O.3       1 DTP703      0.0000 
     13 O5'        28.5140   12.0510   -5.4640 O.3       1 DTP703      0.0000 
     14 C5'        27.2660   12.4770   -6.0410 C.3       1 DTP703      0.0000 
     15 C4'        26.3520   11.3220   -6.1550 C.3       1 DTP703      0.0000 
     16 O4'        27.0300   10.3250   -7.0080 O.3       1 DTP703      0.0000 
     17 C3'        26.0830   10.5900   -4.8390 C.3       1 DTP703      0.0000 
     18 O3'        24.7440   10.0760   -4.8890 O.3       1 DTP703      0.0000 
     19 C2'        27.1430    9.4460   -4.7610 C.3       1 DTP703      0.0000 
     20 C1'        27.2900    9.1130   -6.2200 C.3       1 DTP703      0.0000 
     21 N9         28.6470    8.8150   -6.6250 N.pl3     1 DTP703      0.0000 
     22 C8         29.8290    9.2960   -6.1630 C.2       1 DTP703      0.0000 
     23 N7         30.8910    8.8050   -6.9040 N.2       1 DTP703      0.0000 
     24 C5         30.3490    7.9910   -7.7750 C.ar      1 DTP703      0.0000 
     25 C6         30.8780    7.2050   -8.8750 C.ar      1 DTP703      0.0000 
     26 N6         32.2370    7.1920   -9.0180 N.pl3     1 DTP703      0.0000 
     27 N1         30.0050    6.5800   -9.7280 N.ar      1 DTP703      0.0000 
     28 C2         28.6990    6.5980   -9.4430 C.ar      1 DTP703      0.0000 
     29 N3         28.1240    7.3730   -8.5010 N.ar      1 DTP703      0.0000 
     30 C4         28.9130    8.0370   -7.6600 C.ar      1 DTP703      0.0000 
@<TRIPOS>BOND
     1    1    2 ar   
     2    1    3 ar   
     3    1    4 ar   
     4    1    8 1    
     5    5    6 ar   
     6    5    7 ar   
     7    5    8 1    
     8    5   12 1    
     9    9   10 ar   
    10    9   11 ar   
    11    9   12 1    
    12    9   13 1    
    13   13   14 1    
    14   14   15 1    
    15   15   16 1    
    16   15   17 1    
    17   16   20 1    
    18   17   18 1    
    19   17   19 1    
    20   19   20 1    
    21   20   21 1    
    22   21   22 1    
    23   21   30 1    
    24   22   23 2    
    25   23   24 1    
    26   24   25 ar   
    27   24   30 ar   
    28   25   26 1    
    29   25   27 ar   
    30   27   28 ar   
    31   28   29 ar   
    32   29   30 ar   
@<TRIPOS>SUBSTRUCTURE
     1 DTP703      1 GROUP   
@<TRIPOS>SET

