#    Name: 6dwk_4_DTP_CAVITY_N1_ALL
#    Modification time : Fri May 22 19:34:05 2020

@<TRIPOS>MOLECULE
6dwk_4_DTP_CAVITY_N1_ALL
   90     0     7     0     0
SMALL
NO_CHARGES


@<TRIPOS>ATOM
      1 OG         34.5700  -16.7200  -24.2400 O.3       1 SER1        0.0000 
      2 OG         36.1200  -17.3400  -22.9300 O.3       1 SER1        0.0000 
      3 N          34.7400  -14.7300  -23.5000 N.am      2 ALA2        0.0000 
      4 O          31.8700  -13.6700  -19.5800 O.2       2 ALA2        0.0000 
      5 N          34.5900  -14.3600  -21.4200 N.am      2 ALA2        0.0000 
      6 N          37.3100  -15.0500  -23.2500 N.am      2 ALA2        0.0000 
      7 N          36.2900  -15.3600  -22.1900 N.am      2 ALA2        0.0000 
      8 N          39.8700  -15.3700  -23.0100 N.am      2 ALA2        0.0000 
      9 N          36.3100  -13.0000  -19.3700 N.am      2 ALA2        0.0000 
     10 N          39.0300  -13.6900  -21.2100 N.am      2 ALA2        0.0000 
     11 N          38.0200  -14.0000  -20.1500 N.am      2 ALA2        0.0000 
     12 O          37.0000  -14.3100  -19.0900 O.2       2 ALA2        0.0000 
     13 N          41.7500  -14.3800  -23.0400 N.am      2 ALA2        0.0000 
     14 N          40.7400  -14.6900  -21.9800 N.am      2 ALA2        0.0000 
     15 N          39.7200  -15.0000  -20.9200 N.am      2 ALA2        0.0000 
     16 N          38.7000  -15.3000  -19.8600 N.am      2 ALA2        0.0000 
     17 O          37.6900  -15.6100  -18.8000 O.2       2 ALA2        0.0000 
     18 N          41.4200  -15.9900  -21.7000 N.am      2 ALA2        0.0000 
     19 N          41.9300  -12.4000  -22.3100 N.am      2 ALA2        0.0000 
     20 N          40.9100  -12.7100  -21.2500 N.am      2 ALA2        0.0000 
     21 N          39.8900  -13.0200  -20.1900 N.am      2 ALA2        0.0000 
     22 N          38.8800  -13.3200  -19.1300 N.am      2 ALA2        0.0000 
     23 N          40.5800  -14.3200  -19.9000 N.am      2 ALA2        0.0000 
     24 N          39.5700  -14.6200  -18.8400 N.am      2 ALA2        0.0000 
     25 N          42.2900  -15.3100  -20.6800 N.am      2 ALA2        0.0000 
     26 N          42.9700  -16.6200  -20.3900 N.am      2 ALA2        0.0000 
     27 N          43.1500  -14.6400  -19.6600 N.am      2 ALA2        0.0000 
     28 N          42.1300  -14.9400  -18.6000 N.am      2 ALA2        0.0000 
     29 O          44.8500  -15.6300  -20.4300 O.2       2 ALA2        0.0000 
     30 N          43.8400  -15.9400  -19.3700 N.am      2 ALA2        0.0000 
     31 O          44.0100  -13.9600  -18.6300 O.2       2 ALA2        0.0000 
     32 OD1        31.8500  -16.0300  -22.4000 O.co2     3 ASP3        0.0000 
     33 OD1        33.5500  -17.0200  -23.1800 O.co2     3 ASP3        0.0000 
     34 OD1        32.7100  -15.3500  -21.3800 O.co2     3 ASP3        0.0000 
     35 OD1        34.4100  -16.3400  -22.1600 O.co2     3 ASP3        0.0000 
     36 OD1        33.5700  -14.6700  -20.3600 O.co2     3 ASP3        0.0000 
     37 OD1        35.2700  -15.6600  -21.1300 O.co2     3 ASP3        0.0000 
     38 OD1        36.9800  -16.6600  -21.9100 O.co2     3 ASP3        0.0000 
     39 OD1        34.4300  -13.9900  -19.3300 O.co2     3 ASP3        0.0000 
     40 OD1        36.1400  -14.9900  -20.1100 O.co2     3 ASP3        0.0000 
     41 OD1        37.8400  -15.9800  -20.8900 O.co2     3 ASP3        0.0000 
     42 OD1        36.8300  -16.2900  -19.8300 O.co2     3 ASP3        0.0000 
     43 OD1        42.7700  -14.0800  -24.1100 O.co2     3 ASP3        0.0000 
     44 OD1        43.6300  -13.4000  -23.0800 O.co2     3 ASP3        0.0000 
     45 OD1        42.6100  -13.7100  -22.0200 O.co2     3 ASP3        0.0000 
     46 OD1        43.4800  -13.0300  -21.0000 O.co2     3 ASP3        0.0000 
     47 OD1        45.1800  -14.0200  -21.7800 O.co2     3 ASP3        0.0000 
     48 OD1        44.1700  -14.3300  -20.7200 O.co2     3 ASP3        0.0000 
     49 OD1        44.3400  -12.3500  -19.9800 O.co2     3 ASP3        0.0000 
     50 OD1        45.0300  -13.6500  -19.6900 O.co2     3 ASP3        0.0000 
     51 NZ         31.7100  -13.3000  -17.5000 N.4       4 LYS4        0.0000 
     52 NZ         43.4600  -15.3800  -23.8200 N.4       4 LYS4        0.0000 
     53 NZ         44.1400  -16.6800  -23.5400 N.4       4 LYS4        0.0000 
     54 NZ         44.3200  -14.7000  -22.8000 N.4       4 LYS4        0.0000 
     55 NZ         43.3000  -15.0100  -21.7400 N.4       4 LYS4        0.0000 
     56 NZ         43.9900  -16.3100  -21.4600 N.4       4 LYS4        0.0000 
     57 CZ         32.8600  -15.7200  -23.4600 C.ar      5 PHE5        0.0000 
     58 CZ         32.0200  -14.0400  -21.6600 C.ar      5 PHE5        0.0000 
     59 CZ         33.7200  -15.0400  -22.4400 C.ar      5 PHE5        0.0000 
     60 CZ         35.4300  -16.0400  -23.2200 C.ar      5 PHE5        0.0000 
     61 CZ         37.9900  -16.3500  -22.9700 C.ar      5 PHE5        0.0000 
     62 CA         33.9000  -13.0600  -21.7000 C.3       6 GLY6        0.0000 
     63 CA         32.8800  -13.3700  -20.6400 C.3       6 GLY6        0.0000 
     64 CA         32.5500  -14.9700  -19.3000 C.3       6 GLY6        0.0000 
     65 CA         38.6800  -17.6600  -22.6900 C.3       6 GLY6        0.0000 
     66 CA         37.6700  -17.9600  -21.6300 C.3       6 GLY6        0.0000 
     67 CA         32.0400  -11.6900  -18.8400 C.3       6 GLY6        0.0000 
     68 CA         33.7400  -12.6900  -19.6200 C.3       6 GLY6        0.0000 
     69 CA         32.7300  -12.9900  -18.5600 C.3       6 GLY6        0.0000 
     70 CA         36.4600  -13.3800  -21.4500 C.3       6 GLY6        0.0000 
     71 CA         35.4500  -13.6800  -20.3900 C.3       6 GLY6        0.0000 
     72 CA         38.1700  -14.3700  -22.2300 C.3       6 GLY6        0.0000 
     73 CA         37.1500  -14.6800  -21.1700 C.3       6 GLY6        0.0000 
     74 CA         40.5600  -16.6700  -22.7200 C.3       6 GLY6        0.0000 
     75 CA         39.5500  -16.9800  -21.6600 C.3       6 GLY6        0.0000 
     76 CA         38.5300  -17.2800  -20.6000 C.3       6 GLY6        0.0000 
     77 CA         42.2700  -17.6700  -23.5000 C.3       6 GLY6        0.0000 
     78 CA         41.2500  -17.9700  -22.4400 C.3       6 GLY6        0.0000 
     79 CA         42.9500  -18.9700  -23.2200 C.3       6 GLY6        0.0000 
     80 CA         42.1100  -17.2900  -21.4200 C.3       6 GLY6        0.0000 
     81 CA         43.6600  -17.9200  -20.1100 C.3       6 GLY6        0.0000 
     82 CA         41.7700  -12.0300  -20.2200 C.3       6 GLY6        0.0000 
     83 CA         40.7600  -12.3400  -19.1600 C.3       6 GLY6        0.0000 
     84 CA         41.4400  -13.6400  -18.8800 C.3       6 GLY6        0.0000 
     85 CA         43.3200  -12.6500  -18.9200 C.3       6 GLY6        0.0000 
     86 DU         38.8600  -15.6800  -21.9500 H         7 CUB7        0.0000 
     87 DU         42.4400  -15.6900  -22.7600 H         7 CUB7        0.0000 
     88 DU         43.1300  -16.9900  -22.4800 H         7 CUB7        0.0000 
     89 DU         41.6000  -14.0100  -20.9600 H         7 CUB7        0.0000 
     90 DU         42.4600  -13.3300  -19.9400 H         7 CUB7        0.0000 
@<TRIPOS>BOND
@<TRIPOS>SUBSTRUCTURE
     1 SER1        1 GROUP   
     2 ALA2        3 GROUP   
     3 ASP3       32 GROUP   
     4 LYS4       51 GROUP   
     5 PHE5       57 GROUP   
     6 GLY6       62 GROUP   
     7 CUB7       86 GROUP   
@<TRIPOS>SET

