#    Name: 6dwk_3_DTP
#    Modification time : Fri May 22 19:33:49 2020

@<TRIPOS>MOLECULE
6dwk_3_DTP
   30    32     1     0     0
SMALL
NO_CHARGES


@<TRIPOS>ATOM
      1 PG          2.1340  -20.1000    0.4660 P.3       1 DTP702      0.0000 
      2 O1G         2.8140  -21.0840   -0.4310 O.co2     1 DTP702      0.0000 
      3 O2G         2.7030  -20.1660    1.8460 O.co2     1 DTP702      0.0000 
      4 O3G         0.6080  -20.1360    0.2810 O.co2     1 DTP702      0.0000 
      5 PB          3.4760  -17.5390    0.5280 P.3       1 DTP702      0.0000 
      6 O1B         2.7890  -16.2670    0.7920 O.co2     1 DTP702      0.0000 
      7 O2B         4.2990  -17.9770    1.6860 O.co2     1 DTP702      0.0000 
      8 O3B         2.5170  -18.6720   -0.0590 O.3       1 DTP702      0.0000 
      9 PA          4.3930  -16.5290   -1.9980 P.3       1 DTP702      0.0000 
     10 O1A         4.5600  -17.5170   -3.0020 O.co2     1 DTP702      0.0000 
     11 O2A         3.2430  -15.5960   -2.0620 O.co2     1 DTP702      0.0000 
     12 O3A         4.5190  -17.2350   -0.6380 O.3       1 DTP702      0.0000 
     13 O5'         5.6570  -15.5570   -1.8880 O.3       1 DTP702      0.0000 
     14 C5'         7.0000  -15.9920   -1.7760 C.3       1 DTP702      0.0000 
     15 C4'         7.9620  -14.9430   -2.2880 C.3       1 DTP702      0.0000 
     16 O4'         7.6080  -14.5440   -3.6070 O.3       1 DTP702      0.0000 
     17 C3'         7.9300  -13.7330   -1.4460 C.3       1 DTP702      0.0000 
     18 O3'         9.2830  -13.1940   -1.3090 O.3       1 DTP702      0.0000 
     19 C2'         6.9370  -12.7800   -2.1210 C.3       1 DTP702      0.0000 
     20 C1'         7.1410  -13.1570   -3.6030 C.3       1 DTP702      0.0000 
     21 N9          5.9780  -13.1450   -4.5020 N.pl3     1 DTP702      0.0000 
     22 C8          4.6840  -13.4910   -4.2150 C.2       1 DTP702      0.0000 
     23 N7          3.8660  -13.5400   -5.3240 N.2       1 DTP702      0.0000 
     24 C5          4.6240  -13.1430   -6.3260 C.ar      1 DTP702      0.0000 
     25 C6          4.4580  -12.9140   -7.7390 C.ar      1 DTP702      0.0000 
     26 N6          3.2820  -13.1170   -8.3150 N.pl3     1 DTP702      0.0000 
     27 N1          5.5530  -12.6220   -8.4730 N.ar      1 DTP702      0.0000 
     28 C2          6.7630  -12.4770   -7.9410 C.ar      1 DTP702      0.0000 
     29 N3          7.0240  -12.6430   -6.6820 N.ar      1 DTP702      0.0000 
     30 C4          6.0430  -12.9690   -5.8110 C.ar      1 DTP702      0.0000 
@<TRIPOS>BOND
     1    1    2 ar   
     2    1    3 ar   
     3    1    4 ar   
     4    1    8 1    
     5    5    6 ar   
     6    5    7 ar   
     7    5    8 1    
     8    5   12 1    
     9    9   10 ar   
    10    9   11 ar   
    11    9   12 1    
    12    9   13 1    
    13   13   14 1    
    14   14   15 1    
    15   15   16 1    
    16   15   17 1    
    17   16   20 1    
    18   17   18 1    
    19   17   19 1    
    20   19   20 1    
    21   20   21 1    
    22   21   22 1    
    23   21   30 1    
    24   22   23 2    
    25   23   24 1    
    26   24   25 ar   
    27   24   30 ar   
    28   25   26 1    
    29   25   27 ar   
    30   27   28 ar   
    31   28   29 ar   
    32   29   30 ar   
@<TRIPOS>SUBSTRUCTURE
     1 DTP702      1 GROUP   
@<TRIPOS>SET

