#    Name: 6dwk_2_DTP_CAVITY_N1_8
#    Modification time : Fri May 22 19:33:35 2020

@<TRIPOS>MOLECULE
6dwk_2_DTP_CAVITY_N1_8
   55     0     7     0     0
SMALL
NO_CHARGES


@<TRIPOS>ATOM
      1 OG         39.1300   14.1700   -4.5800 O.3       1 SER1        0.0000 
      2 OG         38.1100   13.8600   -3.5200 O.3       1 SER1        0.0000 
      3 OG         38.8000   12.5600   -3.2300 O.3       1 SER1        0.0000 
      4 OG         39.3100   16.1500   -3.8400 O.3       1 SER1        0.0000 
      5 OG         39.9900   14.8500   -3.5600 O.3       1 SER1        0.0000 
      6 N          38.9400    9.8400   -8.1400 N.am      2 ALA2        0.0000 
      7 N          37.9200    9.5300   -7.0800 N.am      2 ALA2        0.0000 
      8 N          36.9000    9.2200   -6.0200 N.am      2 ALA2        0.0000 
      9 N          37.5900    7.9200   -5.7300 N.am      2 ALA2        0.0000 
     10 N          38.7800   10.2100   -6.0600 N.am      2 ALA2        0.0000 
     11 N          36.7500    9.6000   -3.9400 N.am      2 ALA2        0.0000 
     12 N          35.7300    9.2900   -2.8800 N.am      2 ALA2        0.0000 
     13 N          37.4400    8.2900   -3.6500 N.am      2 ALA2        0.0000 
     14 N          40.1500   14.4800   -5.6400 N.am      2 ALA2        0.0000 
     15 OD1        38.6100    8.2300   -6.7900 O.co2     3 ASP3        0.0000 
     16 OD1        38.4500    8.6000   -4.7100 O.co2     3 ASP3        0.0000 
     17 OD1        37.6100   10.2700   -2.9100 O.co2     3 ASP3        0.0000 
     18 OD1        36.6000    9.9700   -1.8500 O.co2     3 ASP3        0.0000 
     19 OD1        35.3600   19.0700   -4.6500 O.co2     3 ASP3        0.0000 
     20 OD1        33.3300   18.4600   -2.5300 O.co2     3 ASP3        0.0000 
     21 OD1        36.0500   17.7700   -4.3700 O.co2     3 ASP3        0.0000 
     22 OD1        34.1900   19.1400   -1.5100 O.co2     3 ASP3        0.0000 
     23 OD1        33.1800   18.8300   -0.4500 O.co2     3 ASP3        0.0000 
     24 NZ         37.7500   16.7700   -5.1500 N.4       4 LYS4        0.0000 
     25 NZ         39.4600   15.7800   -5.9200 N.4       4 LYS4        0.0000 
     26 NZ         37.9300   18.7600   -4.4100 N.4       4 LYS4        0.0000 
     27 NZ         38.6200   17.4500   -4.1200 N.4       4 LYS4        0.0000 
     28 NZ         40.3200   16.4600   -4.9000 N.4       4 LYS4        0.0000 
     29 CZ         36.7400   16.4700   -4.0900 C.ar      5 PHE5        0.0000 
     30 CZ         37.4300   15.1700   -3.8000 C.ar      5 PHE5        0.0000 
     31 CZ         36.9100   18.4500   -3.3500 C.ar      5 PHE5        0.0000 
     32 CZ         35.9000   18.1400   -2.2900 C.ar      5 PHE5        0.0000 
     33 CZ         34.8800   17.8400   -1.2300 C.ar      5 PHE5        0.0000 
     34 CZ         37.6000   17.1500   -3.0600 C.ar      5 PHE5        0.0000 
     35 CA         37.7500    7.5500   -7.8200 C.3       6 GLY6        0.0000 
     36 CA         39.6200    8.5300   -7.8600 C.3       6 GLY6        0.0000 
     37 CA         35.3700   12.2000   -4.5000 C.3       6 GLY6        0.0000 
     38 CA         38.0900   11.5100   -6.3400 C.3       6 GLY6        0.0000 
     39 CA         35.0500   10.5900   -3.1600 C.3       6 GLY6        0.0000 
     40 CA         39.2800   13.8000   -6.6600 C.3       6 GLY6        0.0000 
     41 CA         37.2500   13.1900   -4.5400 C.3       6 GLY6        0.0000 
     42 CA         36.2400   12.8800   -3.4800 C.3       6 GLY6        0.0000 
     43 CA         38.9600   12.1900   -5.3200 C.3       6 GLY6        0.0000 
     44 CA         37.9400   11.8800   -4.2600 C.3       6 GLY6        0.0000 
     45 CA         36.9200   11.5800   -3.2000 C.3       6 GLY6        0.0000 
     46 CA         35.9100   11.2700   -2.1400 C.3       6 GLY6        0.0000 
     47 CA         34.3500   18.7700   -3.5900 C.3       6 GLY6        0.0000 
     48 CA         35.0300   17.4600   -3.3100 C.3       6 GLY6        0.0000 
     49 CA         34.0200   17.1600   -2.2500 C.3       6 GLY6        0.0000 
     50 CA         35.7200   16.1600   -3.0300 C.3       6 GLY6        0.0000 
     51 CA         38.4400   15.4700   -4.8600 C.3       6 GLY6        0.0000 
     52 CA         36.2200   19.7500   -3.6300 C.3       6 GLY6        0.0000 
     53 CA         35.2100   19.4500   -2.5700 C.3       6 GLY6        0.0000 
     54 DU         36.0600   10.9000   -4.2200 H         7 CUB7        0.0000 
     55 DU         37.7700    9.9000   -5.0000 H         7 CUB7        0.0000 
@<TRIPOS>BOND
@<TRIPOS>SUBSTRUCTURE
     1 SER1        1 GROUP   
     2 ALA2        6 GROUP   
     3 ASP3       15 GROUP   
     4 LYS4       24 GROUP   
     5 PHE5       29 GROUP   
     6 GLY6       35 GROUP   
     7 CUB7       54 GROUP   
@<TRIPOS>SET

