#    Name: 6dwk_1_DTP_CAVITY_N1_4
#    Modification time : Fri May 22 19:33:20 2020

@<TRIPOS>MOLECULE
6dwk_1_DTP_CAVITY_N1_4
   86     0     6     0     0
SMALL
NO_CHARGES


@<TRIPOS>ATOM
      1 OG          6.5800    4.3000  -34.3800 O.3       1 SER1        0.0000 
      2 OG          5.5600    3.9900  -33.3200 O.3       1 SER1        0.0000 
      3 OG          7.2700    2.9900  -34.1000 O.3       1 SER1        0.0000 
      4 OG          6.2500    2.6900  -33.0400 O.3       1 SER1        0.0000 
      5 OG          5.2400    2.3800  -31.9800 O.3       1 SER1        0.0000 
      6 OG          6.9400    1.3900  -32.7500 O.3       1 SER1        0.0000 
      7 N           1.3300    0.7800  -29.8200 N.am      2 ALA2        0.0000 
      8 N           0.3100    0.4800  -28.7600 N.am      2 ALA2        0.0000 
      9 N           4.0500    0.0900  -31.6600 N.am      2 ALA2        0.0000 
     10 N           3.0300   -0.2100  -30.6000 N.am      2 ALA2        0.0000 
     11 N           1.5000    2.7700  -29.0800 N.am      2 ALA2        0.0000 
     12 O           2.1900    1.4600  -28.8000 O.2       2 ALA2        0.0000 
     13 N           1.1700    1.1600  -27.7400 N.am      2 ALA2        0.0000 
     14 N           4.9100    0.7700  -30.6300 N.am      2 ALA2        0.0000 
     15 N           3.8900    0.4700  -29.5700 N.am      2 ALA2        0.0000 
     16 N           1.8600   -0.1500  -27.4500 N.am      2 ALA2        0.0000 
     17 N           7.4400    4.9700  -33.3600 N.am      2 ALA2        0.0000 
     18 N           9.8400    2.6800  -33.8500 N.am      2 ALA2        0.0000 
     19 O           3.7400    0.8400  -27.4900 O.2       2 ALA2        0.0000 
     20 N           9.5100    1.0700  -32.5100 N.am      2 ALA2        0.0000 
     21 N           7.6200    6.9600  -32.6200 N.am      2 ALA2        0.0000 
     22 N           8.3100    5.6500  -32.3400 N.am      2 ALA2        0.0000 
     23 N           8.9900    4.3500  -32.0500 N.am      2 ALA2        0.0000 
     24 O           9.6800    3.0500  -31.7700 O.2       2 ALA2        0.0000 
     25 O           8.1800    1.5100  -27.2800 O.2       2 ALA2        0.0000 
     26 OD1        -1.4800    8.1600  -36.7500 O.co2     3 ASP3        0.0000 
     27 OD1        -0.7900    6.8600  -36.4600 O.co2     3 ASP3        0.0000 
     28 OD1         1.8100    2.0200  -33.2500 O.co2     3 ASP3        0.0000 
     29 OD1         3.6900    3.0000  -33.2800 O.co2     3 ASP3        0.0000 
     30 OD1         5.2000    6.9000  -34.9500 O.co2     3 ASP3        0.0000 
     31 OD1         4.5500    3.6800  -32.2600 O.co2     3 ASP3        0.0000 
     32 OD1         2.5200    3.0700  -30.1400 O.co2     3 ASP3        0.0000 
     33 OD1         4.2200    2.0800  -30.9200 O.co2     3 ASP3        0.0000 
     34 OD1         3.2000    1.7700  -29.8600 O.co2     3 ASP3        0.0000 
     35 OD1         5.0500    7.2700  -32.8700 O.co2     3 ASP3        0.0000 
     36 OD1         5.7400    5.9700  -32.5800 O.co2     3 ASP3        0.0000 
     37 OD1         6.4300    4.6700  -32.3000 O.co2     3 ASP3        0.0000 
     38 OD1         7.1100    3.3700  -32.0100 O.co2     3 ASP3        0.0000 
     39 OD1         7.8000    2.0600  -31.7300 O.co2     3 ASP3        0.0000 
     40 OD1         6.7900    1.7600  -30.6700 O.co2     3 ASP3        0.0000 
     41 OD1         5.7700    1.4500  -29.6100 O.co2     3 ASP3        0.0000 
     42 OD1         4.7600    1.1500  -28.5500 O.co2     3 ASP3        0.0000 
     43 OD1         7.2900    5.3500  -31.2800 O.co2     3 ASP3        0.0000 
     44 OD1         8.6700    2.7400  -30.7100 O.co2     3 ASP3        0.0000 
     45 OD1         5.6200    1.8200  -27.5300 O.co2     3 ASP3        0.0000 
     46 OD1         7.3200    0.8300  -28.3000 O.co2     3 ASP3        0.0000 
     47 OD1         4.2700   -0.0900  -25.1200 O.co2     3 ASP3        0.0000 
     48 OD1         5.1400    0.5900  -24.1000 O.co2     3 ASP3        0.0000 
     49 CZ         -0.9700    4.8800  -37.2000 C.ar      4 PHE5        0.0000 
     50 CZ          2.5000    0.7200  -32.9600 C.ar      4 PHE5        0.0000 
     51 CZ          3.3600    1.4000  -31.9400 C.ar      4 PHE5        0.0000 
     52 CZ          5.9200    1.0800  -31.6900 C.ar      4 PHE5        0.0000 
     53 CZ          8.4900    0.7600  -31.4500 C.ar      4 PHE5        0.0000 
     54 CZ          7.4800    0.4600  -30.3900 C.ar      4 PHE5        0.0000 
     55 CZ          6.4600    0.1500  -29.3300 C.ar      4 PHE5        0.0000 
     56 CZ          7.1500   -1.1500  -29.0400 C.ar      4 PHE5        0.0000 
     57 CZ          8.3400    1.1300  -29.3600 C.ar      4 PHE5        0.0000 
     58 CZ          8.0100   -0.4700  -28.0200 C.ar      4 PHE5        0.0000 
     59 CA         -0.4600    8.4600  -37.8100 C.3       5 GLY6        0.0000 
     60 CA         -0.1000    5.5500  -36.1800 C.3       5 GLY6        0.0000 
     61 CA          2.6700    2.7000  -32.2200 C.3       5 GLY6        0.0000 
     62 CA          1.6500    2.3900  -31.1600 C.3       5 GLY6        0.0000 
     63 CA          2.0100   -0.5200  -29.5400 C.3       5 GLY6        0.0000 
     64 CA          1.0000   -0.8200  -28.4800 C.3       5 GLY6        0.0000 
     65 CA          4.8800    5.2900  -33.6000 C.3       5 GLY6        0.0000 
     66 CA          7.9600    1.6900  -33.8100 C.3       5 GLY6        0.0000 
     67 CA          2.8800    0.1600  -28.5100 C.3       5 GLY6        0.0000 
     68 CA          8.8200    2.3700  -32.7900 C.3       5 GLY6        0.0000 
     69 CA          5.4400   -0.1600  -28.2700 C.3       5 GLY6        0.0000 
     70 CA          4.4300   -0.4600  -27.2100 C.3       5 GLY6        0.0000 
     71 CA          6.1300   -1.4600  -27.9800 C.3       5 GLY6        0.0000 
     72 CA         10.3700    1.7500  -31.4800 C.3       5 GLY6        0.0000 
     73 CA          9.3500    1.4400  -30.4200 C.3       5 GLY6        0.0000 
     74 CA          6.3100    0.5200  -27.2400 C.3       5 GLY6        0.0000 
     75 CA          5.2900    0.2200  -26.1800 C.3       5 GLY6        0.0000 
     76 CA          6.9900   -0.7800  -26.9600 C.3       5 GLY6        0.0000 
     77 CA          5.9800   -1.0900  -25.9000 C.3       5 GLY6        0.0000 
     78 CA          7.1700    1.2000  -26.2200 C.3       5 GLY6        0.0000 
     79 CA          6.1500    0.8900  -25.1600 C.3       5 GLY6        0.0000 
     80 CA          7.8600   -0.1000  -25.9400 C.3       5 GLY6        0.0000 
     81 CA          6.8400   -0.4100  -24.8800 C.3       5 GLY6        0.0000 
     82 DU          2.3400    1.0900  -30.8800 H         6 CUB7        0.0000 
     83 DU          5.8900    5.6000  -34.6600 H         6 CUB7        0.0000 
     84 DU          6.0700    7.5800  -33.9300 H         6 CUB7        0.0000 
     85 DU          6.7500    6.2800  -33.6400 H         6 CUB7        0.0000 
     86 DU          8.1300    3.6700  -33.0700 H         6 CUB7        0.0000 
@<TRIPOS>BOND
@<TRIPOS>SUBSTRUCTURE
     1 SER1        1 GROUP   
     2 ALA2        7 GROUP   
     3 ASP3       26 GROUP   
     4 PHE5       49 GROUP   
     5 GLY6       59 GROUP   
     6 CUB7       82 GROUP   
@<TRIPOS>SET

