#    Name: 6dwk_4_DTP_CAVITY_N1_6
#    Modification time : Fri May 22 19:34:05 2020

@<TRIPOS>MOLECULE
6dwk_4_DTP_CAVITY_N1_6
   57     0     7     0     0
SMALL
NO_CHARGES


@<TRIPOS>ATOM
      1 OG         34.5700  -16.7200  -24.2400 O.3       1 SER1        0.0000 
      2 OG         36.1200  -17.3400  -22.9300 O.3       1 SER1        0.0000 
      3 N          34.7400  -14.7300  -23.5000 N.am      2 ALA2        0.0000 
      4 O          31.8700  -13.6700  -19.5800 O.2       2 ALA2        0.0000 
      5 N          34.5900  -14.3600  -21.4200 N.am      2 ALA2        0.0000 
      6 N          37.3100  -15.0500  -23.2500 N.am      2 ALA2        0.0000 
      7 N          36.2900  -15.3600  -22.1900 N.am      2 ALA2        0.0000 
      8 N          39.8700  -15.3700  -23.0100 N.am      2 ALA2        0.0000 
      9 N          36.3100  -13.0000  -19.3700 N.am      2 ALA2        0.0000 
     10 N          39.0300  -13.6900  -21.2100 N.am      2 ALA2        0.0000 
     11 N          38.0200  -14.0000  -20.1500 N.am      2 ALA2        0.0000 
     12 O          37.0000  -14.3100  -19.0900 O.2       2 ALA2        0.0000 
     13 N          40.7400  -14.6900  -21.9800 N.am      2 ALA2        0.0000 
     14 N          39.7200  -15.0000  -20.9200 N.am      2 ALA2        0.0000 
     15 N          38.7000  -15.3000  -19.8600 N.am      2 ALA2        0.0000 
     16 O          37.6900  -15.6100  -18.8000 O.2       2 ALA2        0.0000 
     17 N          40.9100  -12.7100  -21.2500 N.am      2 ALA2        0.0000 
     18 N          39.8900  -13.0200  -20.1900 N.am      2 ALA2        0.0000 
     19 N          38.8800  -13.3200  -19.1300 N.am      2 ALA2        0.0000 
     20 N          40.5800  -14.3200  -19.9000 N.am      2 ALA2        0.0000 
     21 N          39.5700  -14.6200  -18.8400 N.am      2 ALA2        0.0000 
     22 OD1        31.8500  -16.0300  -22.4000 O.co2     3 ASP3        0.0000 
     23 OD1        33.5500  -17.0200  -23.1800 O.co2     3 ASP3        0.0000 
     24 OD1        32.7100  -15.3500  -21.3800 O.co2     3 ASP3        0.0000 
     25 OD1        34.4100  -16.3400  -22.1600 O.co2     3 ASP3        0.0000 
     26 OD1        33.5700  -14.6700  -20.3600 O.co2     3 ASP3        0.0000 
     27 OD1        35.2700  -15.6600  -21.1300 O.co2     3 ASP3        0.0000 
     28 OD1        36.9800  -16.6600  -21.9100 O.co2     3 ASP3        0.0000 
     29 OD1        34.4300  -13.9900  -19.3300 O.co2     3 ASP3        0.0000 
     30 OD1        36.1400  -14.9900  -20.1100 O.co2     3 ASP3        0.0000 
     31 OD1        37.8400  -15.9800  -20.8900 O.co2     3 ASP3        0.0000 
     32 OD1        36.8300  -16.2900  -19.8300 O.co2     3 ASP3        0.0000 
     33 NZ         31.7100  -13.3000  -17.5000 N.4       4 LYS4        0.0000 
     34 CZ         32.8600  -15.7200  -23.4600 C.ar      5 PHE5        0.0000 
     35 CZ         32.0200  -14.0400  -21.6600 C.ar      5 PHE5        0.0000 
     36 CZ         33.7200  -15.0400  -22.4400 C.ar      5 PHE5        0.0000 
     37 CZ         35.4300  -16.0400  -23.2200 C.ar      5 PHE5        0.0000 
     38 CZ         37.9900  -16.3500  -22.9700 C.ar      5 PHE5        0.0000 
     39 CA         33.9000  -13.0600  -21.7000 C.3       6 GLY6        0.0000 
     40 CA         32.8800  -13.3700  -20.6400 C.3       6 GLY6        0.0000 
     41 CA         32.5500  -14.9700  -19.3000 C.3       6 GLY6        0.0000 
     42 CA         38.6800  -17.6600  -22.6900 C.3       6 GLY6        0.0000 
     43 CA         37.6700  -17.9600  -21.6300 C.3       6 GLY6        0.0000 
     44 CA         32.0400  -11.6900  -18.8400 C.3       6 GLY6        0.0000 
     45 CA         33.7400  -12.6900  -19.6200 C.3       6 GLY6        0.0000 
     46 CA         32.7300  -12.9900  -18.5600 C.3       6 GLY6        0.0000 
     47 CA         36.4600  -13.3800  -21.4500 C.3       6 GLY6        0.0000 
     48 CA         35.4500  -13.6800  -20.3900 C.3       6 GLY6        0.0000 
     49 CA         38.1700  -14.3700  -22.2300 C.3       6 GLY6        0.0000 
     50 CA         37.1500  -14.6800  -21.1700 C.3       6 GLY6        0.0000 
     51 CA         40.5600  -16.6700  -22.7200 C.3       6 GLY6        0.0000 
     52 CA         39.5500  -16.9800  -21.6600 C.3       6 GLY6        0.0000 
     53 CA         38.5300  -17.2800  -20.6000 C.3       6 GLY6        0.0000 
     54 CA         41.2500  -17.9700  -22.4400 C.3       6 GLY6        0.0000 
     55 CA         42.9500  -18.9700  -23.2200 C.3       6 GLY6        0.0000 
     56 CA         40.7600  -12.3400  -19.1600 C.3       6 GLY6        0.0000 
     57 DU         38.8600  -15.6800  -21.9500 H         7 CUB7        0.0000 
@<TRIPOS>BOND
@<TRIPOS>SUBSTRUCTURE
     1 SER1        1 GROUP   
     2 ALA2        3 GROUP   
     3 ASP3       22 GROUP   
     4 LYS4       33 GROUP   
     5 PHE5       34 GROUP   
     6 GLY6       39 GROUP   
     7 CUB7       57 GROUP   
@<TRIPOS>SET

