#    Name: 6h2j_1_ATP_CAVITY_N1_4
#    Modification time : Fri May 22 19:26:29 2020

@<TRIPOS>MOLECULE
6h2j_1_ATP_CAVITY_N1_4
   65     0     5     0     0
SMALL
NO_CHARGES


@<TRIPOS>ATOM
      1 N          48.9700   37.6900   31.2100 N.am      1 ALA2        0.0000 
      2 O          52.9400   35.6800   29.5600 O.2       1 ALA2        0.0000 
      3 O          52.0000   36.6100   30.2800 O.2       1 ALA2        0.0000 
      4 O          56.0400   33.7300   29.8500 O.2       1 ALA2        0.0000 
      5 O          55.1000   34.6600   30.5700 O.2       1 ALA2        0.0000 
      6 N          56.1000   32.8500   31.0700 N.am      1 ALA2        0.0000 
      7 N          55.1700   33.7800   31.7800 N.am      1 ALA2        0.0000 
      8 OD1        48.7300   30.7500   33.6300 O.co2     2 ASP3        0.0000 
      9 OD1        50.8400   30.6100   33.4200 O.co2     2 ASP3        0.0000 
     10 OD1        49.9700   30.6600   35.3500 O.co2     2 ASP3        0.0000 
     11 OD1        50.9600   28.8600   35.8500 O.co2     2 ASP3        0.0000 
     12 OD1        50.9500   34.0700   32.2100 O.co2     2 ASP3        0.0000 
     13 OD1        51.9500   32.2700   32.7100 O.co2     2 ASP3        0.0000 
     14 OD1        52.0100   31.3900   33.9200 O.co2     2 ASP3        0.0000 
     15 OD1        51.0700   37.5400   30.9900 O.co2     2 ASP3        0.0000 
     16 OD1        52.0700   35.7300   31.4900 O.co2     2 ASP3        0.0000 
     17 OD1        51.1300   36.6700   32.2100 O.co2     2 ASP3        0.0000 
     18 OD1        50.2000   37.6000   32.9300 O.co2     2 ASP3        0.0000 
     19 OD1        55.8600   31.1300   29.8500 O.co2     2 ASP3        0.0000 
     20 OD1        52.1300   34.8600   32.7100 O.co2     2 ASP3        0.0000 
     21 OD1        51.2000   35.7900   33.4300 O.co2     2 ASP3        0.0000 
     22 OD1        53.1200   33.0500   33.2100 O.co2     2 ASP3        0.0000 
     23 OD1        54.1700   35.5900   31.2800 O.co2     2 ASP3        0.0000 
     24 NZ         52.6400   29.6200   30.7700 N.4       3 LYS4        0.0000 
     25 NZ         51.7100   30.5500   31.4900 N.4       3 LYS4        0.0000 
     26 NZ         51.7700   29.6800   32.7000 N.4       3 LYS4        0.0000 
     27 NZ         50.9000   29.7300   34.6400 N.4       3 LYS4        0.0000 
     28 NZ         53.8100   30.4000   31.2700 N.4       3 LYS4        0.0000 
     29 NZ         52.8800   31.3400   31.9900 N.4       3 LYS4        0.0000 
     30 NZ         52.0700   30.5200   35.1400 N.4       3 LYS4        0.0000 
     31 NZ         54.9900   31.1900   31.7800 N.4       3 LYS4        0.0000 
     32 NZ         54.0500   32.1200   32.5000 N.4       3 LYS4        0.0000 
     33 NZ         56.1600   31.9800   32.2800 N.4       3 LYS4        0.0000 
     34 NZ         55.2300   32.9100   33.0000 N.4       3 LYS4        0.0000 
     35 CA         50.4700   30.6400   29.7600 C.3       4 GLY6        0.0000 
     36 CA         49.6000   30.7000   31.7000 C.3       4 GLY6        0.0000 
     37 CA         51.5800   32.3000   29.0500 C.3       4 GLY6        0.0000 
     38 CA         51.6500   31.4200   30.2700 C.3       4 GLY6        0.0000 
     39 CA         50.7100   32.3600   30.9800 C.3       4 GLY6        0.0000 
     40 CA         50.7700   31.4800   32.2000 C.3       4 GLY6        0.0000 
     41 CA         51.7600   34.8900   29.0600 C.3       4 GLY6        0.0000 
     42 CA         50.8300   35.8200   29.7700 C.3       4 GLY6        0.0000 
     43 CA         49.9000   36.7500   30.4900 C.3       4 GLY6        0.0000 
     44 CA         52.7600   33.0900   29.5600 C.3       4 GLY6        0.0000 
     45 CA         51.8200   34.0200   30.2700 C.3       4 GLY6        0.0000 
     46 CA         50.8900   34.9500   30.9900 C.3       4 GLY6        0.0000 
     47 CA         49.9600   35.8800   31.7100 C.3       4 GLY6        0.0000 
     48 CA         49.0300   36.8100   32.4200 C.3       4 GLY6        0.0000 
     49 CA         51.8900   33.1400   31.4900 C.3       4 GLY6        0.0000 
     50 CA         52.1300   29.6400   36.3600 C.3       4 GLY6        0.0000 
     51 CA         51.2000   30.5800   37.0800 C.3       4 GLY6        0.0000 
     52 CA         55.7900   32.0100   28.6300 C.3       4 GLY6        0.0000 
     53 CA         54.8600   32.9400   29.3400 C.3       4 GLY6        0.0000 
     54 CA         53.9300   33.8700   30.0600 C.3       4 GLY6        0.0000 
     55 DU         51.4700   28.8300   30.2600 H         5 CUB7        0.0000 
     56 DU         50.5300   29.7600   30.9800 H         5 CUB7        0.0000 
     57 DU         50.6000   28.8900   32.2000 H         5 CUB7        0.0000 
     58 DU         49.6600   29.8200   32.9100 H         5 CUB7        0.0000 
     59 DU         53.7500   31.2800   30.0600 H         5 CUB7        0.0000 
     60 DU         52.8200   32.2100   30.7700 H         5 CUB7        0.0000 
     61 DU         53.0000   34.8000   30.7800 H         5 CUB7        0.0000 
     62 DU         54.9200   32.0700   30.5600 H         5 CUB7        0.0000 
     63 DU         53.9900   33.0000   31.2800 H         5 CUB7        0.0000 
     64 DU         53.0600   33.9300   32.0000 H         5 CUB7        0.0000 
     65 DU         54.3000   33.8400   33.7200 H         5 CUB7        0.0000 
@<TRIPOS>BOND
@<TRIPOS>SUBSTRUCTURE
     1 ALA2        1 GROUP   
     2 ASP3        8 GROUP   
     3 LYS4       24 GROUP   
     4 GLY6       35 GROUP   
     5 CUB7       55 GROUP   
@<TRIPOS>SET

