#    Name: 6h2j_1_ATP
#    Modification time : Fri May 22 19:26:26 2020

@<TRIPOS>MOLECULE
6h2j_1_ATP
   31    33     1     0     1
SMALL
NO_CHARGES


@<TRIPOS>ATOM
      1 PG         60.8650   30.4530   28.4930 P.3       1 ATP1101     0.0000 
      2 O1G        60.4830   29.2910   27.5750 O.co2     1 ATP1101     0.0000 
      3 O2G        61.3030   29.9840   29.8670 O.co2     1 ATP1101     0.0000 
      4 O3G        61.7870   31.5330   27.9550 O.co2     1 ATP1101     0.0000 
      5 PB         58.4170   31.8790   27.7990 P.3       1 ATP1101     0.0000 
      6 O1B        58.0640   30.7860   26.8340 O.co2     1 ATP1101     0.0000 
      7 O2B        58.8940   33.1980   27.3690 O.co2     1 ATP1101     0.0000 
      8 O3B        59.5200   31.3490   28.8290 O.3       1 ATP1101     0.0000 
      9 PA         55.8660   31.4550   29.1210 P.3       1 ATP1101     0.0000 
     10 O1A        54.9100   31.4290   27.9540 O.co2     1 ATP1101     0.0000 
     11 O2A        56.3350   30.1880   29.7780 O.co2     1 ATP1101     0.0000 
     12 O3A        57.2090   32.3020   28.7740 O.3       1 ATP1101     0.0000 
     13 O5'        55.2560   32.3880   30.2700 O.3       1 ATP1101     0.0000 
     14 C5'        55.8740   32.4880   31.5650 C.3       1 ATP1101     0.0000 
     15 C4'        54.8400   32.6930   32.6790 C.3       1 ATP1101     0.0000 
     16 O4'        54.3390   34.0370   32.6980 O.3       1 ATP1101     0.0000 
     17 C3'        53.6520   31.7650   32.4920 C.3       1 ATP1101     0.0000 
     18 O3'        53.2560   31.2410   33.7710 O.3       1 ATP1101     0.0000 
     19 C2'        52.5800   32.6770   31.9380 C.3       1 ATP1101     0.0000 
     20 O2'        51.2590   32.2050   32.2350 O.3       1 ATP1101     0.0000 
     21 C1'        52.9180   34.0170   32.5780 C.3       1 ATP1101     0.0000 
     22 N9         52.4860   35.0560   31.6390 N.pl3     1 ATP1101     0.0000 
     23 C8         53.1320   35.3810   30.5060 C.2       1 ATP1101     0.0000 
     24 N7         52.4710   36.3760   29.8710 N.2       1 ATP1101     0.0000 
     25 C5         51.3880   36.6870   30.5980 C.ar      1 ATP1101     0.0000 
     26 C6         50.2630   37.6300   30.4740 C.ar      1 ATP1101     0.0000 
     27 N6         50.1780   38.4800   29.4200 N.pl3     1 ATP1101     0.0000 
     28 N1         49.3340   37.6190   31.4490 N.ar      1 ATP1101     0.0000 
     29 C2         49.4120   36.8020   32.5150 C.ar      1 ATP1101     0.0000 
     30 N3         50.3930   35.9230   32.6880 N.ar      1 ATP1101     0.0000 
     31 C4         51.3910   35.8140   31.7670 C.ar      1 ATP1101     0.0000 
@<TRIPOS>BOND
     1    1    2 ar   
     2    1    3 ar   
     3    1    4 ar   
     4    1    8 1    
     5    5    6 ar   
     6    5    7 ar   
     7    5    8 1    
     8    5   12 1    
     9    9   10 ar   
    10    9   11 ar   
    11    9   12 1    
    12    9   13 1    
    13   13   14 1    
    14   14   15 1    
    15   15   16 1    
    16   15   17 1    
    17   16   21 1    
    18   17   18 1    
    19   17   19 1    
    20   19   20 1    
    21   19   21 1    
    22   21   22 1    
    23   22   23 1    
    24   22   31 1    
    25   23   24 2    
    26   24   25 1    
    27   25   26 ar   
    28   25   31 ar   
    29   26   27 1    
    30   26   28 ar   
    31   28   29 ar   
    32   29   30 ar   
    33   30   31 ar   
@<TRIPOS>SUBSTRUCTURE
     1 ATP1101     1 GROUP   
@<TRIPOS>SET
ATOM$ORANGE STATIC     ATOMS   COLORGROUP SYSTEM 
20 14 14 15 15 17 17 19 19 21 21 23 23 25 25 26 26 29 \
29 31 31 

