#    Name: 6h2j_2_ATP_CAVITY_N1_4
#    Modification time : Fri May 22 19:26:48 2020

@<TRIPOS>MOLECULE
6h2j_2_ATP_CAVITY_N1_4
   65     0     6     0     0
SMALL
NO_CHARGES


@<TRIPOS>ATOM
      1 O           9.4500   -4.7200   28.6300 O.2       1 ALA2        0.0000 
      2 N           6.6500   -1.9200   30.7800 N.am      1 ALA2        0.0000 
      3 O          10.4500   -6.5200   29.1300 O.2       1 ALA2        0.0000 
      4 N           6.7200   -2.8000   31.9900 N.am      1 ALA2        0.0000 
      5 N          12.5500   -6.6700   28.9200 N.am      1 ALA2        0.0000 
      6 N          11.6200   -5.7400   29.6300 N.am      1 ALA2        0.0000 
      7 N          12.8500   -5.8300   31.3600 N.am      1 ALA2        0.0000 
      8 OD1         9.5100   -5.5900   29.8400 O.co2     2 ASP3        0.0000 
      9 OD1         8.5800   -4.6600   30.5600 O.co2     2 ASP3        0.0000 
     10 OD1        10.6900   -4.8100   30.3500 O.co2     2 ASP3        0.0000 
     11 OD1         9.7500   -3.8700   31.0700 O.co2     2 ASP3        0.0000 
     12 OD1        11.6800   -6.6100   30.8500 O.co2     2 ASP3        0.0000 
     13 OD1        10.7500   -5.6800   31.5700 O.co2     2 ASP3        0.0000 
     14 OD1         9.8200   -4.7500   32.2800 O.co2     2 ASP3        0.0000 
     15 OD1        10.0000   -2.1600   32.2900 O.co2     2 ASP3        0.0000 
     16 OD1         9.0600   -1.2300   33.0000 O.co2     2 ASP3        0.0000 
     17 OD1        11.9200   -4.8900   32.0700 O.co2     2 ASP3        0.0000 
     18 OD1        10.9900   -3.9600   32.7900 O.co2     2 ASP3        0.0000 
     19 OD1        13.1000   -4.1100   32.5800 O.co2     2 ASP3        0.0000 
     20 OD1        11.4100    0.3500   34.0100 O.co2     2 ASP3        0.0000 
     21 NZ          5.7200   -0.9900   31.4900 N.4       3 LYS4        0.0000 
     22 NZ          7.8300   -1.1400   31.2800 N.4       3 LYS4        0.0000 
     23 NZ          8.9400    0.5200   30.5700 N.4       3 LYS4        0.0000 
     24 NZ          9.0000   -0.3500   31.7900 N.4       3 LYS4        0.0000 
     25 NZ          9.1200    3.1200   30.5700 N.4       3 LYS4        0.0000 
     26 NZ         10.1100    1.3100   31.0800 N.4       3 LYS4        0.0000 
     27 NZ         10.1700    0.4400   32.2900 N.4       3 LYS4        0.0000 
     28 NZ         12.1600    2.0400   29.6500 N.4       3 LYS4        0.0000 
     29 NZ         10.3500    3.0300   32.3000 N.4       3 LYS4        0.0000 
     30 NZ         11.3500    1.2200   32.8000 N.4       3 LYS4        0.0000 
     31 NZ         10.4200    2.1500   33.5100 N.4       3 LYS4        0.0000 
     32 NZ         13.3900    1.9500   31.3700 N.4       3 LYS4        0.0000 
     33 NZ         13.4500    1.0800   32.5900 N.4       3 LYS4        0.0000 
     34 CZ         12.9200   -6.7000   32.5700 C.ar      4 PHE5        0.0000 
     35 CZ         11.9800   -5.7700   33.2900 C.ar      4 PHE5        0.0000 
     36 CA          6.5900   -1.0500   29.5600 C.3       5 GLY6        0.0000 
     37 CA          8.5200   -3.7900   29.3400 C.3       5 GLY6        0.0000 
     38 CA          7.5900   -2.8500   30.0600 C.3       5 GLY6        0.0000 
     39 CA          9.6300   -2.1300   28.6300 C.3       5 GLY6        0.0000 
     40 CA          8.7000   -1.1900   29.3500 C.3       5 GLY6        0.0000 
     41 CA         11.5600   -4.8600   28.4200 C.3       5 GLY6        0.0000 
     42 CA         10.6200   -3.9300   29.1300 C.3       5 GLY6        0.0000 
     43 CA          9.6900   -3.0000   29.8500 C.3       5 GLY6        0.0000 
     44 CA         10.8000   -1.3400   29.1400 C.3       5 GLY6        0.0000 
     45 CA          9.8700   -0.4100   29.8500 C.3       5 GLY6        0.0000 
     46 CA         12.7300   -4.0800   28.9200 C.3       5 GLY6        0.0000 
     47 CA         11.8000   -3.1500   29.6400 C.3       5 GLY6        0.0000 
     48 CA         10.8700   -2.2100   30.3500 C.3       5 GLY6        0.0000 
     49 CA          9.9300   -1.2800   31.0700 C.3       5 GLY6        0.0000 
     50 CA         12.7900   -4.9500   30.1400 C.3       5 GLY6        0.0000 
     51 CA         11.8600   -4.0200   30.8600 C.3       5 GLY6        0.0000 
     52 CA         10.9300   -3.0900   31.5700 C.3       5 GLY6        0.0000 
     53 CA         11.9200    0.3200   28.4300 C.3       5 GLY6        0.0000 
     54 CA         11.9800   -0.5500   29.6400 C.3       5 GLY6        0.0000 
     55 CA         11.0500    0.3800   30.3600 C.3       5 GLY6        0.0000 
     56 CA         11.1100   -0.5000   31.5800 C.3       5 GLY6        0.0000 
     57 CA         13.1500    0.2300   30.1500 C.3       5 GLY6        0.0000 
     58 CA         12.2200    1.1600   30.8600 C.3       5 GLY6        0.0000 
     59 CA         12.2800    0.2900   32.0800 C.3       5 GLY6        0.0000 
     60 DU          7.7700   -0.2600   30.0700 H         6 CUB7        0.0000 
     61 DU          8.7600   -2.0700   30.5700 H         6 CUB7        0.0000 
     62 DU          8.8200   -2.9400   31.7800 H         6 CUB7        0.0000 
     63 DU          7.8900   -2.0100   32.5000 H         6 CUB7        0.0000 
     64 DU         11.2900    2.1000   31.5800 H         6 CUB7        0.0000 
     65 DU         12.5200    2.0100   33.3000 H         6 CUB7        0.0000 
@<TRIPOS>BOND
@<TRIPOS>SUBSTRUCTURE
     1 ALA2        1 GROUP   
     2 ASP3        8 GROUP   
     3 LYS4       21 GROUP   
     4 PHE5       34 GROUP   
     5 GLY6       36 GROUP   
     6 CUB7       60 GROUP   
@<TRIPOS>SET

