#    Name: 6h2j_2_ATP
#    Modification time : Fri May 22 19:26:46 2020

@<TRIPOS>MOLECULE
6h2j_2_ATP
   31    33     1     0     1
SMALL
NO_CHARGES


@<TRIPOS>ATOM
      1 PG          1.1900    0.9840   28.1280 P.3       1 ATP1101     0.0000 
      2 O1G         1.7260    2.0930   27.2400 O.co2     1 ATP1101     0.0000 
      3 O2G         0.6900    1.4850   29.4770 O.co2     1 ATP1101     0.0000 
      4 O3G         0.2100    0.0360   27.4520 O.co2     1 ATP1101     0.0000 
      5 PB          3.6090   -0.4630   27.4460 P.3       1 ATP1101     0.0000 
      6 O1B         4.1200    0.6640   26.5740 O.co2     1 ATP1101     0.0000 
      7 O2B         3.1620   -1.7370   26.8010 O.co2     1 ATP1101     0.0000 
      8 O3B         2.4850    0.0490   28.4960 O.3       1 ATP1101     0.0000 
      9 PA          6.1270   -0.1070   28.7540 P.3       1 ATP1101     0.0000 
     10 O1A         7.1190   -0.0540   27.6240 O.co2     1 ATP1101     0.0000 
     11 O2A         5.6180    1.1640   29.3900 O.co2     1 ATP1101     0.0000 
     12 O3A         4.8200   -0.9660   28.3700 O.3       1 ATP1101     0.0000 
     13 O5'         6.7790   -1.0480   29.9010 O.3       1 ATP1101     0.0000 
     14 C5'         6.1350   -1.0930   31.1820 C.3       1 ATP1101     0.0000 
     15 C4'         7.1280   -1.3660   32.2950 C.3       1 ATP1101     0.0000 
     16 O4'         7.6540   -2.6790   32.1040 O.3       1 ATP1101     0.0000 
     17 C3'         8.2990   -0.4040   32.2180 C.3       1 ATP1101     0.0000 
     18 O3'         8.7350    0.0060   33.5340 O.3       1 ATP1101     0.0000 
     19 C2'         9.3860   -1.2290   31.5680 C.3       1 ATP1101     0.0000 
     20 O2'        10.6660   -0.7070   31.9140 O.3       1 ATP1101     0.0000 
     21 C1'         9.0880   -2.6350   32.0800 C.3       1 ATP1101     0.0000 
     22 N9          9.5730   -3.6860   31.1550 N.pl3     1 ATP1101     0.0000 
     23 C8          8.9820   -4.0170   29.9890 C.2       1 ATP1101     0.0000 
     24 N7          9.6720   -4.9970   29.3680 N.2       1 ATP1101     0.0000 
     25 C5         10.7220   -5.3080   30.1410 C.ar      1 ATP1101     0.0000 
     26 C6         11.8340   -6.2740   30.0600 C.ar      1 ATP1101     0.0000 
     27 N6         11.9710   -7.1180   29.0060 N.pl3     1 ATP1101     0.0000 
     28 N1         12.7040   -6.2870   31.0780 N.ar      1 ATP1101     0.0000 
     29 C2         12.5710   -5.4570   32.1230 C.ar      1 ATP1101     0.0000 
     30 N3         11.5880   -4.5620   32.2710 N.ar      1 ATP1101     0.0000 
     31 C4         10.6470   -4.4470   31.3200 C.ar      1 ATP1101     0.0000 
@<TRIPOS>BOND
     1    1    2 ar   
     2    1    3 ar   
     3    1    4 ar   
     4    1    8 1    
     5    5    6 ar   
     6    5    7 ar   
     7    5    8 1    
     8    5   12 1    
     9    9   10 ar   
    10    9   11 ar   
    11    9   12 1    
    12    9   13 1    
    13   13   14 1    
    14   14   15 1    
    15   15   16 1    
    16   15   17 1    
    17   16   21 1    
    18   17   18 1    
    19   17   19 1    
    20   19   20 1    
    21   19   21 1    
    22   21   22 1    
    23   22   23 1    
    24   22   31 1    
    25   23   24 2    
    26   24   25 1    
    27   25   26 ar   
    28   25   31 ar   
    29   26   27 1    
    30   26   28 ar   
    31   28   29 ar   
    32   29   30 ar   
    33   30   31 ar   
@<TRIPOS>SUBSTRUCTURE
     1 ATP1101     1 GROUP   
@<TRIPOS>SET
ATOM$ORANGE STATIC     ATOMS   COLORGROUP SYSTEM 
20 14 14 15 15 17 17 19 19 21 21 23 23 25 25 26 26 29 \
29 31 31 

