#    Name: 6n7t_3_TTP_CAVITY_N1_4
#    Modification time : Fri May 22 19:34:47 2020

@<TRIPOS>MOLECULE
6n7t_3_TTP_CAVITY_N1_4
   98     0     7     0     0
SMALL
NO_CHARGES


@<TRIPOS>ATOM
      1 OG        152.7400  170.9100  153.3600 O.3       1 SER1        0.0000 
      2 OG        154.7800  170.3600  153.4100 O.3       1 SER1        0.0000 
      3 OG        152.9800  171.9100  154.4500 O.3       1 SER1        0.0000 
      4 OG        155.0300  171.3600  154.5000 O.3       1 SER1        0.0000 
      5 OG        156.2700  171.8200  153.8000 O.3       1 SER1        0.0000 
      6 OG        153.2300  172.9200  155.5400 O.3       1 SER1        0.0000 
      7 OG        154.4700  173.3800  154.8300 O.3       1 SER1        0.0000 
      8 OG        155.2700  172.3600  155.5900 O.3       1 SER1        0.0000 
      9 OG        156.5200  172.8200  154.8900 O.3       1 SER1        0.0000 
     10 OG        153.9100  175.4000  155.1700 O.3       1 SER1        0.0000 
     11 OG        154.7100  174.3800  155.9200 O.3       1 SER1        0.0000 
     12 OG        156.7600  173.8200  155.9800 O.3       1 SER1        0.0000 
     13 O         152.1200  164.4100  151.2100 O.2       2 ALA2        0.0000 
     14 O         153.6100  165.8700  151.6000 O.2       2 ALA2        0.0000 
     15 O         154.2900  168.3500  151.2300 O.2       2 ALA2        0.0000 
     16 O         155.1000  167.3400  151.9800 O.2       2 ALA2        0.0000 
     17 O         153.7400  170.3700  151.5600 O.2       2 ALA2        0.0000 
     18 O         154.5400  169.3500  152.3200 O.2       2 ALA2        0.0000 
     19 O         155.3400  168.3400  153.0700 O.2       2 ALA2        0.0000 
     20 N         156.3900  168.3200  154.9200 N.am      2 ALA2        0.0000 
     21 O         156.8300  169.8000  153.4600 O.2       2 ALA2        0.0000 
     22 N         158.9500  173.2200  149.8400 N.am      2 ALA2        0.0000 
     23 N         159.7600  172.2000  150.6000 N.am      2 ALA2        0.0000 
     24 N         160.5600  171.1800  151.3500 N.am      2 ALA2        0.0000 
     25 N         152.5400  170.4400  155.9000 N.am      2 ALA2        0.0000 
     26 N         153.7900  170.9000  155.2000 N.am      2 ALA2        0.0000 
     27 N         154.5900  169.8800  155.9600 N.am      2 ALA2        0.0000 
     28 N         155.3900  168.8600  156.7100 N.am      2 ALA2        0.0000 
     29 N         156.6400  169.3200  156.0100 N.am      2 ALA2        0.0000 
     30 N         157.4400  168.3100  156.7600 N.am      2 ALA2        0.0000 
     31 N         157.0700  170.8000  154.5500 N.am      2 ALA2        0.0000 
     32 N         157.8800  169.7800  155.3100 N.am      2 ALA2        0.0000 
     33 N         162.0500  172.6400  151.7400 N.am      2 ALA2        0.0000 
     34 N         150.7400  172.0000  156.9400 N.am      2 ALA2        0.0000 
     35 N         151.9800  172.4600  156.2400 N.am      2 ALA2        0.0000 
     36 N         154.0300  171.9000  156.2900 N.am      2 ALA2        0.0000 
     37 N         154.8300  170.8800  157.0400 N.am      2 ALA2        0.0000 
     38 O         152.2300  173.4600  157.3300 O.2       2 ALA2        0.0000 
     39 N         156.3200  172.3400  157.4300 N.am      2 ALA2        0.0000 
     40 N         157.5600  172.8000  156.7300 N.am      2 ALA2        0.0000 
     41 N         160.8500  172.7100  156.0800 N.am      2 ALA2        0.0000 
     42 O         151.6700  175.4800  157.6600 O.2       2 ALA2        0.0000 
     43 O         152.9100  175.9400  156.9600 O.2       2 ALA2        0.0000 
     44 OD1       152.3700  165.4100  152.3000 O.co2     3 ASP3        0.0000 
     45 OD1       152.8100  166.8900  150.8400 O.co2     3 ASP3        0.0000 
     46 OD1       152.6100  166.4100  153.3900 O.co2     3 ASP3        0.0000 
     47 OD1       153.0500  167.8900  151.9300 O.co2     3 ASP3        0.0000 
     48 OD1       152.0500  168.4300  153.7200 O.co2     3 ASP3        0.0000 
     49 OD1       153.6600  166.4000  155.2300 O.co2     3 ASP3        0.0000 
     50 OD1       152.4900  169.9100  152.2700 O.co2     3 ASP3        0.0000 
     51 OD1       153.3000  168.8900  153.0200 O.co2     3 ASP3        0.0000 
     52 OD1       151.4900  170.4500  154.0600 O.co2     3 ASP3        0.0000 
     53 OD1       151.7400  171.4500  155.1500 O.co2     3 ASP3        0.0000 
     54 OD1       158.3200  171.2600  153.8500 O.co2     3 ASP3        0.0000 
     55 OD1       159.5600  171.7200  153.1500 O.co2     3 ASP3        0.0000 
     56 OD1       160.8000  172.1800  152.4400 O.co2     3 ASP3        0.0000 
     57 OD1       151.1800  173.4700  155.4800 O.co2     3 ASP3        0.0000 
     58 OD1       159.3700  171.2500  155.6900 O.co2     3 ASP3        0.0000 
     59 OD1       152.6700  174.9300  155.8700 O.co2     3 ASP3        0.0000 
     60 OD1       155.5200  173.3600  156.6800 O.co2     3 ASP3        0.0000 
     61 OD1       159.6100  172.2500  156.7800 O.co2     3 ASP3        0.0000 
     62 OD1       153.7200  174.9200  157.7100 O.co2     3 ASP3        0.0000 
     63 NZ        150.5000  170.9900  155.8500 N.4       4 LYS4        0.0000 
     64 NZ        151.4200  174.4700  156.5700 N.4       4 LYS4        0.0000 
     65 NZ        151.8600  175.9500  155.1200 N.4       4 LYS4        0.0000 
     66 CZ        157.7600  173.2800  154.1800 C.ar      5 PHE5        0.0000 
     67 CZ        159.0000  173.7400  153.4800 C.ar      5 PHE5        0.0000 
     68 CZ        159.8000  172.7200  154.2400 C.ar      5 PHE5        0.0000 
     69 CZ        158.8100  173.2600  156.0300 C.ar      5 PHE5        0.0000 
     70 CZ        160.0500  173.7300  155.3300 C.ar      5 PHE5        0.0000 
     71 CA        152.9300  163.3900  151.9600 C.3       6 GLY6        0.0000 
     72 CA        153.3700  164.8700  150.5100 C.3       6 GLY6        0.0000 
     73 CA        153.8600  166.8800  152.6900 C.3       6 GLY6        0.0000 
     74 CA        152.8600  167.4200  154.4800 C.3       6 GLY6        0.0000 
     75 CA        154.1000  167.8800  153.7800 C.3       6 GLY6        0.0000 
     76 CA        152.3000  169.4400  154.8100 C.3       6 GLY6        0.0000 
     77 CA        153.1000  168.4200  155.5700 C.3       6 GLY6        0.0000 
     78 CA        154.3400  168.8800  154.8700 C.3       6 GLY6        0.0000 
     79 CA        155.1500  167.8600  155.6200 C.3       6 GLY6        0.0000 
     80 CA        155.9500  166.8400  156.3800 C.3       6 GLY6        0.0000 
     81 CA        155.5900  169.3400  154.1600 C.3       6 GLY6        0.0000 
     82 CA        161.0000  172.6600  149.9000 C.3       6 GLY6        0.0000 
     83 CA        157.5100  172.2800  153.0900 C.3       6 GLY6        0.0000 
     84 CA        157.9500  173.7600  151.6400 C.3       6 GLY6        0.0000 
     85 CA        158.7600  172.7400  152.3900 C.3       6 GLY6        0.0000 
     86 CA        160.0000  173.2000  151.6900 C.3       6 GLY6        0.0000 
     87 CA        161.2400  173.6600  150.9900 C.3       6 GLY6        0.0000 
     88 CA        156.8800  170.3200  157.1000 C.3       6 GLY6        0.0000 
     89 CA        158.1200  170.7900  156.3900 C.3       6 GLY6        0.0000 
     90 CA        161.0500  173.1800  153.5300 C.3       6 GLY6        0.0000 
     91 CA        158.3700  171.7900  157.4800 C.3       6 GLY6        0.0000 
     92 CA        159.8500  173.2500  157.8700 C.3       6 GLY6        0.0000 
     93 DU        153.5400  169.9000  154.1100 H         7 CUB7        0.0000 
     94 DU        155.8300  170.3400  155.2500 H         7 CUB7        0.0000 
     95 DU        156.0800  171.3400  156.3400 H         7 CUB7        0.0000 
     96 DU        157.3200  171.8000  155.6400 H         7 CUB7        0.0000 
     97 DU        158.5600  172.2600  154.9400 H         7 CUB7        0.0000 
     98 DU        153.4700  173.9200  156.6200 H         7 CUB7        0.0000 
@<TRIPOS>BOND
@<TRIPOS>SUBSTRUCTURE
     1 SER1        1 GROUP   
     2 ALA2       13 GROUP   
     3 ASP3       44 GROUP   
     4 LYS4       63 GROUP   
     5 PHE5       66 GROUP   
     6 GLY6       71 GROUP   
     7 CUB7       93 GROUP   
@<TRIPOS>SET

