#    Name: 6n7t_4_TTP_CAVITY_N1_ALL
#    Modification time : Fri May 22 19:34:54 2020

@<TRIPOS>MOLECULE
6n7t_4_TTP_CAVITY_N1_ALL
  100     0     6     0     0
SMALL
NO_CHARGES


@<TRIPOS>ATOM
      1 OG        154.5100  162.6600  125.4400 O.3       1 SER1        0.0000 
      2 OG        155.0200  168.1100  120.3200 O.3       1 SER1        0.0000 
      3 OG        155.8200  167.0900  121.0700 O.3       1 SER1        0.0000 
      4 OG        155.7000  170.5900  119.9500 O.3       1 SER1        0.0000 
      5 OG        156.5100  169.5700  120.7000 O.3       1 SER1        0.0000 
      6 OG        157.3100  168.5500  121.4600 O.3       1 SER1        0.0000 
      7 OG        158.1100  167.5400  122.2100 O.3       1 SER1        0.0000 
      8 O         152.9000  164.6900  123.9300 O.2       2 ALA2        0.0000 
      9 O         155.7500  163.1200  124.7400 O.2       2 ALA2        0.0000 
     10 O         156.1900  164.6000  123.2800 O.2       2 ALA2        0.0000 
     11 O         157.4300  165.0600  122.5800 O.2       2 ALA2        0.0000 
     12 O         155.1900  165.1400  125.0700 O.2       2 ALA2        0.0000 
     13 O         156.4300  165.6000  124.3700 O.2       2 ALA2        0.0000 
     14 N         154.4600  170.1300  120.6500 N.am      2 ALA2        0.0000 
     15 N         155.2600  169.1100  121.4100 N.am      2 ALA2        0.0000 
     16 N         156.0700  168.0900  122.1600 N.am      2 ALA2        0.0000 
     17 N         156.8700  167.0700  122.9100 N.am      2 ALA2        0.0000 
     18 O         158.9200  166.5200  122.9700 O.2       2 ALA2        0.0000 
     19 N         154.7100  171.1300  121.7400 N.am      2 ALA2        0.0000 
     20 N         155.9500  171.5900  121.0400 N.am      2 ALA2        0.0000 
     21 O         152.7100  172.2100  125.3200 O.2       2 ALA2        0.0000 
     22 OD1       153.4600  162.6700  123.6000 O.co2     3 ASP3        0.0000 
     23 OD1       154.7000  163.1300  122.9000 O.co2     3 ASP3        0.0000 
     24 OD1       152.7300  167.6600  119.1700 O.co2     3 ASP3        0.0000 
     25 OD1       155.1400  164.6100  121.4400 O.co2     3 ASP3        0.0000 
     26 OD1       155.9400  163.5900  122.1900 O.co2     3 ASP3        0.0000 
     27 OD1       153.9700  168.1200  118.4700 O.co2     3 ASP3        0.0000 
     28 OD1       153.7000  163.6700  124.6900 O.co2     3 ASP3        0.0000 
     29 OD1       152.5300  167.1900  121.7200 O.co2     3 ASP3        0.0000 
     30 OD1       153.3400  166.1700  122.4800 O.co2     3 ASP3        0.0000 
     31 OD1       154.1400  165.1500  123.2300 O.co2     3 ASP3        0.0000 
     32 OD1       154.9400  164.1400  123.9800 O.co2     3 ASP3        0.0000 
     33 OD1       153.7800  167.6500  121.0200 O.co2     3 ASP3        0.0000 
     34 OD1       154.5800  166.6300  121.7700 O.co2     3 ASP3        0.0000 
     35 OD1       155.3800  165.6100  122.5300 O.co2     3 ASP3        0.0000 
     36 OD1       153.4100  170.1400  118.8100 O.co2     3 ASP3        0.0000 
     37 OD1       154.2200  169.1300  119.5600 O.co2     3 ASP3        0.0000 
     38 OD1       155.4600  169.5900  118.8600 O.co2     3 ASP3        0.0000 
     39 OD1       153.9500  164.6800  125.7800 O.co2     3 ASP3        0.0000 
     40 OD1       154.3900  166.1500  124.3200 O.co2     3 ASP3        0.0000 
     41 OD1       151.6100  171.7000  119.8400 O.co2     3 ASP3        0.0000 
     42 OD1       152.8500  172.1600  119.1400 O.co2     3 ASP3        0.0000 
     43 OD1       153.6600  171.1400  119.9000 O.co2     3 ASP3        0.0000 
     44 OD1       148.9300  170.3000  123.7900 O.co2     3 ASP3        0.0000 
     45 OD1       150.6100  172.2400  121.6400 O.co2     3 ASP3        0.0000 
     46 OD1       152.6600  171.6900  121.6900 O.co2     3 ASP3        0.0000 
     47 OD1       153.9000  172.1500  120.9900 O.co2     3 ASP3        0.0000 
     48 OD1       148.3700  172.3200  124.1300 O.co2     3 ASP3        0.0000 
     49 OD1       149.6100  172.7800  123.4300 O.co2     3 ASP3        0.0000 
     50 OD1       150.8600  173.2400  122.7200 O.co2     3 ASP3        0.0000 
     51 OD1       148.6200  173.3200  125.2200 O.co2     3 ASP3        0.0000 
     52 OD1       149.0600  174.8000  123.7600 O.co2     3 ASP3        0.0000 
     53 OD1       149.8600  173.7800  124.5200 O.co2     3 ASP3        0.0000 
     54 NZ        151.4900  167.2000  119.8800 N.4       4 LYS4        0.0000 
     55 NZ        150.4900  167.7400  121.6700 N.4       4 LYS4        0.0000 
     56 NZ        151.7300  168.2000  120.9700 N.4       4 LYS4        0.0000 
     57 NZ        152.1700  169.6800  119.5100 N.4       4 LYS4        0.0000 
     58 NZ        152.9700  168.6600  120.2600 N.4       4 LYS4        0.0000 
     59 NZ        152.6100  171.1600  118.0500 N.4       4 LYS4        0.0000 
     60 NZ        149.9300  169.7600  122.0000 N.4       4 LYS4        0.0000 
     61 NZ        151.1700  170.2200  121.3000 N.4       4 LYS4        0.0000 
     62 NZ        152.4100  170.6800  120.6000 N.4       4 LYS4        0.0000 
     63 NZ        154.9000  171.6000  119.1900 N.4       4 LYS4        0.0000 
     64 NZ        148.1300  171.3200  123.0400 N.4       4 LYS4        0.0000 
     65 NZ        149.3700  171.7800  122.3400 N.4       4 LYS4        0.0000 
     66 NZ        149.1800  171.3000  124.8800 N.4       4 LYS4        0.0000 
     67 NZ        148.8100  173.8000  122.6700 N.4       4 LYS4        0.0000 
     68 NZ        147.8100  174.3400  124.4600 N.4       4 LYS4        0.0000 
     69 NZ        149.4200  172.3100  125.9700 N.4       4 LYS4        0.0000 
     70 NZ        150.6600  172.7700  125.2700 N.4       4 LYS4        0.0000 
     71 NZ        149.3000  175.8000  124.8500 N.4       4 LYS4        0.0000 
     72 NZ        150.1000  174.7900  125.6100 N.4       4 LYS4        0.0000 
     73 CZ        151.6600  172.2300  123.4800 C.ar      5 PHE5        0.0000 
     74 CZ        152.9000  172.6900  122.7800 C.ar      5 PHE5        0.0000 
     75 CZ        151.1000  174.2400  123.8100 C.ar      5 PHE5        0.0000 
     76 CZ        151.9100  173.2300  124.5700 C.ar      5 PHE5        0.0000 
     77 CA        153.5300  166.6500  119.9300 C.3       6 GLY6        0.0000 
     78 CA        154.7800  167.1100  119.2300 C.3       6 GLY6        0.0000 
     79 CA        155.5800  166.0900  119.9800 C.3       6 GLY6        0.0000 
     80 CA        156.3800  165.0700  120.7400 C.3       6 GLY6        0.0000 
     81 CA        156.6300  166.0700  121.8300 C.3       6 GLY6        0.0000 
     82 CA        157.8700  166.5300  121.1200 C.3       6 GLY6        0.0000 
     83 CA        150.7300  168.7500  122.7600 C.3       6 GLY6        0.0000 
     84 CA        154.7500  163.6600  126.5300 C.3       6 GLY6        0.0000 
     85 CA        151.9800  169.2100  122.0600 C.3       6 GLY6        0.0000 
     86 CA        153.2200  169.6700  121.3500 C.3       6 GLY6        0.0000 
     87 CA        154.0200  168.6500  122.1100 C.3       6 GLY6        0.0000 
     88 CA        154.8300  167.6300  122.8600 C.3       6 GLY6        0.0000 
     89 CA        155.6300  166.6100  123.6200 C.3       6 GLY6        0.0000 
     90 CA        157.6700  166.0600  123.6700 C.3       6 GLY6        0.0000 
     91 CA        150.1700  170.7600  123.0900 C.3       6 GLY6        0.0000 
     92 CA        151.4200  171.2200  122.3900 C.3       6 GLY6        0.0000 
     93 CA        152.2200  170.2100  123.1400 C.3       6 GLY6        0.0000 
     94 CA        153.4600  170.6700  122.4400 C.3       6 GLY6        0.0000 
     95 CA        150.4200  171.7700  124.1800 C.3       6 GLY6        0.0000 
     96 CA        152.4600  171.2100  124.2300 C.3       6 GLY6        0.0000 
     97 CA        153.7100  171.6700  123.5300 C.3       6 GLY6        0.0000 
     98 CA        151.4700  171.7500  126.0300 C.3       6 GLY6        0.0000 
     99 CA        148.0600  175.3400  125.5500 C.3       6 GLY6        0.0000 
    100 CA        148.8600  174.3300  126.3100 C.3       6 GLY6        0.0000 
@<TRIPOS>BOND
@<TRIPOS>SUBSTRUCTURE
     1 SER1        1 GROUP   
     2 ALA2        8 GROUP   
     3 ASP3       22 GROUP   
     4 LYS4       54 GROUP   
     5 PHE5       73 GROUP   
     6 GLY6       77 GROUP   
@<TRIPOS>SET

