#    Name: 6n7t_1_TTP_CAVITY_N1_4
#    Modification time : Fri May 22 19:34:34 2020

@<TRIPOS>MOLECULE
6n7t_1_TTP_CAVITY_N1_4
  104     0     6     0     0
SMALL
NO_CHARGES


@<TRIPOS>ATOM
      1 OG        167.3200  112.5800  166.5300 O.3       1 SER1        0.0000 
      2 OG        168.1200  111.5600  167.2900 O.3       1 SER1        0.0000 
      3 OG        166.1500  116.0900  163.5700 O.3       1 SER1        0.0000 
      4 OG        166.9500  115.0700  164.3200 O.3       1 SER1        0.0000 
      5 OG        168.5600  113.0400  165.8300 O.3       1 SER1        0.0000 
      6 OG        169.3600  112.0200  166.5900 O.3       1 SER1        0.0000 
      7 OG        170.1700  111.0100  167.3400 O.3       1 SER1        0.0000 
      8 OG        168.1900  115.5400  163.6200 O.3       1 SER1        0.0000 
      9 OG        169.0000  114.5200  164.3700 O.3       1 SER1        0.0000 
     10 OG        170.6100  112.4800  165.8800 O.3       1 SER1        0.0000 
     11 OG        171.4100  111.4700  166.6400 O.3       1 SER1        0.0000 
     12 OG        172.6500  111.9300  165.9400 O.3       1 SER1        0.0000 
     13 OG        169.6100  113.0200  167.6800 O.3       1 SER1        0.0000 
     14 OG        170.4100  112.0100  168.4300 O.3       1 SER1        0.0000 
     15 OG        170.0500  114.5000  166.2200 O.3       1 SER1        0.0000 
     16 OG        170.8500  113.4800  166.9700 O.3       1 SER1        0.0000 
     17 OG        171.2900  114.9600  165.5200 O.3       1 SER1        0.0000 
     18 OG        172.0900  113.9500  166.2700 O.3       1 SER1        0.0000 
     19 OG        173.3400  114.4100  165.5700 O.3       1 SER1        0.0000 
     20 OG        174.1400  113.3900  166.3200 O.3       1 SER1        0.0000 
     21 OG        170.2900  115.5000  167.3100 O.3       1 SER1        0.0000 
     22 N         168.8700  110.0200  164.4100 N.am      2 ALA2        0.0000 
     23 N         167.5100  113.0600  163.9900 N.am      2 ALA2        0.0000 
     24 N         168.3100  112.0400  164.7400 N.am      2 ALA2        0.0000 
     25 N         169.1200  111.0200  165.5000 N.am      2 ALA2        0.0000 
     26 O         169.9200  110.0000  166.2500 O.2       2 ALA2        0.0000 
     27 N         167.1500  115.5500  161.7800 N.am      2 ALA2        0.0000 
     28 N         168.7500  113.5200  163.2900 N.am      2 ALA2        0.0000 
     29 N         169.5600  112.5000  164.0400 N.am      2 ALA2        0.0000 
     30 N         170.3600  111.4800  164.7900 N.am      2 ALA2        0.0000 
     31 N         170.0000  113.9800  162.5800 N.am      2 ALA2        0.0000 
     32 N         170.8000  112.9600  163.3400 N.am      2 ALA2        0.0000 
     33 N         171.2400  114.4400  161.8800 N.am      2 ALA2        0.0000 
     34 N         172.0400  113.4200  162.6400 N.am      2 ALA2        0.0000 
     35 N         172.4800  114.9000  161.1800 N.am      2 ALA2        0.0000 
     36 N         171.8500  112.9400  165.1800 N.am      2 ALA2        0.0000 
     37 N         170.6800  116.4600  162.2200 N.am      2 ALA2        0.0000 
     38 N         171.4800  115.4400  162.9700 N.am      2 ALA2        0.0000 
     39 N         173.0900  113.4000  164.4800 N.am      2 ALA2        0.0000 
     40 N         172.7300  115.9000  162.2700 N.am      2 ALA2        0.0000 
     41 O         168.8800  118.0100  163.2500 O.2       2 ALA2        0.0000 
     42 O         169.6800  117.0000  164.0100 O.2       2 ALA2        0.0000 
     43 N         171.7300  116.4400  164.0600 N.am      2 ALA2        0.0000 
     44 N         177.8700  114.7700  164.2200 N.am      2 ALA2        0.0000 
     45 N         179.1100  115.2300  163.5100 N.am      2 ALA2        0.0000 
     46 N         178.1100  115.7700  165.3100 N.am      2 ALA2        0.0000 
     47 N         178.9200  114.7500  166.0600 N.am      2 ALA2        0.0000 
     48 N         169.9800  118.5200  168.7300 N.am      2 ALA2        0.0000 
     49 N         171.2200  118.9800  168.0300 N.am      2 ALA2        0.0000 
     50 N         170.2200  119.5300  169.8200 N.am      2 ALA2        0.0000 
     51 N         171.4600  119.9900  169.1200 N.am      2 ALA2        0.0000 
     52 OD1       166.2700  112.6000  164.6900 O.co2     3 ASP3        0.0000 
     53 OD1       167.0700  111.5800  165.4400 O.co2     3 ASP3        0.0000 
     54 OD1       167.8700  110.5600  166.2000 O.co2     3 ASP3        0.0000 
     55 OD1       171.1600  110.4600  165.5500 O.co2     3 ASP3        0.0000 
     56 OD1       168.3900  116.0100  161.0700 O.co2     3 ASP3        0.0000 
     57 OD1       167.3900  116.5500  162.8700 O.co2     3 ASP3        0.0000 
     58 OD1       167.8300  118.0300  161.4100 O.co2     3 ASP3        0.0000 
     59 OD1       172.5300  115.4200  164.8100 O.co2     3 ASP3        0.0000 
     60 OD1       173.7700  115.8800  164.1100 O.co2     3 ASP3        0.0000 
     61 OD1       175.3800  113.8500  165.6200 O.co2     3 ASP3        0.0000 
     62 OD1       175.8200  115.3300  164.1600 O.co2     3 ASP3        0.0000 
     63 OD1       176.6200  114.3100  164.9200 O.co2     3 ASP3        0.0000 
     64 OD1       177.0600  115.7900  163.4600 O.co2     3 ASP3        0.0000 
     65 OD1       178.6700  113.7500  164.9700 O.co2     3 ASP3        0.0000 
     66 OD1       171.9700  117.4400  165.1500 O.co2     3 ASP3        0.0000 
     67 OD1       172.7800  116.4200  165.9000 O.co2     3 ASP3        0.0000 
     68 OD1       174.8200  115.8700  165.9600 O.co2     3 ASP3        0.0000 
     69 OD1       176.8700  115.3100  166.0100 O.co2     3 ASP3        0.0000 
     70 OD1       177.6700  114.2900  166.7600 O.co2     3 ASP3        0.0000 
     71 OD1       173.0200  117.4300  166.9900 O.co2     3 ASP3        0.0000 
     72 OD1       173.2700  118.4300  168.0800 O.co2     3 ASP3        0.0000 
     73 CZ        171.0900  114.4900  168.0600 C.ar      4 PHE5        0.0000 
     74 CZ        172.3400  114.9500  167.3600 C.ar      4 PHE5        0.0000 
     75 CZ        173.5800  115.4100  166.6600 C.ar      4 PHE5        0.0000 
     76 CZ        175.6300  114.8500  166.7100 C.ar      4 PHE5        0.0000 
     77 CZ        171.3400  115.4900  169.1500 C.ar      4 PHE5        0.0000 
     78 CZ        172.5800  115.9500  168.4500 C.ar      4 PHE5        0.0000 
     79 CZ        173.8200  116.4100  167.7500 C.ar      4 PHE5        0.0000 
     80 CZ        171.5800  116.4900  170.2400 C.ar      4 PHE5        0.0000 
     81 CZ        174.0700  117.4100  168.8400 C.ar      4 PHE5        0.0000 
     82 CA        167.9500  114.5300  162.5300 C.3       5 GLY6        0.0000 
     83 CA        169.1900  114.9900  161.8300 C.3       5 GLY6        0.0000 
     84 CA        168.6300  117.0100  162.1600 C.3       5 GLY6        0.0000 
     85 CA        172.2900  114.4200  163.7200 C.3       5 GLY6        0.0000 
     86 CA        173.5300  114.8800  163.0200 C.3       5 GLY6        0.0000 
     87 CA        174.7700  115.3400  162.3200 C.3       5 GLY6        0.0000 
     88 CA        167.6400  117.5500  163.9500 C.3       5 GLY6        0.0000 
     89 CA        168.4400  116.5400  164.7100 C.3       5 GLY6        0.0000 
     90 CA        170.4900  115.9800  164.7600 C.3       5 GLY6        0.0000 
     91 CA        174.5800  114.8700  164.8700 C.3       5 GLY6        0.0000 
     92 CA        171.5300  115.9600  166.6100 C.3       5 GLY6        0.0000 
     93 CA        179.7200  113.7400  166.8200 C.3       5 GLY6        0.0000 
     94 CA        179.3500  116.2300  164.6000 C.3       5 GLY6        0.0000 
     95 CA        170.5400  116.5100  168.4000 C.3       5 GLY6        0.0000 
     96 CA        171.7800  116.9700  167.7000 C.3       5 GLY6        0.0000 
     97 CA        169.5400  117.0500  170.1900 C.3       5 GLY6        0.0000 
     98 CA        170.7800  117.5100  169.4900 C.3       5 GLY6        0.0000 
     99 CA        172.0200  117.9700  168.7900 C.3       5 GLY6        0.0000 
    100 CA        172.2700  118.9700  169.8700 C.3       5 GLY6        0.0000 
    101 CA        173.0700  117.9500  170.6300 C.3       5 GLY6        0.0000 
    102 DU        169.4400  116.0000  162.9200 H         6 CUB7        0.0000 
    103 DU        170.2400  114.9800  163.6700 H         6 CUB7        0.0000 
    104 DU        171.0400  113.9600  164.4300 H         6 CUB7        0.0000 
@<TRIPOS>BOND
@<TRIPOS>SUBSTRUCTURE
     1 SER1        1 GROUP   
     2 ALA2       22 GROUP   
     3 ASP3       52 GROUP   
     4 PHE5       73 GROUP   
     5 GLY6       82 GROUP   
     6 CUB7      102 GROUP   
@<TRIPOS>SET

