#    Name: 6n7t_1_TTP
#    Modification time : Fri May 22 19:34:33 2020

@<TRIPOS>MOLECULE
6n7t_1_TTP
   29    30     1     0     0
SMALL
NO_CHARGES


@<TRIPOS>ATOM
      1 PA        168.2510  116.0550  163.0270 P.3       1 TTP700      0.0000 
      2 O1A       168.0790  116.3620  164.4950 O.co2     1 TTP700      0.0000 
      3 O2A       167.0200  115.3470  162.5130 O.co2     1 TTP700      0.0000 
      4 O3A       168.4670  117.4600  162.1930 O.3       1 TTP700      0.0000 
      5 PB        167.5870  118.8500  162.1030 P.3       1 TTP700      0.0000 
      6 O1B       166.2080  118.6100  162.6690 O.co2     1 TTP700      0.0000 
      7 O2B       168.2760  119.9340  162.8980 O.co2     1 TTP700      0.0000 
      8 O3B       167.4610  119.3200  160.5290 O.3       1 TTP700      0.0000 
      9 PG        166.7300  118.6730  159.2610 P.3       1 TTP700      0.0000 
     10 O1G       165.4120  118.0740  159.6910 O.co2     1 TTP700      0.0000 
     11 O2G       167.6050  117.5920  158.6730 O.co2     1 TTP700      0.0000 
     12 O3G       166.4820  119.7400  158.2230 O.co2     1 TTP700      0.0000 
     13 O5'       169.5680  115.0860  162.8190 O.3       1 TTP700      0.0000 
     14 C5'       170.7940  115.5040  163.3460 C.3       1 TTP700      0.0000 
     15 C4'       171.6720  114.2680  163.6440 C.3       1 TTP700      0.0000 
     16 O4'       173.0620  114.6580  163.7760 O.3       1 TTP700      0.0000 
     17 C3'       171.2950  113.6690  164.9980 C.3       1 TTP700      0.0000 
     18 O3'       170.3050  112.6130  164.8180 O.3       1 TTP700      0.0000 
     19 C2'       172.6080  113.0770  165.4770 C.3       1 TTP700      0.0000 
     20 C1'       173.6390  114.0520  164.9270 C.3       1 TTP700      0.0000 
     21 N1        173.9100  115.1140  165.9110 N.am      1 TTP700      0.0000 
     22 C2        175.2980  115.5150  166.2650 C.2       1 TTP700      0.0000 
     23 O2        176.1850  114.9470  165.7230 O.2       1 TTP700      0.0000 
     24 N3        175.6390  116.5100  167.1870 N.am      1 TTP700      0.0000 
     25 C4        174.5750  117.1100  167.7620 C.2       1 TTP700      0.0000 
     26 O4        174.8130  118.0020  168.5890 O.2       1 TTP700      0.0000 
     27 C5        173.1400  116.8020  167.4950 C.2       1 TTP700      0.0000 
     28 C5M       172.0220  117.5550  168.2130 C.3       1 TTP700      0.0000 
     29 C6        172.8570  115.8100  166.5750 C.2       1 TTP700      0.0000 
@<TRIPOS>BOND
     1    1    2 ar   
     2    1    3 ar   
     3    1    4 1    
     4    1   13 1    
     5    4    5 1    
     6    5    6 ar   
     7    5    7 ar   
     8    5    8 1    
     9    8    9 1    
    10    9   10 ar   
    11    9   11 ar   
    12    9   12 ar   
    13   13   14 1    
    14   14   15 1    
    15   15   16 1    
    16   15   17 1    
    17   16   20 1    
    18   17   18 1    
    19   17   19 1    
    20   19   20 1    
    21   20   21 1    
    22   21   22 1    
    23   21   29 1    
    24   22   23 2    
    25   22   24 1    
    26   24   25 1    
    27   25   26 2    
    28   25   27 1    
    29   27   28 1    
    30   27   29 2    
@<TRIPOS>SUBSTRUCTURE
     1 TTP700      1 GROUP   
@<TRIPOS>SET

