#    Name: 6n7t_5_TTP_CAVITY_N1_4
#    Modification time : Fri May 22 19:35:01 2020

@<TRIPOS>MOLECULE
6n7t_5_TTP_CAVITY_N1_4
  115     0     7     0     0
SMALL
NO_CHARGES


@<TRIPOS>ATOM
      1 OG        154.6300  137.0000  105.6300 O.3       1 SER1        0.0000 
      2 OG        158.7200  135.8900  105.7400 O.3       1 SER1        0.0000 
      3 OG        159.1600  137.3600  104.2800 O.3       1 SER1        0.0000 
      4 OG        160.4000  137.8200  103.5800 O.3       1 SER1        0.0000 
      5 OG        161.6500  138.2800  102.8800 O.3       1 SER1        0.0000 
      6 OG        158.9700  136.8900  106.8300 O.3       1 SER1        0.0000 
      7 OG        159.7700  135.8700  107.5800 O.3       1 SER1        0.0000 
      8 OG        160.2100  137.3500  106.1300 O.3       1 SER1        0.0000 
      9 OG        161.4500  137.8100  105.4200 O.3       1 SER1        0.0000 
     10 OG        163.0600  135.7700  106.9300 O.3       1 SER1        0.0000 
     11 OG        162.6900  138.2700  104.7200 O.3       1 SER1        0.0000 
     12 OG        163.5000  137.2500  105.4800 O.3       1 SER1        0.0000 
     13 OG        162.5000  137.7900  107.2700 O.3       1 SER1        0.0000 
     14 OG        154.7300  138.0500  112.9100 O.3       1 SER1        0.0000 
     15 N         158.3600  138.3800  103.5300 N.am      2 ALA2        0.0000 
     16 N         158.8000  139.8600  102.0700 N.am      2 ALA2        0.0000 
     17 N         159.6000  138.8400  102.8200 N.am      2 ALA2        0.0000 
     18 O         160.0400  140.3200  101.3700 O.2       2 ALA2        0.0000 
     19 N         160.8400  139.3000  102.1200 N.am      2 ALA2        0.0000 
     20 O         162.0900  139.7600  101.4200 O.2       2 ALA2        0.0000 
     21 N         158.6000  139.3800  104.6200 N.am      2 ALA2        0.0000 
     22 N         159.4100  138.3600  105.3700 N.am      2 ALA2        0.0000 
     23 N         160.6500  138.8300  104.6700 N.am      2 ALA2        0.0000 
     24 N         161.0900  140.3000  103.2100 N.am      2 ALA2        0.0000 
     25 N         161.8900  139.2900  103.9700 N.am      2 ALA2        0.0000 
     26 N         162.3300  140.7600  102.5100 N.am      2 ALA2        0.0000 
     27 O         158.7700  136.4100  109.3700 O.2       2 ALA2        0.0000 
     28 N         159.6500  139.3700  106.4600 N.am      2 ALA2        0.0000 
     29 N         160.8900  139.8300  105.7600 N.am      2 ALA2        0.0000 
     30 N         164.9100  134.7400  109.5300 N.am      2 ALA2        0.0000 
     31 N         162.1400  140.2900  105.0600 N.am      2 ALA2        0.0000 
     32 N         162.9400  139.2700  105.8100 N.am      2 ALA2        0.0000 
     33 N         164.1800  139.7300  105.1100 N.am      2 ALA2        0.0000 
     34 O         154.9200  138.5300  110.3600 O.2       2 ALA2        0.0000 
     35 O         156.9700  137.9700  110.4100 O.2       2 ALA2        0.0000 
     36 O         157.7700  136.9500  111.1700 O.2       2 ALA2        0.0000 
     37 N         161.5000  138.3300  109.0600 N.am      2 ALA2        0.0000 
     38 N         161.1400  140.8300  106.8500 N.am      2 ALA2        0.0000 
     39 N         161.9400  139.8100  107.6000 N.am      2 ALA2        0.0000 
     40 N         162.7400  138.7900  108.3600 N.am      2 ALA2        0.0000 
     41 N         163.5500  137.7800  109.1100 N.am      2 ALA2        0.0000 
     42 N         164.3500  136.7600  109.8700 N.am      2 ALA2        0.0000 
     43 N         165.1500  135.7400  110.6200 N.am      2 ALA2        0.0000 
     44 N         162.3800  141.2900  106.1400 N.am      2 ALA2        0.0000 
     45 N         166.8400  137.6800  108.4600 N.am      2 ALA2        0.0000 
     46 N         167.6400  136.6600  109.2200 N.am      2 ALA2        0.0000 
     47 N         153.9200  139.0700  112.1500 N.am      2 ALA2        0.0000 
     48 O         155.9700  138.5100  112.2000 O.2       2 ALA2        0.0000 
     49 O         157.2100  138.9700  111.5000 O.2       2 ALA2        0.0000 
     50 N         160.9400  140.3500  109.3900 N.am      2 ALA2        0.0000 
     51 N         162.1900  140.8100  108.6900 N.am      2 ALA2        0.0000 
     52 N         162.9900  139.8000  109.4500 N.am      2 ALA2        0.0000 
     53 N         167.0800  138.6800  109.5500 N.am      2 ALA2        0.0000 
     54 N         161.1900  141.3500  110.4800 N.am      2 ALA2        0.0000 
     55 OD1       160.1600  136.8200  102.4900 O.co2     3 ASP3        0.0000 
     56 OD1       155.8700  137.4600  104.9300 O.co2     3 ASP3        0.0000 
     57 OD1       157.1100  137.9200  104.2300 O.co2     3 ASP3        0.0000 
     58 OD1       157.9200  136.9000  104.9800 O.co2     3 ASP3        0.0000 
     59 OD1       162.8900  138.7400  102.1700 O.co2     3 ASP3        0.0000 
     60 OD1       154.8700  138.0000  106.7200 O.co2     3 ASP3        0.0000 
     61 OD1       163.1300  139.7500  103.2600 O.co2     3 ASP3        0.0000 
     62 OD1       155.9200  137.9800  108.5700 O.co2     3 ASP3        0.0000 
     63 OD1       156.7200  136.9700  109.3200 O.co2     3 ASP3        0.0000 
     64 OD1       157.5300  135.9500  110.0800 O.co2     3 ASP3        0.0000 
     65 OD1       155.7300  137.5100  111.1100 O.co2     3 ASP3        0.0000 
     66 OD1       156.1700  138.9900  109.6600 O.co2     3 ASP3        0.0000 
     67 OD1       164.7900  138.2400  108.4100 O.co2     3 ASP3        0.0000 
     68 OD1       165.5900  137.2200  109.1600 O.co2     3 ASP3        0.0000 
     69 OD1       166.4000  136.2000  109.9200 O.co2     3 ASP3        0.0000 
     70 OD1       166.0300  138.7000  107.7100 O.co2     3 ASP3        0.0000 
     71 OD1       155.1700  139.5300  111.4500 O.co2     3 ASP3        0.0000 
     72 OD1       156.4100  139.9900  110.7500 O.co2     3 ASP3        0.0000 
     73 OD1       166.2800  139.7000  108.8000 O.co2     3 ASP3        0.0000 
     74 NZ        161.4000  137.2800  101.7900 N.4       4 LYS4        0.0000 
     75 CZ        163.7400  138.2500  106.5600 C.ar      5 PHE5        0.0000 
     76 CZ        164.5500  137.2400  107.3200 C.ar      5 PHE5        0.0000 
     77 CZ        165.3500  136.2200  108.0700 C.ar      5 PHE5        0.0000 
     78 CZ        166.1500  135.2000  108.8300 C.ar      5 PHE5        0.0000 
     79 CZ        164.9900  138.7100  105.8600 C.ar      5 PHE5        0.0000 
     80 CZ        165.7900  137.7000  106.6200 C.ar      5 PHE5        0.0000 
     81 CZ        167.4000  135.6600  108.1300 C.ar      5 PHE5        0.0000 
     82 CA        156.6800  136.4400  105.6900 C.3       6 GLY6        0.0000 
     83 CA        156.1200  138.4600  106.0200 C.3       6 GLY6        0.0000 
     84 CA        156.9200  137.4400  106.7700 C.3       6 GLY6        0.0000 
     85 CA        157.7200  136.4300  107.5300 C.3       6 GLY6        0.0000 
     86 CA        156.5600  139.9400  104.5600 C.3       6 GLY6        0.0000 
     87 CA        157.3600  138.9200  105.3200 C.3       6 GLY6        0.0000 
     88 CA        158.1600  137.9000  106.0700 C.3       6 GLY6        0.0000 
     89 CA        157.1600  138.4500  107.8600 C.3       6 GLY6        0.0000 
     90 CA        158.4100  138.9100  107.1600 C.3       6 GLY6        0.0000 
     91 CA        160.0100  136.8700  108.6700 C.3       6 GLY6        0.0000 
     92 CA        161.2600  137.3300  107.9700 C.3       6 GLY6        0.0000 
     93 CA        163.3000  136.7800  108.0200 C.3       6 GLY6        0.0000 
     94 CA        164.1100  135.7600  108.7800 C.3       6 GLY6        0.0000 
     95 CA        166.9600  134.1800  109.5800 C.3       6 GLY6        0.0000 
     96 CA        168.2000  134.6400  108.8800 C.3       6 GLY6        0.0000 
     97 CA        158.2100  138.4300  109.7100 C.3       6 GLY6        0.0000 
     98 CA        159.0200  137.4100  110.4600 C.3       6 GLY6        0.0000 
     99 CA        159.4600  138.8900  109.0100 C.3       6 GLY6        0.0000 
    100 CA        160.2600  137.8700  109.7600 C.3       6 GLY6        0.0000 
    101 CA        159.8900  140.3700  107.5500 C.3       6 GLY6        0.0000 
    102 CA        163.1800  140.2700  106.9000 C.3       6 GLY6        0.0000 
    103 CA        163.9900  139.2500  107.6500 C.3       6 GLY6        0.0000 
    104 CA        167.2000  135.1900  110.6700 C.3       6 GLY6        0.0000 
    105 CA        165.2300  139.7100  106.9500 C.3       6 GLY6        0.0000 
    106 CA        157.6500  140.4500  110.0400 C.3       6 GLY6        0.0000 
    107 CA        158.9000  140.9100  109.3400 C.3       6 GLY6        0.0000 
    108 CA        159.7000  139.8900  110.1000 C.3       6 GLY6        0.0000 
    109 CA        160.1400  141.3700  108.6400 C.3       6 GLY6        0.0000 
    110 CA        164.2300  140.2600  108.7400 C.3       6 GLY6        0.0000 
    111 DU        157.9700  137.4300  108.6200 H         7 CUB7        0.0000 
    112 DU        159.2100  137.8900  107.9200 H         7 CUB7        0.0000 
    113 DU        160.4500  138.3500  107.2100 H         7 CUB7        0.0000 
    114 DU        161.7000  138.8100  106.5100 H         7 CUB7        0.0000 
    115 DU        160.7000  139.3500  108.3000 H         7 CUB7        0.0000 
@<TRIPOS>BOND
@<TRIPOS>SUBSTRUCTURE
     1 SER1        1 GROUP   
     2 ALA2       15 GROUP   
     3 ASP3       55 GROUP   
     4 LYS4       74 GROUP   
     5 PHE5       75 GROUP   
     6 GLY6       82 GROUP   
     7 CUB7      111 GROUP   
@<TRIPOS>SET

