#    Name: 6n7t_5_TTP
#    Modification time : Fri May 22 19:35:00 2020

@<TRIPOS>MOLECULE
6n7t_5_TTP
   29    30     1     0     0
SMALL
NO_CHARGES


@<TRIPOS>ATOM
      1 PA        159.0900  136.9120  107.8930 P.3       1 TTP700      0.0000 
      2 O1A       158.8160  135.4800  107.5110 O.co2     1 TTP700      0.0000 
      3 O2A       158.4850  137.8360  106.8700 O.co2     1 TTP700      0.0000 
      4 O3A       158.4030  137.2060  109.3490 O.3       1 TTP700      0.0000 
      5 PB        156.9300  136.7360  109.8840 P.3       1 TTP700      0.0000 
      6 O1B       157.0930  135.6260  110.8880 O.co2     1 TTP700      0.0000 
      7 O2B       156.1360  136.2400  108.7030 O.co2     1 TTP700      0.0000 
      8 O3B       156.1340  137.9810  110.5890 O.3       1 TTP700      0.0000 
      9 PG        154.6920  137.9960  111.2660 P.3       1 TTP700      0.0000 
     10 O1G       154.8130  137.5720  112.7070 O.co2     1 TTP700      0.0000 
     11 O2G       153.8070  137.0230  110.5230 O.co2     1 TTP700      0.0000 
     12 O3G       154.1060  139.3840  111.1990 O.co2     1 TTP700      0.0000 
     13 O5'       160.7160  137.1470  107.9570 O.3       1 TTP700      0.0000 
     14 C5'       161.2030  138.3460  108.4750 C.3       1 TTP700      0.0000 
     15 C4'       161.7540  139.2520  107.3500 C.3       1 TTP700      0.0000 
     16 O4'       163.1390  139.5660  107.6260 O.3       1 TTP700      0.0000 
     17 C3'       161.7400  138.5570  105.9890 C.3       1 TTP700      0.0000 
     18 O3'       161.5490  139.5430  104.9340 O.3       1 TTP700      0.0000 
     19 C2'       163.1340  137.9690  105.8950 C.3       1 TTP700      0.0000 
     20 C1'       163.9780  138.9800  106.6470 C.3       1 TTP700      0.0000 
     21 N1        165.0620  138.2900  107.3590 N.am      1 TTP700      0.0000 
     22 C2        166.4100  138.9000  107.4940 C.2       1 TTP700      0.0000 
     23 O2        166.5760  139.9630  107.0020 O.2       1 TTP700      0.0000 
     24 N3        167.4930  138.3170  108.1540 N.am      1 TTP700      0.0000 
     25 C4        167.2200  137.1090  108.6870 C.2       1 TTP700      0.0000 
     26 O4        168.1430  136.5430  109.2860 O.2       1 TTP700      0.0000 
     27 C5        165.9140  136.3920  108.6240 C.2       1 TTP700      0.0000 
     28 C5M       165.7310  135.0230  109.2670 C.3       1 TTP700      0.0000 
     29 C6        164.8770  137.0100  107.9600 C.2       1 TTP700      0.0000 
@<TRIPOS>BOND
     1    1    2 ar   
     2    1    3 ar   
     3    1    4 1    
     4    1   13 1    
     5    4    5 1    
     6    5    6 ar   
     7    5    7 ar   
     8    5    8 1    
     9    8    9 1    
    10    9   10 ar   
    11    9   11 ar   
    12    9   12 ar   
    13   13   14 1    
    14   14   15 1    
    15   15   16 1    
    16   15   17 1    
    17   16   20 1    
    18   17   18 1    
    19   17   19 1    
    20   19   20 1    
    21   20   21 1    
    22   21   22 1    
    23   21   29 1    
    24   22   23 2    
    25   22   24 1    
    26   24   25 1    
    27   25   26 2    
    28   25   27 1    
    29   27   28 1    
    30   27   29 2    
@<TRIPOS>SUBSTRUCTURE
     1 TTP700      1 GROUP   
@<TRIPOS>SET

