#    Name: 6n7t_2_TTP_CAVITY_N1_12
#    Modification time : Fri May 22 19:34:40 2020

@<TRIPOS>MOLECULE
6n7t_2_TTP_CAVITY_N1_12
  119     0     7     0     0
SMALL
NO_CHARGES


@<TRIPOS>ATOM
      1 OG        155.1300  145.5000  176.1800 O.3       1 SER1        0.0000 
      2 OG        155.9400  144.4800  176.9300 O.3       1 SER1        0.0000 
      3 OG        157.1800  144.9500  176.2300 O.3       1 SER1        0.0000 
      4 OG        158.4200  145.4100  175.5300 O.3       1 SER1        0.0000 
      5 OG        156.1800  145.4900  178.0200 O.3       1 SER1        0.0000 
      6 OG        156.9900  144.4700  178.7800 O.3       1 SER1        0.0000 
      7 OG        158.2300  144.9300  178.0700 O.3       1 SER1        0.0000 
      8 OG        159.4700  145.3900  177.3700 O.3       1 SER1        0.0000 
      9 OG        159.9100  146.8700  175.9100 O.3       1 SER1        0.0000 
     10 OG        156.4300  146.4900  179.1100 O.3       1 SER1        0.0000 
     11 OG        157.2300  145.4700  179.8700 O.3       1 SER1        0.0000 
     12 OG        158.0300  144.4500  180.6200 O.3       1 SER1        0.0000 
     13 OG        158.4700  145.9300  179.1600 O.3       1 SER1        0.0000 
     14 OG        159.2800  144.9100  179.9200 O.3       1 SER1        0.0000 
     15 OG        159.7200  146.3900  178.4600 O.3       1 SER1        0.0000 
     16 OG        160.5200  145.3700  179.2200 O.3       1 SER1        0.0000 
     17 OG        160.1600  147.8700  177.0000 O.3       1 SER1        0.0000 
     18 OG        156.6700  147.4900  180.2000 O.3       1 SER1        0.0000 
     19 OG        157.4800  146.4700  180.9500 O.3       1 SER1        0.0000 
     20 OG        158.2800  145.4500  181.7100 O.3       1 SER1        0.0000 
     21 OG        156.9200  148.4900  181.2900 O.3       1 SER1        0.0000 
     22 N         159.1800  143.8600  172.6500 N.am      2 ALA2        0.0000 
     23 N         159.9800  142.8500  173.4000 N.am      2 ALA2        0.0000 
     24 N         162.0300  142.2900  173.4500 N.am      2 ALA2        0.0000 
     25 N         155.6900  143.4800  175.8400 N.am      2 ALA2        0.0000 
     26 N         156.9400  143.9400  175.1400 N.am      2 ALA2        0.0000 
     27 N         158.9800  143.3900  175.1900 N.am      2 ALA2        0.0000 
     28 N         159.7900  142.3700  175.9500 N.am      2 ALA2        0.0000 
     29 O         158.6200  145.8800  172.9800 O.2       2 ALA2        0.0000 
     30 N         159.4200  144.8600  173.7400 N.am      2 ALA2        0.0000 
     31 N         160.2300  143.8500  174.4900 N.am      2 ALA2        0.0000 
     32 N         161.0300  142.8300  175.2400 N.am      2 ALA2        0.0000 
     33 N         162.2700  143.2900  174.5400 N.am      2 ALA2        0.0000 
     34 N         156.7400  143.4700  177.6900 N.am      2 ALA2        0.0000 
     35 N         157.5500  142.4500  178.4400 N.am      2 ALA2        0.0000 
     36 N         157.9800  143.9300  176.9800 N.am      2 ALA2        0.0000 
     37 N         158.7900  142.9100  177.7400 N.am      2 ALA2        0.0000 
     38 N         160.0300  143.3700  177.0400 N.am      2 ALA2        0.0000 
     39 O         160.9100  146.3300  174.1200 O.2       2 ALA2        0.0000 
     40 O         157.7900  143.4500  179.5300 O.2       2 ALA2        0.0000 
     41 N         159.0300  143.9100  178.8300 N.am      2 ALA2        0.0000 
     42 N         159.8400  142.8900  179.5800 N.am      2 ALA2        0.0000 
     43 N         161.0800  143.3600  178.8800 N.am      2 ALA2        0.0000 
     44 N         162.3200  143.8200  178.1800 N.am      2 ALA2        0.0000 
     45 O         156.7900  143.9900  181.3200 O.2       2 ALA2        0.0000 
     46 N         161.3200  144.3600  179.9700 N.am      2 ALA2        0.0000 
     47 N         162.5700  144.8200  179.2700 N.am      2 ALA2        0.0000 
     48 N         161.0300  150.8200  174.0900 N.am      2 ALA2        0.0000 
     49 N         155.7900  144.5300  183.1100 N.am      2 ALA2        0.0000 
     50 N         164.9300  149.2400  176.7400 N.am      2 ALA2        0.0000 
     51 OD1       156.8900  143.4200  171.5000 O.co2     3 ASP3        0.0000 
     52 OD1       157.1300  144.4200  172.5900 O.co2     3 ASP3        0.0000 
     53 OD1       156.1300  144.9600  174.3900 O.co2     3 ASP3        0.0000 
     54 OD1       157.3800  145.4200  173.6800 O.co2     3 ASP3        0.0000 
     55 OD1       154.7000  144.0200  177.6300 O.co2     3 ASP3        0.0000 
     56 OD1       155.5000  143.0100  178.3900 O.co2     3 ASP3        0.0000 
     57 OD1       161.7100  145.3100  174.8800 O.co2     3 ASP3        0.0000 
     58 OD1       155.7400  144.0100  179.4800 O.co2     3 ASP3        0.0000 
     59 OD1       161.9600  146.3100  175.9700 O.co2     3 ASP3        0.0000 
     60 OD1       162.7600  145.2900  176.7200 O.co2     3 ASP3        0.0000 
     61 OD1       162.4000  147.7900  174.5100 O.co2     3 ASP3        0.0000 
     62 OD1       163.2000  146.7700  175.2600 O.co2     3 ASP3        0.0000 
     63 OD1       158.8400  143.4400  181.3700 O.co2     3 ASP3        0.0000 
     64 OD1       160.0800  143.9000  180.6700 O.co2     3 ASP3        0.0000 
     65 OD1       162.6400  148.7900  175.6000 O.co2     3 ASP3        0.0000 
     66 OD1       163.4500  147.7700  176.3500 O.co2     3 ASP3        0.0000 
     67 OD1       164.2500  146.7600  177.1100 O.co2     3 ASP3        0.0000 
     68 OD1       163.8800  149.2500  174.9000 O.co2     3 ASP3        0.0000 
     69 OD1       164.6900  148.2300  175.6500 O.co2     3 ASP3        0.0000 
     70 OD1       156.4800  147.0100  182.7500 O.co2     3 ASP3        0.0000 
     71 NZ        154.8900  144.5000  175.0900 N.4       4 LYS4        0.0000 
     72 NZ        154.9400  145.0300  178.7200 N.4       4 LYS4        0.0000 
     73 NZ        154.7500  144.5500  181.2700 N.4       4 LYS4        0.0000 
     74 NZ        155.1800  146.0300  179.8100 N.4       4 LYS4        0.0000 
     75 NZ        155.9900  145.0100  180.5700 N.4       4 LYS4        0.0000 
     76 NZ        154.6300  148.0500  180.1500 N.4       4 LYS4        0.0000 
     77 NZ        155.4300  147.0300  180.9000 N.4       4 LYS4        0.0000 
     78 NZ        156.2300  146.0100  181.6600 N.4       4 LYS4        0.0000 
     79 NZ        155.2300  146.5500  183.4500 N.4       4 LYS4        0.0000 
     80 NZ        155.6700  148.0300  181.9900 N.4       4 LYS4        0.0000 
     81 CZ        160.9600  146.8500  177.7600 C.ar      5 PHE5        0.0000 
     82 CZ        161.7600  145.8300  178.5100 C.ar      5 PHE5        0.0000 
     83 CZ        161.4000  148.3300  176.3000 C.ar      5 PHE5        0.0000 
     84 CZ        162.2000  147.3100  177.0600 C.ar      5 PHE5        0.0000 
     85 CZ        163.0100  146.3000  177.8100 C.ar      5 PHE5        0.0000 
     86 CZ        163.8100  145.2800  178.5700 C.ar      5 PHE5        0.0000 
     87 CZ        163.6900  148.7700  177.4400 C.ar      5 PHE5        0.0000 
     88 CA        157.6900  142.4000  172.2600 C.3       6 GLY6        0.0000 
     89 CA        156.6900  142.9400  174.0500 C.3       6 GLY6        0.0000 
     90 CA        157.9300  143.4000  173.3500 C.3       6 GLY6        0.0000 
     91 CA        158.7400  142.3900  174.1000 C.3       6 GLY6        0.0000 
     92 CA        158.3700  144.8800  171.8900 C.3       6 GLY6        0.0000 
     93 CA        160.8300  142.3500  177.7900 C.3       6 GLY6        0.0000 
     94 CA        158.8600  146.8800  174.0700 C.3       6 GLY6        0.0000 
     95 CA        159.6700  145.8700  174.8200 C.3       6 GLY6        0.0000 
     96 CA        161.2700  143.8300  176.3300 C.3       6 GLY6        0.0000 
     97 CA        162.5200  144.2900  175.6300 C.3       6 GLY6        0.0000 
     98 CA        161.1500  147.3300  175.2100 C.3       6 GLY6        0.0000 
     99 CA        160.6000  149.3500  175.5500 C.3       6 GLY6        0.0000 
    100 CA        161.8400  149.8100  174.8400 C.3       6 GLY6        0.0000 
    101 CA        163.0800  150.2700  174.1400 C.3       6 GLY6        0.0000 
    102 CA        157.0400  144.9900  182.4100 C.3       6 GLY6        0.0000 
    103 CA        155.8700  148.5100  179.4500 C.3       6 GLY6        0.0000 
    104 CA        160.8400  150.3500  176.6400 C.3       6 GLY6        0.0000 
    105 CA        162.0800  150.8100  175.9300 C.3       6 GLY6        0.0000 
    106 CA        162.8900  149.7900  176.6900 C.3       6 GLY6        0.0000 
    107 CA        162.5200  152.2900  174.4800 C.3       6 GLY6        0.0000 
    108 CA        163.3300  151.2700  175.2300 C.3       6 GLY6        0.0000 
    109 CA        164.1300  150.2500  175.9900 C.3       6 GLY6        0.0000 
    110 CA        165.3700  150.7100  175.2800 C.3       6 GLY6        0.0000 
    111 CA        154.8700  149.0500  181.2400 C.3       6 GLY6        0.0000 
    112 CA        162.3300  151.8100  177.0200 C.3       6 GLY6        0.0000 
    113 CA        163.5700  152.2700  176.3200 C.3       6 GLY6        0.0000 
    114 DU        158.1800  144.4000  174.4400 H         7 CUB7        0.0000 
    115 DU        159.2300  144.3900  176.2800 H         7 CUB7        0.0000 
    116 DU        160.4700  144.8500  175.5800 H         7 CUB7        0.0000 
    117 DU        160.2800  144.3700  178.1300 H         7 CUB7        0.0000 
    118 DU        160.7100  145.8500  176.6700 H         7 CUB7        0.0000 
    119 DU        161.5200  144.8300  177.4200 H         7 CUB7        0.0000 
@<TRIPOS>BOND
@<TRIPOS>SUBSTRUCTURE
     1 SER1        1 GROUP   
     2 ALA2       22 GROUP   
     3 ASP3       51 GROUP   
     4 LYS4       71 GROUP   
     5 PHE5       81 GROUP   
     6 GLY6       88 GROUP   
     7 CUB7      114 GROUP   
@<TRIPOS>SET

