#    Name: 6n7t_2_TTP
#    Modification time : Fri May 22 19:34:39 2020

@<TRIPOS>MOLECULE
6n7t_2_TTP
   29    30     1     0     0
SMALL
NO_CHARGES


@<TRIPOS>ATOM
      1 PA        156.7340  145.0820  173.5460 P.3       1 TTP700      0.0000 
      2 O1A       156.7230  146.5890  173.6290 O.co2     1 TTP700      0.0000 
      3 O2A       155.3490  144.5520  173.8320 O.co2     1 TTP700      0.0000 
      4 O3A       157.1970  144.6180  172.0340 O.3       1 TTP700      0.0000 
      5 PB        157.2890  145.4250  170.6000 P.3       1 TTP700      0.0000 
      6 O1B       156.1380  146.3970  170.4950 O.co2     1 TTP700      0.0000 
      7 O2B       158.5940  146.1800  170.5300 O.co2     1 TTP700      0.0000 
      8 O3B       157.2100  144.3450  169.3570 O.3       1 TTP700      0.0000 
      9 PG        156.1890  143.1620  169.0130 P.3       1 TTP700      0.0000 
     10 O1G       154.8910  143.3870  169.7530 O.co2     1 TTP700      0.0000 
     11 O2G       156.7880  141.8420  169.4370 O.co2     1 TTP700      0.0000 
     12 O3G       155.9250  143.1410  167.5270 O.co2     1 TTP700      0.0000 
     13 O5'       157.7940  144.4780  174.6530 O.3       1 TTP700      0.0000 
     14 C5'       159.0340  145.1070  174.8040 C.3       1 TTP700      0.0000 
     15 C4'       159.8680  144.3440  175.8570 C.3       1 TTP700      0.0000 
     16 O4'       161.2770  144.3980  175.5250 O.3       1 TTP700      0.0000 
     17 C3'       159.7760  145.0360  177.2120 C.3       1 TTP700      0.0000 
     18 O3'       158.6500  144.5020  177.9710 O.3       1 TTP700      0.0000 
     19 C2'       161.0840  144.6410  177.8750 C.3       1 TTP700      0.0000 
     20 C1'       162.0560  144.5790  176.7030 C.3       1 TTP700      0.0000 
     21 N1        162.7850  145.8520  176.5780 N.am      1 TTP700      0.0000 
     22 C2        163.9750  146.1550  177.4170 C.2       1 TTP700      0.0000 
     23 O2        164.3190  145.3300  178.1940 O.2       1 TTP700      0.0000 
     24 N3        164.7220  147.3360  177.3610 N.am      1 TTP700      0.0000 
     25 C4        164.2690  148.2260  176.4520 C.2       1 TTP700      0.0000 
     26 O4        164.8910  149.2940  176.3560 O.2       1 TTP700      0.0000 
     27 C5        163.0920  148.0450  175.5540 C.2       1 TTP700      0.0000 
     28 C5M       162.6790  149.1310  174.5630 C.3       1 TTP700      0.0000 
     29 C6        162.3880  146.8590  175.6490 C.2       1 TTP700      0.0000 
@<TRIPOS>BOND
     1    1    2 ar   
     2    1    3 ar   
     3    1    4 1    
     4    1   13 1    
     5    4    5 1    
     6    5    6 ar   
     7    5    7 ar   
     8    5    8 1    
     9    8    9 1    
    10    9   10 ar   
    11    9   11 ar   
    12    9   12 ar   
    13   13   14 1    
    14   14   15 1    
    15   15   16 1    
    16   15   17 1    
    17   16   20 1    
    18   17   18 1    
    19   17   19 1    
    20   19   20 1    
    21   20   21 1    
    22   21   22 1    
    23   21   29 1    
    24   22   23 2    
    25   22   24 1    
    26   24   25 1    
    27   25   26 2    
    28   25   27 1    
    29   27   28 1    
    30   27   29 2    
@<TRIPOS>SUBSTRUCTURE
     1 TTP700      1 GROUP   
@<TRIPOS>SET

