#    Name: 6n7t_4_TTP
#    Modification time : Fri May 22 19:34:53 2020

@<TRIPOS>MOLECULE
6n7t_4_TTP
   29    30     1     0     0
SMALL
NO_CHARGES


@<TRIPOS>ATOM
      1 PA        156.5200  166.3150  121.7190 P.3       1 TTP700      0.0000 
      2 O1A       156.3930  165.9300  120.2650 O.co2     1 TTP700      0.0000 
      3 O2A       155.4860  167.3620  122.0550 O.co2     1 TTP700      0.0000 
      4 O3A       156.2820  164.9850  122.6620 O.3       1 TTP700      0.0000 
      5 PB        155.7650  163.4570  122.3270 P.3       1 TTP700      0.0000 
      6 O1B       156.9290  162.6260  121.8420 O.co2     1 TTP700      0.0000 
      7 O2B       154.7020  163.5090  121.2550 O.co2     1 TTP700      0.0000 
      8 O3B       155.1360  162.7780  123.6900 O.3       1 TTP700      0.0000 
      9 PG        153.6540  162.7350  124.2930 P.3       1 TTP700      0.0000 
     10 O1G       153.4980  161.5100  125.1610 O.co2     1 TTP700      0.0000 
     11 O2G       152.6540  162.6840  123.1640 O.co2     1 TTP700      0.0000 
     12 O3G       153.4130  163.9740  125.1230 O.co2     1 TTP700      0.0000 
     13 O5'       158.0270  166.9220  121.9970 O.3       1 TTP700      0.0000 
     14 C5'       158.4280  168.0600  121.2890 C.3       1 TTP700      0.0000 
     15 C4'       159.0270  169.0920  122.2730 C.3       1 TTP700      0.0000 
     16 O4'       160.3210  168.6360  122.7470 O.3       1 TTP700      0.0000 
     17 C3'       159.2670  170.4250  121.5570 C.3       1 TTP700      0.0000 
     18 O3'       159.0510  171.5340  122.4810 O.3       1 TTP700      0.0000 
     19 C2'       160.7360  170.3440  121.1770 C.3       1 TTP700      0.0000 
     20 C1'       161.3320  169.5350  122.3160 C.3       1 TTP700      0.0000 
     21 N1        162.4710  168.7370  121.8320 N.am      1 TTP700      0.0000 
     22 C2        163.8490  168.9510  122.3480 C.2       1 TTP700      0.0000 
     23 O2        164.0000  169.7920  123.1680 O.2       1 TTP700      0.0000 
     24 N3        164.9820  168.2380  121.9430 N.am      1 TTP700      0.0000 
     25 C4        164.7290  167.2980  121.0070 C.2       1 TTP700      0.0000 
     26 O4        165.6950  166.6310  120.6070 O.2       1 TTP700      0.0000 
     27 C5        163.3980  166.9860  120.4100 C.2       1 TTP700      0.0000 
     28 C5M       163.2420  165.8930  119.3550 C.3       1 TTP700      0.0000 
     29 C6        162.3110  167.7190  120.8460 C.2       1 TTP700      0.0000 
@<TRIPOS>BOND
     1    1    2 ar   
     2    1    3 ar   
     3    1    4 1    
     4    1   13 1    
     5    4    5 1    
     6    5    6 ar   
     7    5    7 ar   
     8    5    8 1    
     9    8    9 1    
    10    9   10 ar   
    11    9   11 ar   
    12    9   12 ar   
    13   13   14 1    
    14   14   15 1    
    15   15   16 1    
    16   15   17 1    
    17   16   20 1    
    18   17   18 1    
    19   17   19 1    
    20   19   20 1    
    21   20   21 1    
    22   21   22 1    
    23   21   29 1    
    24   22   23 2    
    25   22   24 1    
    26   24   25 1    
    27   25   26 2    
    28   25   27 1    
    29   27   28 1    
    30   27   29 2    
@<TRIPOS>SUBSTRUCTURE
     1 TTP700      1 GROUP   
@<TRIPOS>SET

