#    Name: 6n7t_3_TTP
#    Modification time : Fri May 22 19:34:46 2020

@<TRIPOS>MOLECULE
6n7t_3_TTP
   29    30     1     0     0
SMALL
NO_CHARGES


@<TRIPOS>ATOM
      1 PA        153.4150  170.0670  153.3360 P.3       1 TTP700      0.0000 
      2 O1A       153.9230  171.0570  152.3220 O.co2     1 TTP700      0.0000 
      3 O2A       151.9120  169.9790  153.2620 O.co2     1 TTP700      0.0000 
      4 O3A       154.0640  168.5940  153.0220 O.3       1 TTP700      0.0000 
      5 PB        153.8700  167.6130  151.7260 P.3       1 TTP700      0.0000 
      6 O1B       152.8480  168.2510  150.8230 O.co2     1 TTP700      0.0000 
      7 O2B       155.1900  167.4590  151.0150 O.co2     1 TTP700      0.0000 
      8 O3B       153.3120  166.1430  152.1970 O.3       1 TTP700      0.0000 
      9 PG        151.8950  165.4380  152.0020 P.3       1 TTP700      0.0000 
     10 O1G       150.8070  166.4790  151.9620 O.co2     1 TTP700      0.0000 
     11 O2G       151.6370  164.4950  153.1490 O.co2     1 TTP700      0.0000 
     12 O3G       151.9040  164.6730  150.7050 O.co2     1 TTP700      0.0000 
     13 O5'       153.8840  170.5260  154.8380 O.3       1 TTP700      0.0000 
     14 C5'       155.0930  170.0080  155.3040 C.3       1 TTP700      0.0000 
     15 C4'       155.8300  171.0950  156.1070 C.3       1 TTP700      0.0000 
     16 O4'       157.2460  170.9990  155.8930 O.3       1 TTP700      0.0000 
     17 C3'       155.5140  172.4610  155.5280 C.3       1 TTP700      0.0000 
     18 O3'       154.2880  172.9660  156.1320 O.3       1 TTP700      0.0000 
     19 C2'       156.7010  173.2990  155.9770 C.3       1 TTP700      0.0000 
     20 C1'       157.8000  172.2640  156.1930 C.3       1 TTP700      0.0000 
     21 N1        158.8970  172.4880  155.2490 N.am      1 TTP700      0.0000 
     22 C2        160.2230  172.9590  155.7140 C.2       1 TTP700      0.0000 
     23 O2        160.3590  173.1480  156.8730 O.2       1 TTP700      0.0000 
     24 N3        161.3210  173.2000  154.8940 N.am      1 TTP700      0.0000 
     25 C4        161.0880  172.9600  153.5920 C.2       1 TTP700      0.0000 
     26 O4        162.0260  173.1550  152.8090 O.2       1 TTP700      0.0000 
     27 C5        159.8090  172.4880  152.9990 C.2       1 TTP700      0.0000 
     28 C5M       159.6880  172.2660  151.4960 C.3       1 TTP700      0.0000 
     29 C6        158.7500  172.2670  153.8530 C.2       1 TTP700      0.0000 
@<TRIPOS>BOND
     1    1    2 ar   
     2    1    3 ar   
     3    1    4 1    
     4    1   13 1    
     5    4    5 1    
     6    5    6 ar   
     7    5    7 ar   
     8    5    8 1    
     9    8    9 1    
    10    9   10 ar   
    11    9   11 ar   
    12    9   12 ar   
    13   13   14 1    
    14   14   15 1    
    15   15   16 1    
    16   15   17 1    
    17   16   20 1    
    18   17   18 1    
    19   17   19 1    
    20   19   20 1    
    21   20   21 1    
    22   21   22 1    
    23   21   29 1    
    24   22   23 2    
    25   22   24 1    
    26   24   25 1    
    27   25   26 2    
    28   25   27 1    
    29   27   28 1    
    30   27   29 2    
@<TRIPOS>SUBSTRUCTURE
     1 TTP700      1 GROUP   
@<TRIPOS>SET

