#    Name: 6gau_2_ANP
#    Modification time : Fri May 22 19:28:29 2020

@<TRIPOS>MOLECULE
6gau_2_ANP
   31    33     1     0     1
SMALL
NO_CHARGES


@<TRIPOS>ATOM
      1 PG        -51.4490  173.7990  284.8360 P.3       1 ANP1601     0.0000 
      2 O1G       -50.8760  174.8240  283.9780 O.co2     1 ANP1601     0.0000 
      3 O2G       -50.5970  172.4600  284.6980 O.co2     1 ANP1601     0.0000 
      4 O3G       -52.9480  173.5510  284.3690 O.co2     1 ANP1601     0.0000 
      5 PB        -51.1270  175.6520  287.1250 P.3       1 ANP1601     0.0000 
      6 O1B       -51.2370  176.7900  286.0450 O.co2     1 ANP1601     0.0000 
      7 O2B       -52.0520  175.9480  288.2070 O.co2     1 ANP1601     0.0000 
      8 N3B       -51.4510  174.2220  286.4140 N.3       1 ANP1601     0.0000 
      9 PA        -48.2400  175.6750  286.7810 P.3       1 ANP1601     0.0000 
     10 O1A       -48.5560  175.2300  285.3590 O.co2     1 ANP1601     0.0000 
     11 O2A       -47.2540  174.7440  287.3850 O.co2     1 ANP1601     0.0000 
     12 O3A       -49.6170  175.6240  287.5840 O.3       1 ANP1601     0.0000 
     13 O5'       -47.7160  177.1970  286.7500 O.3       1 ANP1601     0.0000 
     14 C5'       -47.1730  177.8220  287.9340 C.3       1 ANP1601     0.0000 
     15 C4'       -47.9390  179.0640  288.3270 C.3       1 ANP1601     0.0000 
     16 O4'       -47.4640  180.2100  287.5960 O.3       1 ANP1601     0.0000 
     17 C3'       -49.4390  179.0780  288.0700 C.3       1 ANP1601     0.0000 
     18 O3'       -50.1410  178.3220  289.0500 O.3       1 ANP1601     0.0000 
     19 C2'       -49.7690  180.5790  288.0970 C.3       1 ANP1601     0.0000 
     20 O2'       -50.2040  181.0270  289.3780 O.3       1 ANP1601     0.0000 
     21 C1'       -48.4250  181.2420  287.7340 C.3       1 ANP1601     0.0000 
     22 N9        -48.4420  182.0660  286.5210 N.pl3     1 ANP1601     0.0000 
     23 C8        -48.2540  181.6480  285.2300 C.2       1 ANP1601     0.0000 
     24 N7        -48.2910  182.6110  284.3410 N.2       1 ANP1601     0.0000 
     25 C5        -48.5180  183.7500  285.1000 C.ar      1 ANP1601     0.0000 
     26 C6        -48.6550  185.1110  284.7560 C.ar      1 ANP1601     0.0000 
     27 N6        -48.5040  185.5860  283.5180 N.pl3     1 ANP1601     0.0000 
     28 N1        -48.9120  185.9900  285.7520 N.ar      1 ANP1601     0.0000 
     29 C2        -49.0060  185.5310  287.0070 C.ar      1 ANP1601     0.0000 
     30 N3        -48.8650  184.2790  287.4570 N.ar      1 ANP1601     0.0000 
     31 C4        -48.6240  183.4280  286.4470 C.ar      1 ANP1601     0.0000 
@<TRIPOS>BOND
     1    1    2 ar   
     2    1    3 ar   
     3    1    4 ar   
     4    1    8 1    
     5    5    6 ar   
     6    5    7 ar   
     7    5    8 1    
     8    5   12 1    
     9    9   10 ar   
    10    9   11 ar   
    11    9   12 1    
    12    9   13 1    
    13   13   14 1    
    14   14   15 1    
    15   15   16 1    
    16   15   17 1    
    17   16   21 1    
    18   17   18 1    
    19   17   19 1    
    20   19   20 1    
    21   19   21 1    
    22   21   22 1    
    23   22   23 1    
    24   22   31 1    
    25   23   24 2    
    26   24   25 1    
    27   25   26 ar   
    28   25   31 ar   
    29   26   27 1    
    30   26   28 ar   
    31   28   29 ar   
    32   29   30 ar   
    33   30   31 ar   
@<TRIPOS>SUBSTRUCTURE
     1 ANP1601     1 GROUP   
@<TRIPOS>SET
ATOM$ORANGE STATIC     ATOMS   COLORGROUP SYSTEM 
20 14 14 15 15 17 17 19 19 21 21 23 23 25 25 26 26 29 \
29 31 31 

