#    Name: 6gau_1_ANP
#    Modification time : Fri May 22 19:28:16 2020

@<TRIPOS>MOLECULE
6gau_1_ANP
   31    33     1     0     1
SMALL
NO_CHARGES


@<TRIPOS>ATOM
      1 PG        -51.7450  126.3920  174.3500 P.3       1 ANP1601     0.0000 
      2 O1G       -53.3130  126.6570  174.4450 O.co2     1 ANP1601     0.0000 
      3 O2G       -50.9040  127.7300  174.5460 O.co2     1 ANP1601     0.0000 
      4 O3G       -51.3660  125.4460  175.3880 O.co2     1 ANP1601     0.0000 
      5 PB        -51.4130  124.2530  172.3760 P.3       1 ANP1601     0.0000 
      6 O1B       -52.3320  124.0190  171.2750 O.co2     1 ANP1601     0.0000 
      7 O2B       -51.8390  123.3270  173.5890 O.co2     1 ANP1601     0.0000 
      8 N3B       -51.4350  125.8010  172.8700 N.3       1 ANP1601     0.0000 
      9 PA        -48.5210  123.8860  172.8030 P.3       1 ANP1601     0.0000 
     10 O1A       -47.5980  124.9030  172.2460 O.co2     1 ANP1601     0.0000 
     11 O2A       -48.7670  124.1440  174.2930 O.co2     1 ANP1601     0.0000 
     12 O3A       -49.9110  123.9060  172.0210 O.3       1 ANP1601     0.0000 
     13 O5'       -47.9520  122.4120  172.5990 O.3       1 ANP1601     0.0000 
     14 C5'       -47.6550  121.9600  171.2640 C.3       1 ANP1601     0.0000 
     15 C4'       -48.3250  120.6450  170.9470 C.3       1 ANP1601     0.0000 
     16 O4'       -47.6620  119.5660  171.6310 O.3       1 ANP1601     0.0000 
     17 C3'       -49.7830  120.4830  171.3510 C.3       1 ANP1601     0.0000 
     18 O3'       -50.6600  121.1570  170.4570 O.3       1 ANP1601     0.0000 
     19 C2'       -49.9550  118.9570  171.3420 C.3       1 ANP1601     0.0000 
     20 O2'       -50.3770  118.4180  170.0940 O.3       1 ANP1601     0.0000 
     21 C1'       -48.5400  118.4550  171.6790 C.3       1 ANP1601     0.0000 
     22 N9        -48.4360  117.8170  172.9870 N.pl3     1 ANP1601     0.0000 
     23 C8        -48.0600  118.3910  174.1750 C.2       1 ANP1601     0.0000 
     24 N7        -48.0920  117.5720  175.1990 N.2       1 ANP1601     0.0000 
     25 C5        -48.5180  116.3740  174.6470 C.ar      1 ANP1601     0.0000 
     26 C6        -48.7530  115.1020  175.2050 C.ar      1 ANP1601     0.0000 
     27 N6        -48.6100  114.8220  176.5020 N.pl3     1 ANP1601     0.0000 
     28 N1        -49.1630  114.1140  174.3750 N.ar      1 ANP1601     0.0000 
     29 C2        -49.3300  114.3930  173.0750 C.ar      1 ANP1601     0.0000 
     30 N3        -49.1410  115.5530  172.4350 N.ar      1 ANP1601     0.0000 
     31 C4        -48.7320  116.5100  173.2830 C.ar      1 ANP1601     0.0000 
@<TRIPOS>BOND
     1    1    2 ar   
     2    1    3 ar   
     3    1    4 ar   
     4    1    8 1    
     5    5    6 ar   
     6    5    7 ar   
     7    5    8 1    
     8    5   12 1    
     9    9   10 ar   
    10    9   11 ar   
    11    9   12 1    
    12    9   13 1    
    13   13   14 1    
    14   14   15 1    
    15   15   16 1    
    16   15   17 1    
    17   16   21 1    
    18   17   18 1    
    19   17   19 1    
    20   19   20 1    
    21   19   21 1    
    22   21   22 1    
    23   22   23 1    
    24   22   31 1    
    25   23   24 2    
    26   24   25 1    
    27   25   26 ar   
    28   25   31 ar   
    29   26   27 1    
    30   26   28 ar   
    31   28   29 ar   
    32   29   30 ar   
    33   30   31 ar   
@<TRIPOS>SUBSTRUCTURE
     1 ANP1601     1 GROUP   
@<TRIPOS>SET
ATOM$ORANGE STATIC     ATOMS   COLORGROUP SYSTEM 
20 14 14 15 15 17 17 19 19 21 21 23 23 25 25 26 26 29 \
29 31 31 

