#    Name: 5h7l_1_GCP_CAVITY_N1_8
#    Modification time : Fri May 22 19:12:33 2020

@<TRIPOS>MOLECULE
5h7l_1_GCP_CAVITY_N1_8
   69     0     7     0     0
SMALL
NO_CHARGES


@<TRIPOS>ATOM
      1 OG         -6.8700  -26.3900   23.5000 O.3       1 SER1        0.0000 
      2 OG         -5.5100  -25.3500   22.2500 O.3       1 SER1        0.0000 
      3 OG         -5.2700  -24.3500   23.3400 O.3       1 SER1        0.0000 
      4 OG         -2.7800  -20.0600   18.8200 O.3       1 SER1        0.0000 
      5 OG         -0.2300  -17.2200   23.9200 O.3       1 SER1        0.0000 
      6 O          -5.6300  -27.4700   22.1600 O.2       2 ALA2        0.0000 
      7 O          -5.7500  -26.3600   21.1600 O.2       2 ALA2        0.0000 
      8 O          -4.2700  -26.4400   20.9100 O.2       2 ALA2        0.0000 
      9 N          -4.3800  -25.3300   19.9100 N.am      2 ALA2        0.0000 
     10 O          -4.0300  -25.4300   22.0000 O.2       2 ALA2        0.0000 
     11 O          -5.6200  -24.2400   21.2500 O.2       2 ALA2        0.0000 
     12 O          -4.1500  -24.3200   20.9900 O.2       2 ALA2        0.0000 
     13 N          -2.7800  -23.2800   19.7400 N.am      2 ALA2        0.0000 
     14 N          -2.9000  -22.1700   18.7400 N.am      2 ALA2        0.0000 
     15 N          -1.4200  -22.2500   18.4900 N.am      2 ALA2        0.0000 
     16 O          -3.0100  -21.0600   17.7400 O.2       2 ALA2        0.0000 
     17 O          -1.1800  -21.2400   19.5700 O.2       2 ALA2        0.0000 
     18 O          -0.9500  -20.2400   20.6600 O.2       2 ALA2        0.0000 
     19 O          -1.9600  -21.3800   24.0000 O.2       2 ALA2        0.0000 
     20 O          -0.4800  -21.4600   23.7500 O.2       2 ALA2        0.0000 
     21 O           1.2400  -20.5300   24.5900 O.2       2 ALA2        0.0000 
     22 O          -0.3600  -19.3400   23.8400 O.2       2 ALA2        0.0000 
     23 O           1.3600  -18.4100   24.6700 O.2       2 ALA2        0.0000 
     24 OD1         0.6400  -21.4300   21.4100 O.co2     3 ASP3        0.0000 
     25 NZ         -8.4600  -25.2000   22.7600 N.4       4 LYS4        0.0000 
     26 NZ          1.0000  -21.5300   23.5000 N.4       4 LYS4        0.0000 
     27 CZ         -3.9000  -20.0900   21.1700 C.ar      5 PHE5        0.0000 
     28 CZ         -2.4200  -20.1600   20.9100 C.ar      5 PHE5        0.0000 
     29 CZ         -4.0100  -18.9800   20.1600 C.ar      5 PHE5        0.0000 
     30 CZ         -3.6600  -19.0800   22.2500 C.ar      5 PHE5        0.0000 
     31 CZ         -2.1800  -19.1600   22.0000 C.ar      5 PHE5        0.0000 
     32 CZ         -0.7100  -19.2300   21.7500 C.ar      5 PHE5        0.0000 
     33 CZ         -1.9500  -18.1500   23.0900 C.ar      5 PHE5        0.0000 
     34 CZ         -0.4700  -18.2300   22.8400 C.ar      5 PHE5        0.0000 
     35 CA         -8.5800  -27.3200   22.6700 C.3       6 GLY6        0.0000 
     36 CA         -7.1100  -27.3900   22.4200 C.3       6 GLY6        0.0000 
     37 CA         -6.9800  -25.2800   22.5000 C.3       6 GLY6        0.0000 
     38 CA         -2.6700  -24.4000   20.7400 C.3       6 GLY6        0.0000 
     39 CA         -4.2600  -23.2100   19.9900 C.3       6 GLY6        0.0000 
     40 CA         -1.3100  -23.3600   19.4900 C.3       6 GLY6        0.0000 
     41 CA         -3.7900  -24.4300   23.0800 C.3       6 GLY6        0.0000 
     42 CA         -2.3200  -24.5000   22.8300 C.3       6 GLY6        0.0000 
     43 CA         -6.8600  -23.1600   22.5900 C.3       6 GLY6        0.0000 
     44 CA         -5.3800  -23.2400   22.3300 C.3       6 GLY6        0.0000 
     45 CA         -2.4300  -23.3900   21.8300 C.3       6 GLY6        0.0000 
     46 CA         -5.5000  -22.1300   21.3300 C.3       6 GLY6        0.0000 
     47 CA         -4.0200  -22.2000   21.0800 C.3       6 GLY6        0.0000 
     48 CA         -1.0700  -22.3600   20.5700 C.3       6 GLY6        0.0000 
     49 CA         -4.1400  -21.0900   20.0800 C.3       6 GLY6        0.0000 
     50 CA         -4.2500  -19.9800   19.0800 C.3       6 GLY6        0.0000 
     51 CA         -3.6700  -22.3100   23.1700 C.3       6 GLY6        0.0000 
     52 CA         -2.1900  -22.3800   22.9200 C.3       6 GLY6        0.0000 
     53 CA         -0.7200  -22.4600   22.6600 C.3       6 GLY6        0.0000 
     54 CA         -5.2600  -21.1200   22.4200 C.3       6 GLY6        0.0000 
     55 CA         -0.8300  -21.3500   21.6600 C.3       6 GLY6        0.0000 
     56 CA         -5.3800  -20.0100   21.4200 C.3       6 GLY6        0.0000 
     57 CA         -5.4900  -18.9000   20.4200 C.3       6 GLY6        0.0000 
     58 CA          0.8800  -20.4200   22.5000 C.3       6 GLY6        0.0000 
     59 CA          1.1200  -19.4200   23.5800 C.3       6 GLY6        0.0000 
     60 CA          1.0100  -18.3000   22.5800 C.3       6 GLY6        0.0000 
     61 CA          1.2400  -17.3000   23.6700 C.3       6 GLY6        0.0000 
     62 DU         -3.9100  -23.3100   22.0800 H         7 CUB7        0.0000 
     63 DU         -2.5500  -22.2800   20.8300 H         7 CUB7        0.0000 
     64 DU         -2.6600  -21.1700   19.8300 H         7 CUB7        0.0000 
     65 DU         -3.7800  -21.2000   22.1700 H         7 CUB7        0.0000 
     66 DU         -2.3100  -21.2700   21.9100 H         7 CUB7        0.0000 
     67 DU         -3.4300  -21.3000   24.2600 H         7 CUB7        0.0000 
     68 DU         -2.0700  -20.2700   23.0000 H         7 CUB7        0.0000 
     69 DU         -0.5900  -20.3400   22.7500 H         7 CUB7        0.0000 
@<TRIPOS>BOND
@<TRIPOS>SUBSTRUCTURE
     1 SER1        1 GROUP   
     2 ALA2        6 GROUP   
     3 ASP3       24 GROUP   
     4 LYS4       25 GROUP   
     5 PHE5       27 GROUP   
     6 GLY6       35 GROUP   
     7 CUB7       62 GROUP   
@<TRIPOS>SET

