#    Name: 5h7l_1_GCP_CAVITY_N1_4
#    Modification time : Fri May 22 19:12:33 2020

@<TRIPOS>MOLECULE
5h7l_1_GCP_CAVITY_N1_4
   38     0     6     0     0
SMALL
NO_CHARGES


@<TRIPOS>ATOM
      1 OG         -6.8700  -26.3900   23.5000 O.3       1 SER1        0.0000 
      2 OG         -5.5100  -25.3500   22.2500 O.3       1 SER1        0.0000 
      3 OG         -5.2700  -24.3500   23.3400 O.3       1 SER1        0.0000 
      4 O          -5.6300  -27.4700   22.1600 O.2       2 ALA2        0.0000 
      5 O          -5.7500  -26.3600   21.1600 O.2       2 ALA2        0.0000 
      6 O          -4.2700  -26.4400   20.9100 O.2       2 ALA2        0.0000 
      7 N          -4.3800  -25.3300   19.9100 N.am      2 ALA2        0.0000 
      8 O          -4.0300  -25.4300   22.0000 O.2       2 ALA2        0.0000 
      9 O          -5.6200  -24.2400   21.2500 O.2       2 ALA2        0.0000 
     10 O          -4.1500  -24.3200   20.9900 O.2       2 ALA2        0.0000 
     11 N          -2.7800  -23.2800   19.7400 N.am      2 ALA2        0.0000 
     12 O          -1.9600  -21.3800   24.0000 O.2       2 ALA2        0.0000 
     13 NZ         -8.4600  -25.2000   22.7600 N.4       3 LYS4        0.0000 
     14 CZ         -3.9000  -20.0900   21.1700 C.ar      4 PHE5        0.0000 
     15 CZ         -3.6600  -19.0800   22.2500 C.ar      4 PHE5        0.0000 
     16 CA         -8.5800  -27.3200   22.6700 C.3       5 GLY6        0.0000 
     17 CA         -7.1100  -27.3900   22.4200 C.3       5 GLY6        0.0000 
     18 CA         -6.9800  -25.2800   22.5000 C.3       5 GLY6        0.0000 
     19 CA         -2.6700  -24.4000   20.7400 C.3       5 GLY6        0.0000 
     20 CA         -4.2600  -23.2100   19.9900 C.3       5 GLY6        0.0000 
     21 CA         -3.7900  -24.4300   23.0800 C.3       5 GLY6        0.0000 
     22 CA         -2.3200  -24.5000   22.8300 C.3       5 GLY6        0.0000 
     23 CA         -6.8600  -23.1600   22.5900 C.3       5 GLY6        0.0000 
     24 CA         -5.3800  -23.2400   22.3300 C.3       5 GLY6        0.0000 
     25 CA         -2.4300  -23.3900   21.8300 C.3       5 GLY6        0.0000 
     26 CA         -5.5000  -22.1300   21.3300 C.3       5 GLY6        0.0000 
     27 CA         -4.0200  -22.2000   21.0800 C.3       5 GLY6        0.0000 
     28 CA         -4.1400  -21.0900   20.0800 C.3       5 GLY6        0.0000 
     29 CA         -3.6700  -22.3100   23.1700 C.3       5 GLY6        0.0000 
     30 CA         -2.1900  -22.3800   22.9200 C.3       5 GLY6        0.0000 
     31 CA         -5.2600  -21.1200   22.4200 C.3       5 GLY6        0.0000 
     32 CA         -5.3800  -20.0100   21.4200 C.3       5 GLY6        0.0000 
     33 DU         -3.9100  -23.3100   22.0800 H         6 CUB7        0.0000 
     34 DU         -2.5500  -22.2800   20.8300 H         6 CUB7        0.0000 
     35 DU         -3.7800  -21.2000   22.1700 H         6 CUB7        0.0000 
     36 DU         -2.3100  -21.2700   21.9100 H         6 CUB7        0.0000 
     37 DU         -3.4300  -21.3000   24.2600 H         6 CUB7        0.0000 
     38 DU         -2.0700  -20.2700   23.0000 H         6 CUB7        0.0000 
@<TRIPOS>BOND
@<TRIPOS>SUBSTRUCTURE
     1 SER1        1 GROUP   
     2 ALA2        4 GROUP   
     3 LYS4       13 GROUP   
     4 PHE5       14 GROUP   
     5 GLY6       16 GROUP   
     6 CUB7       33 GROUP   
@<TRIPOS>SET

