#    Name: 5h7l_1_GCP
#    Modification time : Fri May 22 19:12:31 2020

@<TRIPOS>MOLECULE
5h7l_1_GCP
   32    34     1     0     0
SMALL
NO_CHARGES


@<TRIPOS>ATOM
      1 PG         -6.4650  -22.7790   23.2370 P.3       1 GCP801      0.0000 
      2 O1G        -7.6790  -21.8170   22.8010 O.co2     1 GCP801      0.0000 
      3 O2G        -5.2220  -21.9850   23.3850 O.co2     1 GCP801      0.0000 
      4 O3G        -6.8730  -23.3970   24.6740 O.co2     1 GCP801      0.0000 
      5 C3B        -6.2230  -24.0330   21.9320 C.3       1 GCP801      0.0000 
      6 PB         -5.3120  -25.5160   22.4580 P.3       1 GCP801      0.0000 
      7 O1B        -3.9830  -25.5780   21.8280 O.co2     1 GCP801      0.0000 
      8 O2B        -5.2310  -25.4280   24.0590 O.co2     1 GCP801      0.0000 
      9 O3A        -6.1100  -26.8520   22.0920 O.3       1 GCP801      0.0000 
     10 PA         -6.6810  -27.7710   23.2880 P.3       1 GCP801      0.0000 
     11 O1A        -5.6930  -28.8740   23.5310 O.co2     1 GCP801      0.0000 
     12 O2A        -7.1110  -26.9220   24.4740 O.co2     1 GCP801      0.0000 
     13 O5'        -7.9670  -28.4030   22.5330 O.3       1 GCP801      0.0000 
     14 C5'        -9.2400  -27.7750   22.5920 C.3       1 GCP801      0.0000 
     15 C4'       -10.2950  -28.8410   22.8030 C.3       1 GCP801      0.0000 
     16 O4'       -10.0430  -29.8980   21.8890 O.3       1 GCP801      0.0000 
     17 C3'       -10.1910  -29.4110   24.2100 C.3       1 GCP801      0.0000 
     18 O3'       -11.4370  -29.2540   24.8810 O.3       1 GCP801      0.0000 
     19 C2'        -9.9750  -30.8880   24.0660 C.3       1 GCP801      0.0000 
     20 O2'       -10.9630  -31.5760   24.8360 O.3       1 GCP801      0.0000 
     21 C1'       -10.1800  -31.1450   22.5810 C.3       1 GCP801      0.0000 
     22 N9         -9.1940  -32.1720   22.1630 N.pl3     1 GCP801      0.0000 
     23 C8         -7.8500  -32.0960   22.2310 C.2       1 GCP801      0.0000 
     24 N7         -7.2740  -33.2380   21.7740 N.2       1 GCP801      0.0000 
     25 C5         -8.2750  -34.0860   21.4230 C.2       1 GCP801      0.0000 
     26 C6         -8.4010  -35.4680   20.8710 C.2       1 GCP801      0.0000 
     27 O6         -7.4010  -36.1740   20.5970 O.2       1 GCP801      0.0000 
     28 N1         -9.6440  -35.9320   20.6530 N.am      1 GCP801      0.0000 
     29 C2        -10.7580  -35.2180   20.9210 C.2       1 GCP801      0.0000 
     30 N2        -11.9790  -35.7450   20.6790 N.pl3     1 GCP801      0.0000 
     31 N3        -10.7090  -33.9680   21.4260 N.2       1 GCP801      0.0000 
     32 C4         -9.5290  -33.3670   21.6900 C.2       1 GCP801      0.0000 
@<TRIPOS>BOND
     1    1    2 ar   
     2    1    3 ar   
     3    1    4 ar   
     4    1    5 1    
     5    5    6 1    
     6    6    7 ar   
     7    6    8 ar   
     8    6    9 1    
     9    9   10 1    
    10   10   11 ar   
    11   10   12 ar   
    12   10   13 1    
    13   13   14 1    
    14   14   15 1    
    15   15   16 1    
    16   15   17 1    
    17   16   21 1    
    18   17   18 1    
    19   17   19 1    
    20   19   20 1    
    21   19   21 1    
    22   21   22 1    
    23   22   23 1    
    24   22   32 1    
    25   23   24 2    
    26   24   25 1    
    27   25   26 1    
    28   25   32 2    
    29   26   27 2    
    30   26   28 am   
    31   28   29 1    
    32   29   30 1    
    33   29   31 2    
    34   31   32 1    
@<TRIPOS>SUBSTRUCTURE
     1 GCP801      1 GROUP   
@<TRIPOS>SET

