#    Name: 6a2n_4_UMP
#    Modification time : Fri May 22 19:28:30 2020

@<TRIPOS>MOLECULE
6a2n_4_UMP
   20    21     1     0     1
SMALL
NO_CHARGES


@<TRIPOS>ATOM
      1 N1         14.4920   14.7680    9.7200 N.am      1 UMP703      0.0000 
      2 C2         15.2860   13.5750    9.7870 C.2       1 UMP703      0.0000 
      3 N3         16.1280   13.2840    8.7930 N.am      1 UMP703      0.0000 
      4 C4         16.2320   14.0970    7.7180 C.2       1 UMP703      0.0000 
      5 C5         15.4680   15.2560    7.5980 C.2       1 UMP703      0.0000 
      6 C6         14.5860   15.5680    8.6300 C.2       1 UMP703      0.0000 
      7 O2         15.2370   12.7900   10.7620 O.2       1 UMP703      0.0000 
      8 O4         17.0240   13.8050    6.7880 O.2       1 UMP703      0.0000 
      9 C1'        13.5150   15.1340   10.7400 C.3       1 UMP703      0.0000 
     10 C2'        14.0990   15.5530   12.0750 C.3       1 UMP703      0.0000 
     11 C3'        13.0130   16.4820   12.5940 C.3       1 UMP703      0.0000 
     12 C4'        12.4050   17.1420   11.3520 C.3       1 UMP703      0.0000 
     13 O3'        12.0260   15.6760   13.2430 O.3       1 UMP703      0.0000 
     14 O4'        12.6600   16.2070   10.2860 O.3       1 UMP703      0.0000 
     15 C5'        13.0660   18.4960   11.0370 C.3       1 UMP703      0.0000 
     16 O5'        12.7130   19.4140   12.0690 O.3       1 UMP703      0.0000 
     17 P          13.7480   20.3510   12.8590 P.3       1 UMP703      0.0000 
     18 OP1        12.8990   21.1010   13.8090 O.co2     1 UMP703      0.0000 
     19 OP2        14.7110   19.4790   13.5730 O.co2     1 UMP703      0.0000 
     20 OP3        14.3660   21.2320   11.7820 O.co2     1 UMP703      0.0000 
@<TRIPOS>BOND
     1    1    2 1    
     2    1    6 1    
     3    1    9 1    
     4    2    3 1    
     5    2    7 2    
     6    3    4 1    
     7    4    5 1    
     8    4    8 2    
     9    5    6 2    
    10    9   10 1    
    11    9   14 1    
    12   10   11 1    
    13   11   12 1    
    14   11   13 1    
    15   12   14 1    
    16   12   15 1    
    17   15   16 1    
    18   16   17 1    
    19   17   18 ar   
    20   17   19 ar   
    21   17   20 ar   
@<TRIPOS>SUBSTRUCTURE
     1 UMP703      1 GROUP   
@<TRIPOS>SET
ATOM$ORANGE STATIC     ATOMS   COLORGROUP SYSTEM 
18 2 2 4 4 5 5 6 6 9 9 10 10 11 11 12 12 15 \
15 

