#    Name: 6a2n_2_UMP
#    Modification time : Fri May 22 19:28:08 2020

@<TRIPOS>MOLECULE
6a2n_2_UMP
   20    21     1     0     1
SMALL
NO_CHARGES


@<TRIPOS>ATOM
      1 N1         44.1270   20.4120   18.7830 N.am      1 UMP703      0.0000 
      2 C2         43.3240   19.9220   19.8570 C.2       1 UMP703      0.0000 
      3 N3         42.5380   20.7520   20.5610 N.am      1 UMP703      0.0000 
      4 C4         42.5060   22.0870   20.2870 C.2       1 UMP703      0.0000 
      5 C5         43.3140   22.6400   19.2570 C.2       1 UMP703      0.0000 
      6 C6         44.1410   21.7600   18.5230 C.2       1 UMP703      0.0000 
      7 O2         43.3290   18.7070   20.1430 O.2       1 UMP703      0.0000 
      8 O4         41.7610   22.8500   20.9560 O.2       1 UMP703      0.0000 
      9 C1'        45.0540   19.5330   18.0520 C.3       1 UMP703      0.0000 
     10 C2'        44.5450   18.3880   17.1940 C.3       1 UMP703      0.0000 
     11 C3'        45.7190   18.2480   16.2100 C.3       1 UMP703      0.0000 
     12 C4'        46.2700   19.6790   16.0080 C.3       1 UMP703      0.0000 
     13 O3'        46.7550   17.3960   16.7650 O.3       1 UMP703      0.0000 
     14 O4'        45.9450   20.3360   17.2380 O.3       1 UMP703      0.0000 
     15 C5'        45.6650   20.5120   14.8590 C.3       1 UMP703      0.0000 
     16 O5'        45.9960   19.8760   13.6280 O.3       1 UMP703      0.0000 
     17 P          45.0220   19.5940   12.3890 P.3       1 UMP703      0.0000 
     18 OP1        45.9910   19.0300   11.4120 O.co2     1 UMP703      0.0000 
     19 OP2        44.0410   18.5630   12.7830 O.co2     1 UMP703      0.0000 
     20 OP3        44.4590   20.9340   12.0070 O.co2     1 UMP703      0.0000 
@<TRIPOS>BOND
     1    1    2 1    
     2    1    6 1    
     3    1    9 1    
     4    2    3 1    
     5    2    7 2    
     6    3    4 1    
     7    4    5 1    
     8    4    8 2    
     9    5    6 2    
    10    9   10 1    
    11    9   14 1    
    12   10   11 1    
    13   11   12 1    
    14   11   13 1    
    15   12   14 1    
    16   12   15 1    
    17   15   16 1    
    18   16   17 1    
    19   17   18 ar   
    20   17   19 ar   
    21   17   20 ar   
@<TRIPOS>SUBSTRUCTURE
     1 UMP703      1 GROUP   
@<TRIPOS>SET
ATOM$ORANGE STATIC     ATOMS   COLORGROUP SYSTEM 
18 2 2 4 4 5 5 6 6 9 9 10 10 11 11 12 12 15 \
15 

