#    Name: 6a2n_2_UMP_CAVITY_N1_6
#    Modification time : Fri May 22 19:28:09 2020

@<TRIPOS>MOLECULE
6a2n_2_UMP_CAVITY_N1_6
  110     0     7     0     0
SMALL
NO_CHARGES


@<TRIPOS>ATOM
      1 OG         45.2100   18.1000   16.0300 O.3       1 SER1        0.0000 
      2 OG         44.6300   19.1400   15.1100 O.3       1 SER1        0.0000 
      3 OG         47.4700   18.3000   17.2900 O.3       1 SER1        0.0000 
      4 OG         46.8900   19.3500   16.3800 O.3       1 SER1        0.0000 
      5 OG         48.2300   19.5200   15.7300 O.3       1 SER1        0.0000 
      6 OG         41.6300   21.8100   20.0500 O.3       1 SER1        0.0000 
      7 OG         41.9700   22.8700   21.0500 O.3       1 SER1        0.0000 
      8 N          44.2100   18.9900   17.6700 N.am      2 ALA2        0.0000 
      9 N          44.9700   20.2100   16.1100 N.am      2 ALA2        0.0000 
     10 N          44.3900   21.2500   15.2000 N.am      2 ALA2        0.0000 
     11 O          43.2100   19.8800   19.3200 O.2       2 ALA2        0.0000 
     12 N          44.5500   20.0600   18.6700 N.am      2 ALA2        0.0000 
     13 N          43.9700   21.1000   17.7600 N.am      2 ALA2        0.0000 
     14 N          45.3100   21.2700   17.1100 N.am      2 ALA2        0.0000 
     15 N          44.7300   22.3200   16.2000 N.am      2 ALA2        0.0000 
     16 N          43.5500   20.9400   20.3200 N.am      2 ALA2        0.0000 
     17 N          42.9700   21.9800   19.4100 N.am      2 ALA2        0.0000 
     18 N          44.3100   22.1600   18.7600 N.am      2 ALA2        0.0000 
     19 N          43.7300   23.2000   17.8500 N.am      2 ALA2        0.0000 
     20 O          43.8900   22.0100   21.3200 O.2       2 ALA2        0.0000 
     21 O          46.7600   24.6200   17.5500 O.2       2 ALA2        0.0000 
     22 N          48.1000   24.8000   16.9100 N.am      2 ALA2        0.0000 
     23 O          44.2300   23.0700   22.3200 O.2       2 ALA2        0.0000 
     24 O          42.3100   23.9400   22.0500 O.2       2 ALA2        0.0000 
     25 O          45.7600   25.5100   19.2000 O.2       2 ALA2        0.0000 
     26 O          47.1000   25.6900   18.5500 O.2       2 ALA2        0.0000 
     27 N          48.4400   25.8700   17.9100 N.am      2 ALA2        0.0000 
     28 O          45.1800   26.5500   18.2900 O.2       2 ALA2        0.0000 
     29 O          43.2300   23.9600   23.9700 O.2       2 ALA2        0.0000 
     30 N          46.6700   25.5300   21.1100 N.am      2 ALA2        0.0000 
     31 N          46.1000   26.5800   20.2000 N.am      2 ALA2        0.0000 
     32 N          47.4400   26.7500   19.5500 N.am      2 ALA2        0.0000 
     33 OD1        46.5500   18.2800   15.3800 O.co2     3 ASP3        0.0000 
     34 OD1        45.9700   19.3200   14.4700 O.co2     3 ASP3        0.0000 
     35 OD1        46.3100   20.3900   15.4700 O.co2     3 ASP3        0.0000 
     36 OD1        45.7400   21.4300   14.5600 O.co2     3 ASP3        0.0000 
     37 NZ         47.8100   19.3700   18.2900 N.4       4 LYS4        0.0000 
     38 NZ         46.8100   20.2600   19.9400 N.4       4 LYS4        0.0000 
     39 NZ         48.1500   20.4300   19.2900 N.4       4 LYS4        0.0000 
     40 NZ         47.7300   20.2800   21.8500 N.4       4 LYS4        0.0000 
     41 NZ         47.1500   21.3200   20.9400 N.4       4 LYS4        0.0000 
     42 NZ         42.6500   25.0000   23.0500 N.4       4 LYS4        0.0000 
     43 NZ         42.0700   26.0400   22.1400 N.4       4 LYS4        0.0000 
     44 NZ         43.4100   26.2200   21.4900 N.4       4 LYS4        0.0000 
     45 NZ         42.8400   27.2600   20.5800 N.4       4 LYS4        0.0000 
     46 NZ         42.9900   26.0700   24.0500 N.4       4 LYS4        0.0000 
     47 CZ         41.3900   23.9100   20.1400 C.ar      5 PHE5        0.0000 
     48 CZ         42.7300   24.0900   19.4900 C.ar      5 PHE5        0.0000 
     49 CZ         41.7300   24.9800   21.1400 C.ar      5 PHE5        0.0000 
     50 CZ         41.1500   26.0200   20.2300 C.ar      5 PHE5        0.0000 
     51 CZ         42.4900   26.2000   19.5800 C.ar      5 PHE5        0.0000 
     52 CZ         43.8400   26.3700   18.9300 C.ar      5 PHE5        0.0000 
     53 CZ         45.7200   22.0600   25.1400 C.ar      5 PHE5        0.0000 
     54 CZ         45.1500   23.1000   24.2300 C.ar      5 PHE5        0.0000 
     55 CZ         44.1800   27.4400   19.9300 C.ar      5 PHE5        0.0000 
     56 CZ         45.4900   24.1600   25.2300 C.ar      5 PHE5        0.0000 
     57 CA         46.1300   18.1300   17.9400 C.3       6 GLY6        0.0000 
     58 CA         45.1200   19.0100   19.5900 C.3       6 GLY6        0.0000 
     59 CA         46.4700   19.1900   18.9400 C.3       6 GLY6        0.0000 
     60 CA         46.0800   22.4900   15.5600 C.3       6 GLY6        0.0000 
     61 CA         44.1200   19.9000   21.2300 C.3       6 GLY6        0.0000 
     62 CA         45.4700   20.0800   20.5900 C.3       6 GLY6        0.0000 
     63 CA         42.3900   23.0200   18.4900 C.3       6 GLY6        0.0000 
     64 CA         46.4200   23.5600   16.5600 C.3       6 GLY6        0.0000 
     65 CA         47.7600   23.7400   15.9100 C.3       6 GLY6        0.0000 
     66 CA         44.5000   24.4200   16.2900 C.3       6 GLY6        0.0000 
     67 CA         45.8100   21.1400   21.5900 C.3       6 GLY6        0.0000 
     68 CA         44.8400   25.4900   17.2900 C.3       6 GLY6        0.0000 
     69 CA         46.1800   25.6600   16.6400 C.3       6 GLY6        0.0000 
     70 CA         46.7200   21.1700   23.5000 C.3       6 GLY6        0.0000 
     71 CA         48.0700   21.3500   22.8500 C.3       6 GLY6        0.0000 
     72 CA         44.8000   22.0300   23.2300 C.3       6 GLY6        0.0000 
     73 CA         46.1500   22.2100   22.5900 C.3       6 GLY6        0.0000 
     74 CA         43.8000   22.9200   24.8800 C.3       6 GLY6        0.0000 
     75 CA         45.9100   24.3200   22.6700 C.3       6 GLY6        0.0000 
     76 CA         43.9900   25.1800   22.4100 C.3       6 GLY6        0.0000 
     77 CA         45.3300   25.3600   21.7600 C.3       6 GLY6        0.0000 
     78 CA         44.7500   26.4000   20.8500 C.3       6 GLY6        0.0000 
     79 CA         44.1400   23.9800   25.8800 C.3       6 GLY6        0.0000 
     80 CA         42.2200   24.8500   25.6100 C.3       6 GLY6        0.0000 
     81 CA         43.5700   25.0300   24.9600 C.3       6 GLY6        0.0000 
     82 CA         44.9100   25.2000   24.3200 C.3       6 GLY6        0.0000 
     83 CA         46.2500   25.3800   23.6700 C.3       6 GLY6        0.0000 
     84 DU         45.5500   19.1700   17.0300 H         7 CUB7        0.0000 
     85 DU         45.8900   20.2300   18.0300 H         7 CUB7        0.0000 
     86 DU         47.2300   20.4100   17.3800 H         7 CUB7        0.0000 
     87 DU         46.6500   21.4500   16.4700 H         7 CUB7        0.0000 
     88 DU         44.8900   21.1200   19.6700 H         7 CUB7        0.0000 
     89 DU         46.2300   21.3000   19.0300 H         7 CUB7        0.0000 
     90 DU         47.5700   21.4800   18.3800 H         7 CUB7        0.0000 
     91 DU         45.6500   22.3400   18.1100 H         7 CUB7        0.0000 
     92 DU         46.9900   22.5200   17.4700 H         7 CUB7        0.0000 
     93 DU         45.0800   23.3800   17.2000 H         7 CUB7        0.0000 
     94 DU         45.2300   22.1900   20.6700 H         7 CUB7        0.0000 
     95 DU         43.3100   23.0500   20.4100 H         7 CUB7        0.0000 
     96 DU         47.3300   23.5800   18.4700 H         7 CUB7        0.0000 
     97 DU         48.6800   23.7600   17.8200 H         7 CUB7        0.0000 
     98 DU         44.0700   24.2700   18.8500 H         7 CUB7        0.0000 
     99 DU         45.4200   24.4500   18.2000 H         7 CUB7        0.0000 
    100 DU         47.4900   22.3900   21.9400 H         7 CUB7        0.0000 
    101 DU         45.5700   23.2500   21.6700 H         7 CUB7        0.0000 
    102 DU         43.6500   24.1100   21.4100 H         7 CUB7        0.0000 
    103 DU         44.9900   24.2900   20.7600 H         7 CUB7        0.0000 
    104 DU         46.3300   24.4700   20.1100 H         7 CUB7        0.0000 
    105 DU         47.6800   24.6500   19.4700 H         7 CUB7        0.0000 
    106 DU         43.0700   25.1600   20.4900 H         7 CUB7        0.0000 
    107 DU         44.4100   25.3300   19.8500 H         7 CUB7        0.0000 
    108 DU         46.4900   23.2700   23.5800 H         7 CUB7        0.0000 
    109 DU         44.5700   24.1400   23.3200 H         7 CUB7        0.0000 
    110 DU         47.2500   24.4900   22.0300 H         7 CUB7        0.0000 
@<TRIPOS>BOND
@<TRIPOS>SUBSTRUCTURE
     1 SER1        1 GROUP   
     2 ALA2        8 GROUP   
     3 ASP3       33 GROUP   
     4 LYS4       37 GROUP   
     5 PHE5       47 GROUP   
     6 GLY6       57 GROUP   
     7 CUB7       84 GROUP   
@<TRIPOS>SET

