#    Name: 6a2n_4_UMP_CAVITY_N1_4
#    Modification time : Fri May 22 19:28:31 2020

@<TRIPOS>MOLECULE
6a2n_4_UMP_CAVITY_N1_4
   81     0     7     0     0
SMALL
NO_CHARGES


@<TRIPOS>ATOM
      1 OG         16.4800   14.1600    7.5100 O.3       1 SER1        0.0000 
      2 OG         11.7900   15.5700   12.1000 O.3       1 SER1        0.0000 
      3 OG         11.2100   16.6200   11.1900 O.3       1 SER1        0.0000 
      4 OG         12.1300   16.6400   13.1000 O.3       1 SER1        0.0000 
      5 OG         13.4700   16.8200   12.4500 O.3       1 SER1        0.0000 
      6 OG         11.5500   17.6800   12.1900 O.3       1 SER1        0.0000 
      7 OG         14.5800   19.1000   11.8900 O.3       1 SER1        0.0000 
      8 O          15.4600   10.9600    4.5100 O.2       2 ALA2        0.0000 
      9 O          15.8000   12.0200    5.5100 O.2       2 ALA2        0.0000 
     10 O          16.1400   13.0900    6.5100 O.2       2 ALA2        0.0000 
     11 N          15.7100   12.9400    9.0700 N.am      2 ALA2        0.0000 
     12 O          12.0600   16.9200    6.0700 O.2       2 ALA2        0.0000 
     13 O          13.4000   17.1000    5.4200 O.2       2 ALA2        0.0000 
     14 O          14.7500   17.2800    4.7800 O.2       2 ALA2        0.0000 
     15 O          14.7100   13.8200   10.7200 O.2       2 ALA2        0.0000 
     16 N          16.0500   14.0000   10.0700 N.am      2 ALA2        0.0000 
     17 N          14.1400   14.8600    9.8100 N.am      2 ALA2        0.0000 
     18 N          15.4800   15.0400    9.1600 N.am      2 ALA2        0.0000 
     19 N          13.5600   15.9100    8.8900 N.am      2 ALA2        0.0000 
     20 N          14.9000   16.0800    8.2500 N.am      2 ALA2        0.0000 
     21 N          16.2400   16.2600    7.6000 N.am      2 ALA2        0.0000 
     22 N          14.3200   17.1200    7.3300 N.am      2 ALA2        0.0000 
     23 N          15.0500   14.8900   11.7200 N.am      2 ALA2        0.0000 
     24 N          14.4800   15.9300   10.8100 N.am      2 ALA2        0.0000 
     25 N          13.9000   16.9700    9.8900 N.am      2 ALA2        0.0000 
     26 N          14.6600   18.1900    8.3300 N.am      2 ALA2        0.0000 
     27 N          14.2400   18.0400   10.8900 N.am      2 ALA2        0.0000 
     28 N          13.6600   19.0800    9.9800 N.am      2 ALA2        0.0000 
     29 N          15.0000   19.2600    9.3300 N.am      2 ALA2        0.0000 
     30 OD1         9.3000   17.4800   10.9200 O.co2     3 ASP3        0.0000 
     31 OD1        10.6400   17.6600   10.2700 O.co2     3 ASP3        0.0000 
     32 OD1        11.9800   17.8300    9.6300 O.co2     3 ASP3        0.0000 
     33 OD1        10.0600   18.7000    9.3600 O.co2     3 ASP3        0.0000 
     34 OD1        12.9000   17.8600   11.5400 O.co2     3 ASP3        0.0000 
     35 OD1        12.3200   18.9000   10.6300 O.co2     3 ASP3        0.0000 
     36 OD1        13.2400   18.9200   12.5400 O.co2     3 ASP3        0.0000 
     37 OD1        12.6600   19.9600   11.6300 O.co2     3 ASP3        0.0000 
     38 OD1        14.0000   20.1400   10.9800 O.co2     3 ASP3        0.0000 
     39 NZ         12.1100   12.5600    8.4500 N.4       4 LYS4        0.0000 
     40 NZ         12.4500   13.6200    9.4500 N.4       4 LYS4        0.0000 
     41 NZ         10.5300   14.4900    9.1900 N.4       4 LYS4        0.0000 
     42 CZ         17.2400   15.3700    5.9500 C.ar      5 PHE5        0.0000 
     43 CZ          9.5300   15.3700   10.8300 C.ar      5 PHE5        0.0000 
     44 CA         13.1100   11.6700    6.8100 C.3       6 GLY6        0.0000 
     45 CA         14.4600   11.8500    6.1600 C.3       6 GLY6        0.0000 
     46 CA         14.6400   14.1100    3.6900 C.3       6 GLY6        0.0000 
     47 CA         15.3700   11.8700    8.0700 C.3       6 GLY6        0.0000 
     48 CA         13.4500   12.7300    7.8100 C.3       6 GLY6        0.0000 
     49 CA         14.8000   12.9100    7.1600 C.3       6 GLY6        0.0000 
     50 CA         14.3700   12.7600    9.7200 C.3       6 GLY6        0.0000 
     51 CA         11.4500   14.5100   11.1000 C.3       6 GLY6        0.0000 
     52 CA         12.7900   14.6900   10.4500 C.3       6 GLY6        0.0000 
     53 CA         16.8200   15.2200    8.5100 C.3       6 GLY6        0.0000 
     54 CA         11.0600   17.8100    7.7100 C.3       6 GLY6        0.0000 
     55 CA         12.4000   17.9900    7.0700 C.3       6 GLY6        0.0000 
     56 CA         13.7400   18.1700    6.4200 C.3       6 GLY6        0.0000 
     57 CA         13.7100   14.7100   12.3600 C.3       6 GLY6        0.0000 
     58 CA         13.1300   15.7500   11.4500 C.3       6 GLY6        0.0000 
     59 CA         13.3200   18.0100    8.9800 C.3       6 GLY6        0.0000 
     60 CA         11.4000   18.8800    8.7100 C.3       6 GLY6        0.0000 
     61 DU         13.8800   12.8900    5.2500 H         7 CUB7        0.0000 
     62 DU         15.2200   13.0700    4.6000 H         7 CUB7        0.0000 
     63 DU         11.5300   13.6000    7.5400 H         7 CUB7        0.0000 
     64 DU         12.8800   13.7800    6.8900 H         7 CUB7        0.0000 
     65 DU         14.2200   13.9500    6.2500 H         7 CUB7        0.0000 
     66 DU         15.5600   14.1300    5.6000 H         7 CUB7        0.0000 
     67 DU         13.6400   14.9900    5.3300 H         7 CUB7        0.0000 
     68 DU         14.9800   15.1700    4.6900 H         7 CUB7        0.0000 
     69 DU         13.7900   13.8000    8.8100 H         7 CUB7        0.0000 
     70 DU         15.1400   13.9800    8.1600 H         7 CUB7        0.0000 
     71 DU         11.8800   14.6600    8.5400 H         7 CUB7        0.0000 
     72 DU         14.5600   15.0200    7.2500 H         7 CUB7        0.0000 
     73 DU         15.9000   15.2000    6.6000 H         7 CUB7        0.0000 
     74 DU         13.9800   16.0600    6.3300 H         7 CUB7        0.0000 
     75 DU         15.3200   16.2400    5.6900 H         7 CUB7        0.0000 
     76 DU         10.8700   15.5500   10.1900 H         7 CUB7        0.0000 
     77 DU         12.2200   15.7300    9.5400 H         7 CUB7        0.0000 
     78 DU         10.3000   16.5900    9.2700 H         7 CUB7        0.0000 
     79 DU         11.6400   16.7700    8.6300 H         7 CUB7        0.0000 
     80 DU         12.9800   16.9500    7.9800 H         7 CUB7        0.0000 
     81 DU         12.5600   16.7900   10.5400 H         7 CUB7        0.0000 
@<TRIPOS>BOND
@<TRIPOS>SUBSTRUCTURE
     1 SER1        1 GROUP   
     2 ALA2        8 GROUP   
     3 ASP3       30 GROUP   
     4 LYS4       39 GROUP   
     5 PHE5       42 GROUP   
     6 GLY6       44 GROUP   
     7 CUB7       61 GROUP   
@<TRIPOS>SET

