#    Name: 6a2n_3_NAP
#    Modification time : Fri May 22 19:28:15 2020

@<TRIPOS>MOLECULE
6a2n_3_NAP
   48    52     1     0     1
SMALL
NO_CHARGES


@<TRIPOS>ATOM
      1 PA         20.8420  -38.0670    4.9000 P.3       1 NAP702      0.0000 
      2 O1A        19.9820  -37.5780    6.0400 O.co2     1 NAP702      0.0000 
      3 O2A        22.3210  -37.7590    4.8640 O.co2     1 NAP702      0.0000 
      4 O5B        20.7180  -39.6730    4.8440 O.3       1 NAP702      0.0000 
      5 C5B        19.4720  -40.3100    4.5580 C.3       1 NAP702      0.0000 
      6 C4B        19.7040  -41.8130    4.4770 C.3       1 NAP702      0.0000 
      7 O4B        20.0680  -42.3030    5.7770 O.3       1 NAP702      0.0000 
      8 C3B        18.4590  -42.5750    4.0180 C.3       1 NAP702      0.0000 
      9 O3B        18.4900  -42.9180    2.6260 O.3       1 NAP702      0.0000 
     10 C2B        18.4180  -43.8060    4.9110 C.3       1 NAP702      0.0000 
     11 O2B        18.8350  -45.0070    4.2050 O.3       1 NAP702      0.0000 
     12 C1B        19.2260  -43.4010    6.1560 C.3       1 NAP702      0.0000 
     13 N9A        18.3300  -43.0050    7.2920 N.pl3     1 NAP702      0.0000 
     14 C8A        17.5450  -41.9040    7.3930 C.2       1 NAP702      0.0000 
     15 N7A        16.8630  -41.8770    8.5670 N.2       1 NAP702      0.0000 
     16 C5A        17.2120  -42.9800    9.2540 C.ar      1 NAP702      0.0000 
     17 C6A        16.8860  -43.6030   10.5670 C.ar      1 NAP702      0.0000 
     18 N6A        16.0230  -43.0370   11.4390 N.pl3     1 NAP702      0.0000 
     19 N1A        17.4830  -44.7770   10.8870 N.ar      1 NAP702      0.0000 
     20 C2A        18.3590  -45.3920   10.0690 C.ar      1 NAP702      0.0000 
     21 N3A        18.6960  -44.8870    8.8690 N.ar      1 NAP702      0.0000 
     22 C4A        18.1770  -43.7150    8.4110 C.ar      1 NAP702      0.0000 
     23 O3         20.1690  -37.6040    3.4990 O.3       1 NAP702      0.0000 
     24 PN         19.2660  -36.2770    3.2980 P.3       1 NAP702      0.0000 
     25 O1N        18.7970  -36.2340    1.8700 O.co2     1 NAP702      0.0000 
     26 O2N        18.2200  -36.2410    4.3780 O.co2     1 NAP702      0.0000 
     27 O5D        20.3150  -35.0670    3.4850 O.3       1 NAP702      0.0000 
     28 C5D        21.6420  -35.1370    2.9590 C.3       1 NAP702      0.0000 
     29 C4D        21.6840  -34.3950    1.6340 C.3       1 NAP702      0.0000 
     30 O4D        21.7110  -32.9950    1.9060 O.3       1 NAP702      0.0000 
     31 C3D        22.9160  -34.7440    0.8070 C.3       1 NAP702      0.0000 
     32 O3D        22.5400  -35.3840   -0.4250 O.3       1 NAP702      0.0000 
     33 C2D        23.6430  -33.4270    0.5760 C.3       1 NAP702      0.0000 
     34 O2D        23.5560  -32.9920   -0.7880 O.3       1 NAP702      0.0000 
     35 C1D        22.9500  -32.4140    1.4870 C.3       1 NAP702      0.0000 
     36 N1N        23.7130  -32.0400    2.6900 N.pl3     1 NAP702      0.0000 
     37 C2N        23.1360  -31.1570    3.5410 C.ar      1 NAP702      0.0000 
     38 C3N        23.8010  -30.7520    4.6980 C.ar      1 NAP702      0.0000 
     39 C7N        23.1800  -29.7750    5.6570 C.2       1 NAP702      0.0000 
     40 O7N        22.4310  -30.2010    6.5180 O.2       1 NAP702      0.0000 
     41 N7N        23.4640  -28.4730    5.5540 N.am      1 NAP702      0.0000 
     42 C4N        25.0640  -31.2850    4.9510 C.ar      1 NAP702      0.0000 
     43 C5N        25.6580  -32.1930    4.0770 C.ar      1 NAP702      0.0000 
     44 C6N        24.9460  -32.5530    2.9360 C.ar      1 NAP702      0.0000 
     45 P2B        20.2750  -45.7670    4.1540 P.3       1 NAP702      0.0000 
     46 O1X        20.2000  -46.6020    2.9010 O.co2     1 NAP702      0.0000 
     47 O2X        21.3370  -44.7060    4.0510 O.co2     1 NAP702      0.0000 
     48 O3X        20.3170  -46.5880    5.4190 O.co2     1 NAP702      0.0000 
@<TRIPOS>BOND
     1    1    2 ar   
     2    1    3 ar   
     3    1    4 1    
     4    1   23 1    
     5    4    5 1    
     6    5    6 1    
     7    6    7 1    
     8    6    8 1    
     9    7   12 1    
    10    8    9 1    
    11    8   10 1    
    12   10   11 1    
    13   10   12 1    
    14   11   45 1    
    15   12   13 1    
    16   13   14 1    
    17   13   22 1    
    18   14   15 2    
    19   15   16 1    
    20   16   17 ar   
    21   16   22 ar   
    22   17   18 1    
    23   17   19 ar   
    24   19   20 ar   
    25   20   21 ar   
    26   21   22 ar   
    27   23   24 1    
    28   24   25 ar   
    29   24   26 ar   
    30   24   27 1    
    31   27   28 1    
    32   28   29 1    
    33   29   30 1    
    34   29   31 1    
    35   30   35 1    
    36   31   32 1    
    37   31   33 1    
    38   33   34 1    
    39   33   35 1    
    40   35   36 1    
    41   36   37 ar   
    42   36   44 ar   
    43   37   38 ar   
    44   38   39 1    
    45   38   42 ar   
    46   39   40 2    
    47   39   41 am   
    48   42   43 ar   
    49   43   44 ar   
    50   45   46 ar   
    51   45   47 ar   
    52   45   48 ar   
@<TRIPOS>SUBSTRUCTURE
     1 NAP702      1 GROUP   
@<TRIPOS>SET
ATOM$ORANGE STATIC     ATOMS   COLORGROUP SYSTEM 
42 5 5 6 6 8 8 10 10 12 12 14 14 16 16 17 17 20 \
20 22 22 28 28 29 29 31 31 33 33 35 35 37 37 38 38 39 \
39 42 42 43 43 44 44 

