#    Name: 6iyf_1_2BA
#    Modification time : Fri May 22 19:25:24 2020

@<TRIPOS>MOLECULE
6iyf_1_2BA
   44    50     1     0     0
SMALL
NO_CHARGES


@<TRIPOS>ATOM
      1 P          -6.3970    3.1110  -29.3450 P.3       1 2BA401      0.0000 
      2 O1P        -7.5200    3.9340  -29.4130 O.co2     1 2BA401      0.0000 
      3 O2P        -5.2320    3.5230  -28.7490 O.co2     1 2BA401      0.0000 
      4 O5'        -6.0030    2.6610  -30.7190 O.3       1 2BA401      0.0000 
      5 C5'        -6.9520    2.1960  -31.5900 C.3       1 2BA401      0.0000 
      6 C4'        -6.3770    1.5630  -32.8580 C.3       1 2BA401      0.0000 
      7 O4'        -5.5220    2.4310  -33.4800 O.3       1 2BA401      0.0000 
      8 C3'        -5.5170    0.3460  -32.5830 C.3       1 2BA401      0.0000 
      9 O3'        -6.1840   -0.8720  -32.3650 O.3       1 2BA401      0.0000 
     10 C2'        -4.6270    0.3230  -33.7900 C.3       1 2BA401      0.0000 
     11 O2'        -5.3340   -0.2070  -34.8390 O.3       1 2BA401      0.0000 
     12 C1'        -4.3680    1.7830  -34.0160 C.3       1 2BA401      0.0000 
     13 N9         -3.1640    2.1630  -33.3270 N.pl3     1 2BA401      0.0000 
     14 C8         -3.0900    2.9010  -32.2410 C.2       1 2BA401      0.0000 
     15 N7         -1.8730    3.0930  -31.7650 N.2       1 2BA401      0.0000 
     16 C5         -1.1030    2.4970  -32.6260 C.ar      1 2BA401      0.0000 
     17 C6          0.3260    2.2750  -32.7570 C.ar      1 2BA401      0.0000 
     18 N6          1.0950    2.8290  -31.8380 N.pl3     1 2BA401      0.0000 
     19 N1          0.7600    1.5560  -33.7920 N.ar      1 2BA401      0.0000 
     20 C2         -0.0790    1.0250  -34.6630 C.ar      1 2BA401      0.0000 
     21 N3         -1.3730    1.1360  -34.6240 N.ar      1 2BA401      0.0000 
     22 C4         -1.9500    1.8480  -33.6490 C.ar      1 2BA401      0.0000 
     23 P1         -5.5440   -2.0140  -31.5620 P.3       1 2BA401      0.0000 
     24 O1P1       -6.4480   -3.1130  -31.6350 O.co2     1 2BA401      0.0000 
     25 O2P1       -4.2660   -2.2530  -31.9510 O.co2     1 2BA401      0.0000 
     26 O5'1       -5.5660   -1.5940  -30.0990 O.3       1 2BA401      0.0000 
     27 C5'1       -6.7500   -1.3490  -29.4160 C.3       1 2BA401      0.0000 
     28 C4'1       -6.4970   -0.6120  -28.0990 C.3       1 2BA401      0.0000 
     29 O4'1       -5.6090   -1.2930  -27.2720 O.3       1 2BA401      0.0000 
     30 C3'1       -5.9350    0.8110  -28.3000 C.3       1 2BA401      0.0000 
     31 O3'1       -6.8590    1.8100  -28.6560 O.3       1 2BA401      0.0000 
     32 C2'1       -5.3550    1.0340  -26.9470 C.3       1 2BA401      0.0000 
     33 O2'1       -6.3840    1.4390  -26.0930 O.3       1 2BA401      0.0000 
     34 C1'1       -4.8330   -0.3360  -26.5750 C.3       1 2BA401      0.0000 
     35 N91        -3.4440   -0.3830  -26.9990 N.pl3     1 2BA401      0.0000 
     36 C81        -3.0180   -0.8690  -28.1050 C.2       1 2BA401      0.0000 
     37 N71        -1.7120   -0.7220  -28.2720 N.2       1 2BA401      0.0000 
     38 C51        -1.2640   -0.1120  -27.1790 C.ar      1 2BA401      0.0000 
     39 C61         0.0440    0.3180  -26.6650 C.ar      1 2BA401      0.0000 
     40 N61         1.1700    0.1420  -27.3450 N.pl3     1 2BA401      0.0000 
     41 N11         0.0410    0.9070  -25.5030 N.ar      1 2BA401      0.0000 
     42 C21        -1.0420    1.0740  -24.8180 C.ar      1 2BA401      0.0000 
     43 N31        -2.2290    0.7150  -25.2200 N.ar      1 2BA401      0.0000 
     44 C41        -2.4070    0.1110  -26.3670 C.ar      1 2BA401      0.0000 
@<TRIPOS>BOND
     1    1    2 ar   
     2    1    3 ar   
     3    1    4 1    
     4    1   31 1    
     5    4    5 1    
     6    5    6 1    
     7    6    7 1    
     8    6    8 1    
     9    7   12 1    
    10    8    9 1    
    11    8   10 1    
    12    9   23 1    
    13   10   11 1    
    14   10   12 1    
    15   12   13 1    
    16   13   14 1    
    17   13   22 1    
    18   14   15 2    
    19   15   16 1    
    20   16   17 ar   
    21   16   22 ar   
    22   17   18 1    
    23   17   19 ar   
    24   19   20 ar   
    25   20   21 ar   
    26   21   22 ar   
    27   23   24 ar   
    28   23   25 ar   
    29   23   26 1    
    30   26   27 1    
    31   27   28 1    
    32   28   29 1    
    33   28   30 1    
    34   29   34 1    
    35   30   31 1    
    36   30   32 1    
    37   32   33 1    
    38   32   34 1    
    39   34   35 1    
    40   35   36 1    
    41   35   44 1    
    42   36   37 2    
    43   37   38 1    
    44   38   39 ar   
    45   38   44 ar   
    46   39   40 1    
    47   39   41 ar   
    48   41   42 ar   
    49   42   43 ar   
    50   43   44 ar   
@<TRIPOS>SUBSTRUCTURE
     1 2BA401      1 GROUP   
@<TRIPOS>SET

