#    Name: 6iyf_1_2BA_CAVITY_N1_4
#    Modification time : Fri May 22 19:25:27 2020

@<TRIPOS>MOLECULE
6iyf_1_2BA_CAVITY_N1_4
   74     0     6     0     0
SMALL
NO_CHARGES


@<TRIPOS>ATOM
      1 OG         -8.0200    1.2500  -31.0900 O.3       1 SER1        0.0000 
      2 OG         -6.9200    0.2500  -31.2800 O.3       1 SER1        0.0000 
      3 OG         -6.6600   -1.8000  -30.7900 O.3       1 SER1        0.0000 
      4 OG         -7.4400    1.6400  -29.7700 O.3       1 SER1        0.0000 
      5 OG         -7.1800   -0.4100  -29.2800 O.3       1 SER1        0.0000 
      6 OG         -6.0800   -1.4100  -29.4700 O.3       1 SER1        0.0000 
      7 OG         -7.1200    4.0800  -28.9200 O.3       1 SER1        0.0000 
      8 OG         -7.7000    0.9800  -27.7600 O.3       1 SER1        0.0000 
      9 OG         -6.2800    2.4200  -27.1100 O.3       1 SER1        0.0000 
     10 OG         -5.1800    1.4200  -27.3000 O.3       1 SER1        0.0000 
     11 OG         -6.0100    0.3700  -26.6300 O.3       1 SER1        0.0000 
     12 OG         -3.4900    0.8000  -26.1600 O.3       1 SER1        0.0000 
     13 OG         -4.3300   -0.2400  -25.4900 O.3       1 SER1        0.0000 
     14 N          -6.3500    3.3400  -32.4400 N.am      2 ALA2        0.0000 
     15 N          -7.1800    2.3000  -31.7700 N.am      2 ALA2        0.0000 
     16 N          -5.7600    3.7300  -31.1100 N.am      2 ALA2        0.0000 
     17 N          -3.8300    3.7800  -31.9800 N.am      2 ALA2        0.0000 
     18 N          -6.9100   -2.4600  -28.7900 N.am      2 ALA2        0.0000 
     19 N          -4.9800   -2.4100  -29.6600 N.am      2 ALA2        0.0000 
     20 N          -6.3300   -2.0700  -27.4700 N.am      2 ALA2        0.0000 
     21 N          -4.3900   -2.0200  -28.3300 N.am      2 ALA2        0.0000 
     22 N          -6.5400    4.4700  -27.6000 N.am      2 ALA2        0.0000 
     23 O          -7.3800    3.4200  -26.9200 O.2       2 ALA2        0.0000 
     24 OD1        -4.1500    1.3400  -32.8200 O.co2     3 ASP3        0.0000 
     25 OD1        -4.9800    0.2900  -32.1400 O.co2     3 ASP3        0.0000 
     26 OD1        -2.2100    1.3800  -33.6800 O.co2     3 ASP3        0.0000 
     27 OD1        -3.0500    0.3400  -33.0000 O.co2     3 ASP3        0.0000 
     28 OD1        -3.8800   -0.7100  -32.3300 O.co2     3 ASP3        0.0000 
     29 OD1        -4.7200   -1.7600  -31.6600 O.co2     3 ASP3        0.0000 
     30 OD1        -4.6600    2.7300  -31.3000 O.co2     3 ASP3        0.0000 
     31 OD1        -5.5000    1.6800  -30.6300 O.co2     3 ASP3        0.0000 
     32 OD1        -2.7300    2.7700  -32.1600 O.co2     3 ASP3        0.0000 
     33 OD1        -3.5600    1.7300  -31.4900 O.co2     3 ASP3        0.0000 
     34 OD1        -4.4000    0.6800  -30.8200 O.co2     3 ASP3        0.0000 
     35 OD1        -1.6300    1.7700  -32.3500 O.co2     3 ASP3        0.0000 
     36 OD1        -4.1400   -1.3700  -30.3300 O.co2     3 ASP3        0.0000 
     37 OD1        -6.0200    3.0700  -29.1100 O.co2     3 ASP3        0.0000 
     38 OD1        -4.9200    2.0700  -29.3000 O.co2     3 ASP3        0.0000 
     39 OD1        -5.7600    1.0300  -28.6300 O.co2     3 ASP3        0.0000 
     40 OD1        -3.8200    1.0700  -29.4900 O.co2     3 ASP3        0.0000 
     41 OD1        -4.6600    0.0200  -28.8100 O.co2     3 ASP3        0.0000 
     42 OD1        -3.5600   -0.9800  -29.0000 O.co2     3 ASP3        0.0000 
     43 OD1        -2.4600   -1.9800  -29.1900 O.co2     3 ASP3        0.0000 
     44 OD1        -5.4400    3.4600  -27.7900 O.co2     3 ASP3        0.0000 
     45 OD1        -4.0800    0.4100  -27.4900 O.co2     3 ASP3        0.0000 
     46 OD1        -2.1400    0.4600  -28.3500 O.co2     3 ASP3        0.0000 
     47 OD1        -1.0400   -0.5400  -28.5400 O.co2     3 ASP3        0.0000 
     48 CZ         -5.8300    1.9500  -33.9500 C.ar      4 PHE5        0.0000 
     49 CZ         -4.7300    0.9500  -34.1400 C.ar      4 PHE5        0.0000 
     50 CZ         -3.3100    2.3800  -33.4900 C.ar      4 PHE5        0.0000 
     51 CZ         -2.9800   -0.5900  -27.6800 C.ar      4 PHE5        0.0000 
     52 CZ         -1.8800   -1.5900  -27.8600 C.ar      4 PHE5        0.0000 
     53 CZ         -2.3900   -0.2000  -26.3500 C.ar      4 PHE5        0.0000 
     54 CZ         -0.4600   -0.1500  -27.2100 C.ar      4 PHE5        0.0000 
     55 CA         -7.7700    1.9100  -33.0900 C.3       5 GLY6        0.0000 
     56 CA         -6.6600    0.9000  -33.2800 C.3       5 GLY6        0.0000 
     57 CA         -7.5000   -0.1400  -32.6100 C.3       5 GLY6        0.0000 
     58 CA         -5.5600   -0.1000  -33.4700 C.3       5 GLY6        0.0000 
     59 CA         -6.4000   -1.1400  -32.7900 C.3       5 GLY6        0.0000 
     60 CA         -4.4600   -1.1000  -33.6600 C.3       5 GLY6        0.0000 
     61 CA         -5.2500    2.3400  -32.6300 C.3       5 GLY6        0.0000 
     62 CA         -5.5600   -2.8000  -30.9800 C.3       5 GLY6        0.0000 
     63 CA         -7.4300   -1.0700  -27.2800 C.3       5 GLY6        0.0000 
     64 CA         -4.9100   -0.6300  -26.8100 C.3       5 GLY6        0.0000 
     65 CA         -5.7500   -1.6800  -26.1400 C.3       5 GLY6        0.0000 
     66 CA         -3.8100   -1.6300  -27.0000 C.3       5 GLY6        0.0000 
     67 DU         -6.0800    1.2900  -31.9500 H         6 CUB7        0.0000 
     68 DU         -5.8200   -0.7500  -31.4700 H         6 CUB7        0.0000 
     69 DU         -6.6000    2.6900  -30.4400 H         6 CUB7        0.0000 
     70 DU         -6.3400    0.6400  -29.9500 H         6 CUB7        0.0000 
     71 DU         -5.2400   -0.3600  -30.1400 H         6 CUB7        0.0000 
     72 DU         -6.8600    2.0300  -28.4400 H         6 CUB7        0.0000 
     73 DU         -6.6000   -0.0200  -27.9500 H         6 CUB7        0.0000 
     74 DU         -5.4900   -1.0200  -28.1400 H         6 CUB7        0.0000 
@<TRIPOS>BOND
@<TRIPOS>SUBSTRUCTURE
     1 SER1        1 GROUP   
     2 ALA2       14 GROUP   
     3 ASP3       24 GROUP   
     4 PHE5       48 GROUP   
     5 GLY6       55 GROUP   
     6 CUB7       67 GROUP   
@<TRIPOS>SET

