#    Name: 5w9c_2_OHT
#    Modification time : Fri May 22 19:16:38 2020

@<TRIPOS>MOLECULE
5w9c_2_OHT
   29    31     1     0     0
SMALL
NO_CHARGES


@<TRIPOS>ATOM
      1 C10       -12.3140   -9.1470  -18.8060 C.3       1 OHT601      0.0000 
      2 C9        -13.6440   -9.7850  -19.2010 C.3       1 OHT601      0.0000 
      3 C8        -13.6350  -10.2870  -20.6530 C.2       1 OHT601      0.0000 
      4 C11       -12.8200  -11.5480  -20.7430 C.ar      1 OHT601      0.0000 
      5 C16       -12.9870  -12.5330  -19.8200 C.ar      1 OHT601      0.0000 
      6 C15       -12.2330  -13.7010  -19.9020 C.ar      1 OHT601      0.0000 
      7 C14       -11.2820  -13.8650  -20.9580 C.ar      1 OHT601      0.0000 
      8 C13       -11.1150  -12.8930  -21.8700 C.ar      1 OHT601      0.0000 
      9 C12       -11.8800  -11.7100  -21.7870 C.ar      1 OHT601      0.0000 
     10 C7        -15.0690  -10.5600  -21.1040 C.2       1 OHT601      0.0000 
     11 C1        -15.8050   -9.2470  -21.2930 C.ar      1 OHT601      0.0000 
     12 C2        -17.1560   -9.1420  -20.9300 C.ar      1 OHT601      0.0000 
     13 C3        -17.8390   -7.9270  -21.1040 C.ar      1 OHT601      0.0000 
     14 C4        -17.1700   -6.8190  -21.6420 C.ar      1 OHT601      0.0000 
     15 O4        -17.8450   -5.6150  -21.8150 O.3       1 OHT601      0.0000 
     16 C5        -15.8120   -6.9250  -22.0070 C.ar      1 OHT601      0.0000 
     17 C6        -15.1340   -8.1400  -21.8310 C.ar      1 OHT601      0.0000 
     18 C17       -15.0500  -11.3420  -22.4550 C.ar      1 OHT601      0.0000 
     19 C18       -15.2580  -10.6580  -23.6520 C.ar      1 OHT601      0.0000 
     20 C19       -15.2430  -11.3550  -24.8770 C.ar      1 OHT601      0.0000 
     21 C20       -15.0190  -12.7330  -24.8950 C.ar      1 OHT601      0.0000 
     22 O20       -15.0040  -13.4420  -26.1510 O.3       1 OHT601      0.0000 
     23 C23       -16.2240  -13.9730  -26.5190 C.3       1 OHT601      0.0000 
     24 C24       -16.0910  -14.5260  -27.9440 C.3       1 OHT601      0.0000 
     25 N24       -16.8520  -13.6650  -28.9150 N.4       1 OHT601      0.0000 
     26 C25       -16.2030  -12.4100  -29.0540 C.3       1 OHT601      0.0000 
     27 C26       -16.9210  -14.3010  -30.1700 C.3       1 OHT601      0.0000 
     28 C21       -14.8110  -13.4210  -23.7050 C.ar      1 OHT601      0.0000 
     29 C22       -14.8260  -12.7180  -22.4700 C.ar      1 OHT601      0.0000 
@<TRIPOS>BOND
     1    1    2 1    
     2    2    3 1    
     3    3    4 1    
     4    3   10 2    
     5    4    5 ar   
     6    4    9 ar   
     7    5    6 ar   
     8    6    7 ar   
     9    7    8 ar   
    10    8    9 ar   
    11   10   11 1    
    12   10   18 1    
    13   11   12 ar   
    14   11   17 ar   
    15   12   13 ar   
    16   13   14 ar   
    17   14   15 1    
    18   14   16 ar   
    19   16   17 ar   
    20   18   19 ar   
    21   18   29 ar   
    22   19   20 ar   
    23   20   21 ar   
    24   21   22 1    
    25   21   28 ar   
    26   22   23 1    
    27   23   24 1    
    28   24   25 1    
    29   25   26 1    
    30   25   27 1    
    31   28   29 ar   
@<TRIPOS>SUBSTRUCTURE
     1 OHT601      1 GROUP   
@<TRIPOS>SET

