#    Name: 5w9c_4_OHT
#    Modification time : Fri May 22 19:16:46 2020

@<TRIPOS>MOLECULE
5w9c_4_OHT
   29    31     1     0     0
SMALL
NO_CHARGES


@<TRIPOS>ATOM
      1 C10       -14.1530   39.8490   27.2540 C.3       1 OHT601      0.0000 
      2 C9        -15.4110   40.5740   26.8960 C.3       1 OHT601      0.0000 
      3 C8        -15.7520   40.2750   25.4610 C.2       1 OHT601      0.0000 
      4 C11       -16.3920   38.9140   25.4250 C.ar      1 OHT601      0.0000 
      5 C16       -16.1130   38.1050   24.3790 C.ar      1 OHT601      0.0000 
      6 C15       -16.6440   36.8510   24.2710 C.ar      1 OHT601      0.0000 
      7 C14       -17.5040   36.3920   25.2820 C.ar      1 OHT601      0.0000 
      8 C13       -17.7800   37.1680   26.3110 C.ar      1 OHT601      0.0000 
      9 C12       -17.2490   38.4410   26.4180 C.ar      1 OHT601      0.0000 
     10 C7        -16.6100   41.3720   24.8790 C.2       1 OHT601      0.0000 
     11 C1        -15.8610   42.6910   24.7240 C.ar      1 OHT601      0.0000 
     12 C2        -14.5050   42.8950   24.9540 C.ar      1 OHT601      0.0000 
     13 C3        -13.9780   44.1650   24.8150 C.ar      1 OHT601      0.0000 
     14 C4        -14.7840   45.2480   24.4730 C.ar      1 OHT601      0.0000 
     15 O4        -14.3540   46.5140   24.2790 O.3       1 OHT601      0.0000 
     16 C5        -16.1210   45.0160   24.2690 C.ar      1 OHT601      0.0000 
     17 C6        -16.6560   43.7670   24.4090 C.ar      1 OHT601      0.0000 
     18 C17       -17.3550   40.9900   23.5700 C.ar      1 OHT601      0.0000 
     19 C18       -18.5810   40.4190   23.6310 C.ar      1 OHT601      0.0000 
     20 C19       -19.2570   40.1030   22.4750 C.ar      1 OHT601      0.0000 
     21 C20       -18.7420   40.3580   21.2290 C.ar      1 OHT601      0.0000 
     22 O20       -19.4570   40.0110   20.0520 O.3       1 OHT601      0.0000 
     23 C23       -20.2380   40.9760   19.6440 C.3       1 OHT601      0.0000 
     24 C24       -20.8610   40.6360   18.3200 C.3       1 OHT601      0.0000 
     25 N24       -20.4420   41.6130   17.2940 N.4       1 OHT601      0.0000 
     26 C25       -19.0620   41.6820   17.1410 C.3       1 OHT601      0.0000 
     27 C26       -20.9690   41.3140   16.0680 C.3       1 OHT601      0.0000 
     28 C21       -17.5240   40.9300   21.1570 C.ar      1 OHT601      0.0000 
     29 C22       -16.8360   41.2700   22.3290 C.ar      1 OHT601      0.0000 
@<TRIPOS>BOND
     1    1    2 1    
     2    2    3 1    
     3    3    4 1    
     4    3   10 2    
     5    4    5 ar   
     6    4    9 ar   
     7    5    6 ar   
     8    6    7 ar   
     9    7    8 ar   
    10    8    9 ar   
    11   10   11 1    
    12   10   18 1    
    13   11   12 ar   
    14   11   17 ar   
    15   12   13 ar   
    16   13   14 ar   
    17   14   15 1    
    18   14   16 ar   
    19   16   17 ar   
    20   18   19 ar   
    21   18   29 ar   
    22   19   20 ar   
    23   20   21 ar   
    24   21   22 1    
    25   21   28 ar   
    26   22   23 1    
    27   23   24 1    
    28   24   25 1    
    29   25   26 1    
    30   25   27 1    
    31   28   29 ar   
@<TRIPOS>SUBSTRUCTURE
     1 OHT601      1 GROUP   
@<TRIPOS>SET

