#    Name: 5w9c_1_OHT
#    Modification time : Fri May 22 19:16:34 2020

@<TRIPOS>MOLECULE
5w9c_1_OHT
   29    31     1     0     0
SMALL
NO_CHARGES


@<TRIPOS>ATOM
      1 C10        12.4250   -9.1760  -31.9710 C.3       1 OHT601      0.0000 
      2 C9         13.6900   -9.8550  -31.6000 C.3       1 OHT601      0.0000 
      3 C8         13.5840  -10.3800  -30.1910 C.2       1 OHT601      0.0000 
      4 C11        12.7340  -11.6020  -30.2010 C.ar      1 OHT601      0.0000 
      5 C16        11.9080  -11.7300  -29.1630 C.ar      1 OHT601      0.0000 
      6 C15        11.0690  -12.7990  -29.0920 C.ar      1 OHT601      0.0000 
      7 C14        11.1020  -13.7390  -30.1350 C.ar      1 OHT601      0.0000 
      8 C13        11.9060  -13.6060  -31.1750 C.ar      1 OHT601      0.0000 
      9 C12        12.7550  -12.5290  -31.2360 C.ar      1 OHT601      0.0000 
     10 C7         14.9590  -10.5820  -29.6200 C.2       1 OHT601      0.0000 
     11 C1         15.7430   -9.2910  -29.5190 C.ar      1 OHT601      0.0000 
     12 C2         17.0880   -9.3490  -29.2680 C.ar      1 OHT601      0.0000 
     13 C3         17.8600   -8.2200  -29.1470 C.ar      1 OHT601      0.0000 
     14 C4         17.2980   -6.9780  -29.3070 C.ar      1 OHT601      0.0000 
     15 O4         18.0600   -5.8600  -29.1940 O.3       1 OHT601      0.0000 
     16 C5         15.9220   -6.9300  -29.5770 C.ar      1 OHT601      0.0000 
     17 C6         15.1640   -8.0630  -29.6590 C.ar      1 OHT601      0.0000 
     18 C17        15.0270  -11.3540  -28.2860 C.ar      1 OHT601      0.0000 
     19 C18        14.9300  -10.7830  -27.0460 C.ar      1 OHT601      0.0000 
     20 C19        15.0200  -11.5860  -25.9090 C.ar      1 OHT601      0.0000 
     21 C20        15.2520  -12.9300  -25.9850 C.ar      1 OHT601      0.0000 
     22 O20        15.0200  -13.7100  -24.8420 O.3       1 OHT601      0.0000 
     23 C23        16.2360  -13.8600  -24.2580 C.3       1 OHT601      0.0000 
     24 C24        16.1300  -13.4050  -23.0040 C.3       1 OHT601      0.0000 
     25 N24        16.8470  -14.0370  -21.8790 N.4       1 OHT601      0.0000 
     26 C25        16.7200  -15.3720  -21.5210 C.3       1 OHT601      0.0000 
     27 C26        16.4540  -13.1360  -20.8290 C.3       1 OHT601      0.0000 
     28 C21        15.3710  -13.4840  -27.2220 C.ar      1 OHT601      0.0000 
     29 C22        15.2510  -12.6890  -28.3650 C.ar      1 OHT601      0.0000 
@<TRIPOS>BOND
     1    1    2 1    
     2    2    3 1    
     3    3    4 1    
     4    3   10 2    
     5    4    5 ar   
     6    4    9 ar   
     7    5    6 ar   
     8    6    7 ar   
     9    7    8 ar   
    10    8    9 ar   
    11   10   11 1    
    12   10   18 1    
    13   11   12 ar   
    14   11   17 ar   
    15   12   13 ar   
    16   13   14 ar   
    17   14   15 1    
    18   14   16 ar   
    19   16   17 ar   
    20   18   19 ar   
    21   18   29 ar   
    22   19   20 ar   
    23   20   21 ar   
    24   21   22 1    
    25   21   28 ar   
    26   22   23 1    
    27   23   24 1    
    28   24   25 1    
    29   25   26 1    
    30   25   27 1    
    31   28   29 ar   
@<TRIPOS>SUBSTRUCTURE
     1 OHT601      1 GROUP   
@<TRIPOS>SET

