#    Name: 5w9c_3_OHT
#    Modification time : Fri May 22 19:16:43 2020

@<TRIPOS>MOLECULE
5w9c_3_OHT
   29    31     1     0     0
SMALL
NO_CHARGES


@<TRIPOS>ATOM
      1 C10        -1.7950   18.2090   14.1210 C.3       1 OHT601      0.0000 
      2 C9         -1.5980   16.8100   14.5680 C.3       1 OHT601      0.0000 
      3 C8         -2.1290   16.6680   15.9700 C.2       1 OHT601      0.0000 
      4 C11        -3.6110   16.7720   15.9720 C.ar      1 OHT601      0.0000 
      5 C16        -4.1610   17.4730   16.9810 C.ar      1 OHT601      0.0000 
      6 C15        -5.5140   17.6590   17.0530 C.ar      1 OHT601      0.0000 
      7 C14        -6.3240   17.0910   16.0310 C.ar      1 OHT601      0.0000 
      8 C13        -5.7830   16.4170   15.0240 C.ar      1 OHT601      0.0000 
      9 C12        -4.4090   16.2410   14.9800 C.ar      1 OHT601      0.0000 
     10 C7         -1.6010   15.3970   16.5510 C.2       1 OHT601      0.0000 
     11 C1         -0.1080   15.3480   16.6920 C.ar      1 OHT601      0.0000 
     12 C2          0.7770   16.3810   16.4870 C.ar      1 OHT601      0.0000 
     13 C3          2.1440   16.1740   16.6180 C.ar      1 OHT601      0.0000 
     14 C4          2.6310   14.9410   16.9980 C.ar      1 OHT601      0.0000 
     15 O4          3.9520   14.6570   17.1830 O.3       1 OHT601      0.0000 
     16 C5          1.7240   13.9240   17.1890 C.ar      1 OHT601      0.0000 
     17 C6          0.3910   14.1420   17.0390 C.ar      1 OHT601      0.0000 
     18 C17        -2.3360   14.9710   17.8360 C.ar      1 OHT601      0.0000 
     19 C18        -3.4650   14.1990   17.6930 C.ar      1 OHT601      0.0000 
     20 C19        -4.1720   13.7550   18.7750 C.ar      1 OHT601      0.0000 
     21 C20        -3.7190   14.0790   20.0090 C.ar      1 OHT601      0.0000 
     22 O20        -4.4250   13.6430   21.1200 O.3       1 OHT601      0.0000 
     23 C23        -3.9510   12.5670   21.6730 C.3       1 OHT601      0.0000 
     24 C24        -4.0540   13.0080   23.0690 C.3       1 OHT601      0.0000 
     25 N24        -3.4010   12.0380   23.9290 N.4       1 OHT601      0.0000 
     26 C25        -4.2620   11.7880   24.9980 C.3       1 OHT601      0.0000 
     27 C26        -2.2740   12.6670   24.4250 C.3       1 OHT601      0.0000 
     28 C21        -2.5970   14.8100   20.1990 C.ar      1 OHT601      0.0000 
     29 C22        -1.8770   15.2600   19.0950 C.ar      1 OHT601      0.0000 
@<TRIPOS>BOND
     1    1    2 1    
     2    2    3 1    
     3    3    4 1    
     4    3   10 2    
     5    4    5 ar   
     6    4    9 ar   
     7    5    6 ar   
     8    6    7 ar   
     9    7    8 ar   
    10    8    9 ar   
    11   10   11 1    
    12   10   18 1    
    13   11   12 ar   
    14   11   17 ar   
    15   12   13 ar   
    16   13   14 ar   
    17   14   15 1    
    18   14   16 ar   
    19   16   17 ar   
    20   18   19 ar   
    21   18   29 ar   
    22   19   20 ar   
    23   20   21 ar   
    24   21   22 1    
    25   21   28 ar   
    26   22   23 1    
    27   23   24 1    
    28   24   25 1    
    29   25   26 1    
    30   25   27 1    
    31   28   29 ar   
@<TRIPOS>SUBSTRUCTURE
     1 OHT601      1 GROUP   
@<TRIPOS>SET

