#    Name: 6gqt_5_GNP
#    Modification time : Fri May 22 19:25:20 2020

@<TRIPOS>MOLECULE
6gqt_5_GNP
   32    34     1     0     1
SMALL
NO_CHARGES


@<TRIPOS>ATOM
      1 PG         36.9900   99.0940   58.6630 P.3       1 GNP201      0.0000 
      2 O1G        36.6480   99.7850   57.2900 O.co2     1 GNP201      0.0000 
      3 O2G        37.0680   97.6590   58.5350 O.co2     1 GNP201      0.0000 
      4 O3G        35.7490   99.4630   59.5580 O.co2     1 GNP201      0.0000 
      5 N3B        38.4220   99.7610   59.3940 N.3       1 GNP201      0.0000 
      6 PB         39.8180  100.0740   58.4440 P.3       1 GNP201      0.0000 
      7 O1B        39.3930  100.4230   57.1720 O.co2     1 GNP201      0.0000 
      8 O2B        40.6430   98.7940   58.4080 O.co2     1 GNP201      0.0000 
      9 O3A        40.7040  101.2040   59.0590 O.3       1 GNP201      0.0000 
     10 PA         40.7880  102.7250   58.7040 P.3       1 GNP201      0.0000 
     11 O1A        41.4780  102.9240   57.4630 O.co2     1 GNP201      0.0000 
     12 O2A        39.5040  103.3020   58.8470 O.co2     1 GNP201      0.0000 
     13 O5'        41.6980  103.2840   59.8080 O.3       1 GNP201      0.0000 
     14 C5'        41.3930  103.1760   61.1800 C.3       1 GNP201      0.0000 
     15 C4'        42.1010  104.2190   62.0340 C.3       1 GNP201      0.0000 
     16 O4'        43.4880  103.9980   62.1040 O.3       1 GNP201      0.0000 
     17 C3'        41.9350  105.6000   61.4950 C.3       1 GNP201      0.0000 
     18 O3'        41.8400  106.4690   62.5990 O.3       1 GNP201      0.0000 
     19 C2'        43.2400  105.8710   60.7910 C.3       1 GNP201      0.0000 
     20 O2'        43.5840  107.2370   60.7810 O.3       1 GNP201      0.0000 
     21 C1'        44.2270  105.0600   61.5950 C.3       1 GNP201      0.0000 
     22 N9         45.3490  104.5450   60.7750 N.pl3     1 GNP201      0.0000 
     23 C8         45.2550  103.7840   59.6910 C.2       1 GNP201      0.0000 
     24 N7         46.4510  103.5130   59.2020 N.2       1 GNP201      0.0000 
     25 C5         47.3560  104.0730   59.9720 C.2       1 GNP201      0.0000 
     26 C6         48.8190  104.1400   60.0290 C.2       1 GNP201      0.0000 
     27 O6         49.5230  103.5940   59.1950 O.2       1 GNP201      0.0000 
     28 N1         49.3570  104.8180   61.0190 N.am      1 GNP201      0.0000 
     29 C2         48.6320  105.4430   61.9340 C.2       1 GNP201      0.0000 
     30 N2         49.2520  106.1230   62.8980 N.pl3     1 GNP201      0.0000 
     31 N3         47.3060  105.4010   61.9600 N.2       1 GNP201      0.0000 
     32 C4         46.6210  104.7450   61.0250 C.2       1 GNP201      0.0000 
@<TRIPOS>BOND
     1    1    2 ar   
     2    1    3 ar   
     3    1    4 ar   
     4    1    5 1    
     5    5    6 1    
     6    6    7 ar   
     7    6    8 ar   
     8    6    9 1    
     9    9   10 1    
    10   10   11 ar   
    11   10   12 ar   
    12   10   13 1    
    13   13   14 1    
    14   14   15 1    
    15   15   16 1    
    16   15   17 1    
    17   16   21 1    
    18   17   18 1    
    19   17   19 1    
    20   19   20 1    
    21   19   21 1    
    22   21   22 1    
    23   22   23 1    
    24   22   32 1    
    25   23   24 2    
    26   24   25 1    
    27   25   26 1    
    28   25   32 2    
    29   26   27 2    
    30   26   28 am   
    31   28   29 1    
    32   29   30 1    
    33   29   31 2    
    34   31   32 1    
@<TRIPOS>SUBSTRUCTURE
     1 GNP201      1 GROUP   
@<TRIPOS>SET
ATOM$ORANGE STATIC     ATOMS   COLORGROUP SYSTEM 
20 14 14 15 15 17 17 19 19 21 21 23 23 25 25 26 26 29 \
29 32 32 

