#    Name: 6gqt_5_GNP_CAVITY_N1_ALL
#    Modification time : Fri May 22 19:25:22 2020

@<TRIPOS>MOLECULE
6gqt_5_GNP_CAVITY_N1_ALL
   71     0     5     0     0
SMALL
NO_CHARGES


@<TRIPOS>ATOM
      1 N          33.4400   97.8200   58.3000 N.am      1 ALA2        0.0000 
      2 O          34.7200   97.1200   59.8300 O.2       1 ALA2        0.0000 
      3 O          35.9200   97.4600   58.9900 O.2       1 ALA2        0.0000 
      4 O          35.3000   98.7800   58.6500 O.2       1 ALA2        0.0000 
      5 O          37.7800   98.4100   59.3400 O.2       1 ALA2        0.0000 
      6 O          39.0200  100.6900   59.3500 O.2       1 ALA2        0.0000 
      7 O          40.2200  101.0300   58.5100 O.2       1 ALA2        0.0000 
      8 O          40.8800  101.6500   59.7000 O.2       1 ALA2        0.0000 
      9 N          39.6500  104.3000   59.0200 N.am      1 ALA2        0.0000 
     10 N          40.8500  104.6400   58.1700 N.am      1 ALA2        0.0000 
     11 N          41.5500  102.2700   60.8900 N.am      1 ALA2        0.0000 
     12 N          40.3200  104.9200   60.2100 N.am      1 ALA2        0.0000 
     13 N          41.5100  105.2500   59.3700 N.am      1 ALA2        0.0000 
     14 N          42.2200  102.8900   62.0900 N.am      1 ALA2        0.0000 
     15 N          40.9900  105.5300   61.4000 N.am      1 ALA2        0.0000 
     16 N          42.1800  105.8700   60.5600 N.am      1 ALA2        0.0000 
     17 N          43.3700  106.2100   59.7200 N.am      1 ALA2        0.0000 
     18 N          41.6500  106.1500   62.6000 N.am      1 ALA2        0.0000 
     19 N          42.8500  106.4900   61.7500 N.am      1 ALA2        0.0000 
     20 N          44.0400  106.8300   60.9100 N.am      1 ALA2        0.0000 
     21 N          42.3200  106.7700   63.7900 N.am      1 ALA2        0.0000 
     22 OD1        37.1100   97.7900   58.1500 O.co2     2 ASP3        0.0000 
     23 OD1        36.5000   99.1200   57.8100 O.co2     2 ASP3        0.0000 
     24 OD1        38.9700   98.7500   58.5000 O.co2     2 ASP3        0.0000 
     25 OD1        37.1600   99.7400   59.0000 O.co2     2 ASP3        0.0000 
     26 OD1        38.3600  100.0700   58.1600 O.co2     2 ASP3        0.0000 
     27 OD1        39.6000  102.3600   58.1700 O.co2     2 ASP3        0.0000 
     28 OD1        43.4100  103.2200   61.2400 O.co2     2 ASP3        0.0000 
     29 OD1        42.8900  103.5000   63.2800 O.co2     2 ASP3        0.0000 
     30 OD1        44.0800  103.8400   62.4400 O.co2     2 ASP3        0.0000 
     31 CZ         35.9700   99.4000   59.8400 C.ar      3 PHE5        0.0000 
     32 CZ         37.8300  100.3500   60.1900 C.ar      3 PHE5        0.0000 
     33 CZ         39.0700  102.6400   60.2000 C.ar      3 PHE5        0.0000 
     34 CZ         40.2700  102.9700   59.3600 C.ar      3 PHE5        0.0000 
     35 CZ         40.9400  103.5900   60.5500 C.ar      3 PHE5        0.0000 
     36 CZ         41.6000  104.2100   61.7400 C.ar      3 PHE5        0.0000 
     37 CZ         47.6600  104.8600   59.9100 C.ar      3 PHE5        0.0000 
     38 CZ         41.0800  104.4900   63.7800 C.ar      3 PHE5        0.0000 
     39 CZ         44.6600  105.5000   61.2500 C.ar      3 PHE5        0.0000 
     40 CZ         45.8500  105.8400   60.4100 C.ar      3 PHE5        0.0000 
     41 CZ         48.3300  105.4700   61.1000 C.ar      3 PHE5        0.0000 
     42 CZ         46.5200  106.4600   61.6000 C.ar      3 PHE5        0.0000 
     43 CA         34.1100   98.4400   59.4900 C.3       4 GLY6        0.0000 
     44 CA         35.3900   97.7400   61.0300 C.3       4 GLY6        0.0000 
     45 CA         36.5800   98.0700   60.1800 C.3       4 GLY6        0.0000 
     46 CA         34.7700   99.0600   60.6900 C.3       4 GLY6        0.0000 
     47 CA         36.5500  101.0600   58.6600 C.3       4 GLY6        0.0000 
     48 CA         39.6900  101.3100   60.5400 C.3       4 GLY6        0.0000 
     49 CA         41.4600  103.3100   58.5200 C.3       4 GLY6        0.0000 
     50 CA         40.3600  101.9300   61.7400 C.3       4 GLY6        0.0000 
     51 CA         42.7500  102.6100   60.0500 C.3       4 GLY6        0.0000 
     52 CA         43.3200  104.2700   58.8700 C.3       4 GLY6        0.0000 
     53 CA         42.7100  105.5900   58.5200 C.3       4 GLY6        0.0000 
     54 CA         44.6100  103.5600   60.4000 C.3       4 GLY6        0.0000 
     55 CA         45.8000  103.9000   59.5600 C.3       4 GLY6        0.0000 
     56 CA         46.9900  104.2400   58.7100 C.3       4 GLY6        0.0000 
     57 CA         43.9900  104.8900   60.0600 C.3       4 GLY6        0.0000 
     58 CA         45.1800  105.2200   59.2200 C.3       4 GLY6        0.0000 
     59 CA         47.0800  103.1900   61.0900 C.3       4 GLY6        0.0000 
     60 CA         48.2800  103.5300   60.2500 C.3       4 GLY6        0.0000 
     61 CA         45.2700  104.1800   61.5900 C.3       4 GLY6        0.0000 
     62 CA         46.4700  104.5200   60.7500 C.3       4 GLY6        0.0000 
     63 CA         40.4600  105.8100   63.4400 C.3       4 GLY6        0.0000 
     64 CA         47.7500  103.8100   62.2800 C.3       4 GLY6        0.0000 
     65 CA         48.9400  104.1500   61.4400 C.3       4 GLY6        0.0000 
     66 CA         47.1300  105.1400   61.9400 C.3       4 GLY6        0.0000 
     67 DU         42.1300  103.9300   59.7100 H         5 CUB7        0.0000 
     68 DU         42.8000  104.5500   60.9000 H         5 CUB7        0.0000 
     69 DU         42.2700  104.8300   62.9400 H         5 CUB7        0.0000 
     70 DU         43.4600  105.1700   62.0900 H         5 CUB7        0.0000 
     71 DU         44.1300  105.7800   63.2900 H         5 CUB7        0.0000 
@<TRIPOS>BOND
@<TRIPOS>SUBSTRUCTURE
     1 ALA2        1 GROUP   
     2 ASP3       22 GROUP   
     3 PHE5       31 GROUP   
     4 GLY6       43 GROUP   
     5 CUB7       67 GROUP   
@<TRIPOS>SET

