#    Name: 6ile_1_ASP_PHE_ALA_ASN_THR_PHE_LEU_PRO
#    Modification time : Fri May 22 19:24:21 2020

@<TRIPOS>MOLECULE
6ile_1_ASP_PHE_ALA_ASN_THR_PHE_LEU_PRO
   66    68     8     0     0
SMALL
NO_CHARGES


@<TRIPOS>ATOM
      1 N         -22.7970  -17.7760    0.3810 N.4       1 ASP1        0.0000 
      2 CA        -23.5880  -18.6130   -0.5140 C.3       1 ASP1        0.0000 
      3 C         -24.6380  -19.4020    0.2620 C.2       1 ASP1        0.0000 
      4 O         -24.3130  -20.3540    0.9710 O.2       1 ASP1        0.0000 
      5 CB        -22.6820  -19.5660   -1.2960 C.3       1 ASP1        0.0000 
      6 CG        -22.9590  -19.5430   -2.7870 C.2       1 ASP1        0.0000 
      7 OD1       -23.9430  -18.8930   -3.2010 O.co2     1 ASP1        0.0000 
      8 OD2       -22.1930  -20.1740   -3.5450 O.co2     1 ASP1        0.0000 
      9 N         -25.8990  -18.9970    0.1210 N.am      2 PHE2        0.0000 
     10 CA        -26.9850  -19.6510    0.8360 C.3       2 PHE2        0.0000 
     11 C         -27.1610  -21.0890    0.3600 C.2       2 PHE2        0.0000 
     12 O         -26.8310  -21.4390   -0.7760 O.2       2 PHE2        0.0000 
     13 CB        -28.2910  -18.8780    0.6480 C.3       2 PHE2        0.0000 
     14 CG        -28.2040  -17.4310    1.0430 C.ar      2 PHE2        0.0000 
     15 CD1       -27.9920  -17.0710    2.3640 C.ar      2 PHE2        0.0000 
     16 CD2       -28.3380  -16.4310    0.0940 C.ar      2 PHE2        0.0000 
     17 CE1       -27.9130  -15.7400    2.7310 C.ar      2 PHE2        0.0000 
     18 CE2       -28.2590  -15.0980    0.4550 C.ar      2 PHE2        0.0000 
     19 CZ        -28.0470  -14.7530    1.7760 C.ar      2 PHE2        0.0000 
     20 N         -27.6930  -21.9250    1.2490 N.am      3 ALA3        0.0000 
     21 CA        -27.9260  -23.3270    0.9470 C.3       3 ALA3        0.0000 
     22 C         -29.3260  -23.5190    0.3670 C.2       3 ALA3        0.0000 
     23 O         -30.1100  -22.5760    0.2330 O.2       3 ALA3        0.0000 
     24 CB        -27.7280  -24.1800    2.1980 C.3       3 ALA3        0.0000 
     25 N         -29.6440  -24.7630    0.0150 N.am      4 ASN4        0.0000 
     26 CA        -30.9660  -25.0880   -0.5060 C.3       4 ASN4        0.0000 
     27 C         -32.0070  -24.9080    0.5920 C.2       4 ASN4        0.0000 
     28 O         -31.9160  -25.5340    1.6530 O.2       4 ASN4        0.0000 
     29 CB        -30.9880  -26.5200   -1.0360 C.3       4 ASN4        0.0000 
     30 CG        -30.2290  -26.6720   -2.3410 C.2       4 ASN4        0.0000 
     31 OD1       -29.0990  -26.2040   -2.4730 O.2       4 ASN4        0.0000 
     32 ND2       -30.8500  -27.3320   -3.3120 N.am      4 ASN4        0.0000 
     33 N         -32.9950  -24.0520    0.3410 N.am      5 THR5        0.0000 
     34 CA        -34.0310  -23.7510    1.3240 C.3       5 THR5        0.0000 
     35 C         -35.1370  -24.7970    1.2150 C.2       5 THR5        0.0000 
     36 O         -35.8750  -24.8380    0.2250 O.2       5 THR5        0.0000 
     37 CB        -34.5700  -22.3350    1.1250 C.3       5 THR5        0.0000 
     38 OG1       -35.7850  -22.1720    1.8670 O.3       5 THR5        0.0000 
     39 CG2       -34.8160  -22.0390   -0.3550 C.3       5 THR5        0.0000 
     40 N         -35.2460  -25.6480    2.2320 N.am      6 PHE6        0.0000 
     41 CA        -36.2440  -26.7070    2.2500 C.3       6 PHE6        0.0000 
     42 C         -37.5330  -26.2050    2.8880 C.2       6 PHE6        0.0000 
     43 O         -37.5080  -25.5200    3.9150 O.2       6 PHE6        0.0000 
     44 CB        -35.7190  -27.9290    3.0050 C.3       6 PHE6        0.0000 
     45 CG        -34.3900  -28.4230    2.5060 C.ar      6 PHE6        0.0000 
     46 CD1       -33.3940  -28.7920    3.3960 C.ar      6 PHE6        0.0000 
     47 CD2       -34.1350  -28.5150    1.1470 C.ar      6 PHE6        0.0000 
     48 CE1       -32.1690  -29.2450    2.9390 C.ar      6 PHE6        0.0000 
     49 CE2       -32.9130  -28.9680    0.6850 C.ar      6 PHE6        0.0000 
     50 CZ        -31.9290  -29.3330    1.5820 C.ar      6 PHE6        0.0000 
     51 N         -38.6590  -26.5540    2.2700 N.am      7 LEU7        0.0000 
     52 CA        -39.9580  -26.0700    2.7150 C.3       7 LEU7        0.0000 
     53 C         -40.5250  -27.0030    3.7770 C.2       7 LEU7        0.0000 
     54 O         -40.6980  -28.1990    3.5040 O.2       7 LEU7        0.0000 
     55 CB        -40.9200  -25.9720    1.5420 C.3       7 LEU7        0.0000 
     56 CG        -42.4210  -26.0050    1.8400 C.3       7 LEU7        0.0000 
     57 CD1       -42.8570  -24.7610    2.5960 C.3       7 LEU7        0.0000 
     58 CD2       -43.2160  -26.1560    0.5530 C.3       7 LEU7        0.0000 
     59 N         -40.8200  -26.5130    4.9910 N.am      8 PRO8        0.0000 
     60 CA        -41.4650  -27.3170    6.0330 C.3       8 PRO8        0.0000 
     61 C         -42.9500  -27.5230    5.7510 C.2       8 PRO8        0.0000 
     62 O         -43.4950  -28.6090    5.9480 O.2       8 PRO8        0.0000 
     63 CB        -41.2630  -26.4820    7.3070 C.3       8 PRO8        0.0000 
     64 CG        -40.2760  -25.4030    6.9370 C.3       8 PRO8        0.0000 
     65 CD        -40.4720  -25.1700    5.4790 C.3       8 PRO8        0.0000 
     66 OXT       -43.6380  -26.6000    5.3130 O.3       8 PRO8        0.0000 
@<TRIPOS>BOND
     1   34   37 1    
     2   35   36 2    
     3   35   40 am   
     4   37   38 1    
     5   37   39 1    
     6   40   41 1    
     7   41   42 1    
     8   41   44 1    
     9   42   43 2    
    10   42   51 am   
    11   44   45 1    
    12   45   46 ar   
    13   45   47 ar   
    14   46   48 ar   
    15   47   49 ar   
    16   48   50 ar   
    17   49   50 ar   
    18   51   52 1    
    19   52   53 1    
    20   52   55 1    
    21   53   54 2    
    22   53   59 am   
    23   55   56 1    
    24   56   57 1    
    25   56   58 1    
    26   59   60 1    
    27   59   65 1    
    28   60   61 1    
    29   60   63 1    
    30   61   62 2    
    31   61   66 1    
    32   63   64 1    
    33   64   65 1    
    34    1    2 1    
    35    2    3 1    
    36    2    5 1    
    37    3    4 2    
    38    3    9 am   
    39    5    6 1    
    40    6    7 ar   
    41    6    8 ar   
    42    9   10 1    
    43   10   11 1    
    44   10   13 1    
    45   11   12 2    
    46   11   20 am   
    47   13   14 1    
    48   14   15 ar   
    49   14   16 ar   
    50   15   17 ar   
    51   16   18 ar   
    52   17   19 ar   
    53   18   19 ar   
    54   20   21 1    
    55   21   22 1    
    56   21   24 1    
    57   22   23 2    
    58   22   25 am   
    59   25   26 1    
    60   26   27 1    
    61   26   29 1    
    62   27   28 2    
    63   27   33 am   
    64   29   30 1    
    65   30   31 2    
    66   30   32 am   
    67   33   34 1    
    68   34   35 1    
@<TRIPOS>SUBSTRUCTURE
     1 ASP1        1 RESIDUE 
     2 PHE2        9 RESIDUE 
     3 ALA3       20 RESIDUE 
     4 ASN4       25 RESIDUE 
     5 THR5       33 RESIDUE 
     6 PHE6       40 RESIDUE 
     7 LEU7       51 RESIDUE 
     8 PRO8       59 RESIDUE 
@<TRIPOS>SET

