#    Name: 6ile_1_ASP_PHE_ALA_ASN_THR_PHE_LEU_PRO_CAVITY_N1_12
#    Modification time : Fri May 22 19:24:24 2020

@<TRIPOS>MOLECULE
6ile_1_ASP_PHE_ALA_ASN_THR_PHE_LEU_PRO_CAVITY_N1_12
   97     0     7     0     0
SMALL
NO_CHARGES


@<TRIPOS>ATOM
      1 OG        -37.7000  -24.8000    1.3900 O.3       1 SER1        0.0000 
      2 OG        -42.1300  -27.7400    6.8900 O.3       1 SER1        0.0000 
      3 OG        -39.4800  -24.5900    2.5300 O.3       1 SER1        0.0000 
      4 OG        -36.4900  -25.8000    3.4700 O.3       1 SER1        0.0000 
      5 OG        -36.9400  -24.0100    2.4200 O.3       1 SER1        0.0000 
      6 OG        -41.3700  -26.9400    7.9200 O.3       1 SER1        0.0000 
      7 OG        -38.7200  -23.7900    3.5500 O.3       1 SER1        0.0000 
      8 OG        -35.0800  -24.2200    3.4000 O.3       1 SER1        0.0000 
      9 OG        -37.5200  -24.7900    5.6300 O.3       1 SER1        0.0000 
     10 O         -43.4200  -26.7500    2.7000 O.2       2 ALA2        0.0000 
     11 O         -38.6600  -28.1700    2.5000 O.2       2 ALA2        0.0000 
     12 O         -41.1000  -28.7400    4.7300 O.2       2 ALA2        0.0000 
     13 O         -40.4400  -27.9500    3.6400 O.2       2 ALA2        0.0000 
     14 O         -39.7700  -27.1700    2.5400 O.2       2 ALA2        0.0000 
     15 O         -43.3300  -26.7400    4.8200 O.2       2 ALA2        0.0000 
     16 O         -42.6700  -25.9500    3.7200 O.2       2 ALA2        0.0000 
     17 N         -42.0100  -25.1700    2.6300 N.am      2 ALA2        0.0000 
     18 N         -41.3400  -24.3800    1.5400 N.am      2 ALA2        0.0000 
     19 N         -43.1200  -24.1600    2.6800 N.am      2 ALA2        0.0000 
     20 N         -32.1100  -29.8000    1.1700 N.am      2 ALA2        0.0000 
     21 O         -36.7900  -28.3800    3.4800 O.2       2 ALA2        0.0000 
     22 O         -37.9000  -27.3800    3.5300 O.2       2 ALA2        0.0000 
     23 O         -40.3500  -27.9500    5.7500 O.2       2 ALA2        0.0000 
     24 O         -39.6800  -27.1600    4.6600 O.2       2 ALA2        0.0000 
     25 O         -39.0200  -26.3700    3.5700 O.2       2 ALA2        0.0000 
     26 N         -41.2500  -24.3700    3.6600 N.am      2 ALA2        0.0000 
     27 N         -32.0300  -29.8000    3.2900 N.am      2 ALA2        0.0000 
     28 N         -31.3600  -29.0100    2.2000 N.am      2 ALA2        0.0000 
     29 N         -40.5000  -23.5800    4.6900 N.am      2 ALA2        0.0000 
     30 OD1       -42.3000  -27.7500    2.6500 O.co2     3 ASP3        0.0000 
     31 OD1       -42.2100  -27.7400    4.7700 O.co2     3 ASP3        0.0000 
     32 OD1       -32.4800  -28.0100    2.2400 O.co2     3 ASP3        0.0000 
     33 OD1       -34.2600  -27.8000    3.3800 O.co2     3 ASP3        0.0000 
     34 OD1       -33.6000  -27.0100    2.2800 O.co2     3 ASP3        0.0000 
     35 OD1       -32.9300  -26.2200    1.1900 O.co2     3 ASP3        0.0000 
     36 OD1       -32.3900  -28.0100    4.3600 O.co2     3 ASP3        0.0000 
     37 OD1       -33.5100  -27.0000    4.4000 O.co2     3 ASP3        0.0000 
     38 OD1       -34.6200  -26.0000    4.4500 O.co2     3 ASP3        0.0000 
     39 OD1       -33.9600  -25.2200    3.3600 O.co2     3 ASP3        0.0000 
     40 NZ        -30.7000  -28.2200    1.1000 N.4       4 LYS4        0.0000 
     41 CZ        -39.4100  -28.9600    1.4700 C.ar      5 PHE5        0.0000 
     42 CZ        -35.1000  -28.5900    0.2300 C.ar      5 PHE5        0.0000 
     43 CZ        -36.8800  -28.3800    1.3600 C.ar      5 PHE5        0.0000 
     44 CZ        -37.9900  -27.3800    1.4100 C.ar      5 PHE5        0.0000 
     45 CZ        -33.2300  -28.8000    1.2100 C.ar      5 PHE5        0.0000 
     46 CZ        -35.6700  -29.3800    3.4400 C.ar      5 PHE5        0.0000 
     47 CZ        -35.0100  -28.5900    2.3500 C.ar      5 PHE5        0.0000 
     48 CZ        -36.1300  -27.5900    2.3900 C.ar      5 PHE5        0.0000 
     49 CZ        -33.8000  -29.5900    4.4200 C.ar      5 PHE5        0.0000 
     50 CZ        -34.9200  -28.5800    4.4700 C.ar      5 PHE5        0.0000 
     51 CZ        -35.3700  -26.8000    3.4200 C.ar      5 PHE5        0.0000 
     52 CZ        -39.5900  -27.1600    6.7800 C.ar      5 PHE5        0.0000 
     53 CZ        -38.9300  -26.3700    5.6900 C.ar      5 PHE5        0.0000 
     54 CZ        -38.2700  -25.5800    4.6000 C.ar      5 PHE5        0.0000 
     55 CZ        -37.6100  -24.7900    3.5100 C.ar      5 PHE5        0.0000 
     56 CZ        -39.3900  -24.5800    4.6500 C.ar      5 PHE5        0.0000 
     57 CZ        -33.0500  -28.7900    5.4500 C.ar      5 PHE5        0.0000 
     58 CZ        -34.1700  -27.7900    5.5000 C.ar      5 PHE5        0.0000 
     59 CZ        -35.2900  -26.7900    5.5400 C.ar      5 PHE5        0.0000 
     60 CZ        -36.4000  -25.7900    5.5800 C.ar      5 PHE5        0.0000 
     61 CZ        -39.3000  -24.5800    6.7700 C.ar      5 PHE5        0.0000 
     62 CZ        -40.4100  -23.5800    6.8100 C.ar      5 PHE5        0.0000 
     63 CA        -41.1900  -28.7500    2.6100 C.3       6 GLY6        0.0000 
     64 CA        -32.2000  -29.8100   -0.9500 C.3       6 GLY6        0.0000 
     65 CA        -40.2300  -25.3800    1.5000 C.3       6 GLY6        0.0000 
     66 CA        -31.4500  -29.0200    0.0800 C.3       6 GLY6        0.0000 
     67 CA        -33.8900  -29.5900    2.3000 C.3       6 GLY6        0.0000 
     68 CA        -43.2400  -26.7400    6.9400 C.3       6 GLY6        0.0000 
     69 CA        -42.5800  -25.9500    5.8400 C.3       6 GLY6        0.0000 
     70 CA        -41.9200  -25.1600    4.7500 C.3       6 GLY6        0.0000 
     71 CA        -33.1400  -28.8000    3.3300 C.3       6 GLY6        0.0000 
     72 CA        -41.8300  -25.1600    6.8700 C.3       6 GLY6        0.0000 
     73 CA        -41.1700  -24.3700    5.7800 C.3       6 GLY6        0.0000 
     74 CA        -38.8400  -26.3700    7.8100 C.3       6 GLY6        0.0000 
     75 CA        -38.1800  -25.5800    6.7200 C.3       6 GLY6        0.0000 
     76 CA        -40.6200  -26.1500    8.9500 C.3       6 GLY6        0.0000 
     77 CA        -39.9600  -25.3600    7.8600 C.3       6 GLY6        0.0000 
     78 CA        -41.0800  -24.3600    7.9000 C.3       6 GLY6        0.0000 
     79 DU        -40.5200  -27.9600    1.5200 H         7 CUB7        0.0000 
     80 DU        -41.6400  -26.9600    1.5600 H         7 CUB7        0.0000 
     81 DU        -39.1100  -26.3800    1.4500 H         7 CUB7        0.0000 
     82 DU        -41.5500  -26.9500    3.6800 H         7 CUB7        0.0000 
     83 DU        -40.8900  -26.1700    2.5900 H         7 CUB7        0.0000 
     84 DU        -32.5700  -28.0100    0.1200 H         7 CUB7        0.0000 
     85 DU        -34.3500  -27.8000    1.2600 H         7 CUB7        0.0000 
     86 DU        -35.4600  -26.8000    1.3000 H         7 CUB7        0.0000 
     87 DU        -37.2400  -26.5900    2.4400 H         7 CUB7        0.0000 
     88 DU        -36.5800  -25.8000    1.3500 H         7 CUB7        0.0000 
     89 DU        -38.3600  -25.5900    2.4800 H         7 CUB7        0.0000 
     90 DU        -41.4600  -26.9500    5.8000 H         7 CUB7        0.0000 
     91 DU        -40.8000  -26.1600    4.7100 H         7 CUB7        0.0000 
     92 DU        -40.1400  -25.3700    3.6200 H         7 CUB7        0.0000 
     93 DU        -31.8200  -27.2200    1.1500 H         7 CUB7        0.0000 
     94 DU        -34.7100  -26.0100    2.3300 H         7 CUB7        0.0000 
     95 DU        -35.8300  -25.0100    2.3700 H         7 CUB7        0.0000 
     96 DU        -40.7100  -26.1600    6.8300 H         7 CUB7        0.0000 
     97 DU        -40.0500  -25.3700    5.7400 H         7 CUB7        0.0000 
@<TRIPOS>BOND
@<TRIPOS>SUBSTRUCTURE
     1 SER1        1 GROUP   
     2 ALA2       10 GROUP   
     3 ASP3       30 GROUP   
     4 LYS4       40 GROUP   
     5 PHE5       41 GROUP   
     6 GLY6       63 GROUP   
     7 CUB7       79 GROUP   
@<TRIPOS>SET

