#    Name: 6gns_1_MYA
#    Modification time : Fri May 22 19:29:13 2020

@<TRIPOS>MOLECULE
6gns_1_MYA
   63    65     1     0     0
SMALL
NO_CHARGES


@<TRIPOS>ATOM
      1 S1         26.2250   -4.7910    7.1940 S.3       1 MYA1001     0.0000 
      2 C2         26.7270   -5.0500    8.8800 C.3       1 MYA1001     0.0000 
      3 C3         27.8110   -6.1010    9.0110 C.3       1 MYA1001     0.0000 
      4 N4         28.0810   -6.4630   10.4150 N.am      1 MYA1001     0.0000 
      5 C5         29.0870   -5.9920   11.1530 C.2       1 MYA1001     0.0000 
      6 O5         29.8800   -5.1310   10.7340 O.2       1 MYA1001     0.0000 
      7 C6         29.1910   -6.5560   12.5690 C.3       1 MYA1001     0.0000 
      8 C7         30.6200   -6.6570   13.1090 C.3       1 MYA1001     0.0000 
      9 N8         31.4280   -7.3540   12.1140 N.am      1 MYA1001     0.0000 
     10 C9         31.2620   -8.6520   11.9090 C.2       1 MYA1001     0.0000 
     11 O9         30.4180   -9.3390   12.5380 O.2       1 MYA1001     0.0000 
     12 C10        32.1200   -9.1620   10.7900 C.3       1 MYA1001     0.0000 
     13 O10        33.3810   -8.5510   10.7020 O.3       1 MYA1001     0.0000 
     14 C11        31.5390   -9.6280    9.4640 C.3       1 MYA1001     0.0000 
     15 C12        32.5920  -10.1590    8.5120 C.3       1 MYA1001     0.0000 
     16 C13        30.9390   -8.3730    8.8770 C.3       1 MYA1001     0.0000 
     17 C14        30.4440  -10.6510    9.5670 C.3       1 MYA1001     0.0000 
     18 N1A        28.8940   -7.4860    4.1300 N.ar      1 MYA1001     0.0000 
     19 O1A        34.1930  -14.2440    7.7720 O.co2     1 MYA1001     0.0000 
     20 P1A        35.2400  -13.3470    7.1770 P.3       1 MYA1001     0.0000 
     21 C1X        33.4240   -9.7850    3.3800 C.3       1 MYA1001     0.0000 
     22 C2A        29.2640   -8.3750    3.2170 C.ar      1 MYA1001     0.0000 
     23 O2A        36.6770  -13.8530    7.0730 O.co2     1 MYA1001     0.0000 
     24 P2A        34.7610  -11.5040    9.2400 P.3       1 MYA1001     0.0000 
     25 C2M        25.0090   -5.9640    7.0050 C.2       1 MYA1001     0.0000 
     26 O2M        24.4440   -6.5800    7.9470 O.2       1 MYA1001     0.0000 
     27 C2X        34.8400   -9.3670    3.0520 C.3       1 MYA1001     0.0000 
     28 O2X        34.8380   -8.4000    2.0080 O.3       1 MYA1001     0.0000 
     29 N3A        30.4940   -8.8950    3.1370 N.ar      1 MYA1001     0.0000 
     30 O3A        35.2400  -11.8680    7.7810 O.3       1 MYA1001     0.0000 
     31 C3M        24.6180   -6.3170    5.5890 C.3       1 MYA1001     0.0000 
     32 C3X        35.4310  -10.7250    2.7620 C.3       1 MYA1001     0.0000 
     33 O3X        35.1020  -11.1660    1.4680 O.3       1 MYA1001     0.0000 
     34 P3X        36.1870  -11.0100    0.2560 P.3       1 MYA1001     0.0000 
     35 C4A        31.4490   -8.4740    4.0280 C.ar      1 MYA1001     0.0000 
     36 O4A        35.3800  -10.1530    9.4520 O.co2     1 MYA1001     0.0000 
     37 C4M        25.1460   -7.6780    5.1910 C.3       1 MYA1001     0.0000 
     38 C4X        34.7500  -11.6840    3.7340 C.3       1 MYA1001     0.0000 
     39 O4X        33.5400  -11.0230    4.1300 O.3       1 MYA1001     0.0000 
     40 C5A        31.1330   -7.4760    5.0370 C.ar      1 MYA1001     0.0000 
     41 O5A        35.0110  -12.5680   10.2610 O.co2     1 MYA1001     0.0000 
     42 C5M        25.0470   -7.9510    3.6930 C.3       1 MYA1001     0.0000 
     43 C5X        35.5580  -11.9930    4.9520 C.3       1 MYA1001     0.0000 
     44 O5X        34.8300  -12.9370    5.7110 O.3       1 MYA1001     0.0000 
     45 C6A        29.7640   -6.9830    5.0330 C.ar      1 MYA1001     0.0000 
     46 N6A        29.3720   -6.0510    5.9340 N.pl3     1 MYA1001     0.0000 
     47 O6A        33.1410  -11.3230    9.1250 O.3       1 MYA1001     0.0000 
     48 C6M        25.6500   -9.3020    3.3730 C.3       1 MYA1001     0.0000 
     49 N7A        32.2420   -7.2500    5.7830 N.2       1 MYA1001     0.0000 
     50 O7A        36.5580   -9.5520    0.2030 O.co2     1 MYA1001     0.0000 
     51 C7M        25.5890   -9.5580    1.9020 C.3       1 MYA1001     0.0000 
     52 C8A        33.2250   -8.0500    5.2570 C.2       1 MYA1001     0.0000 
     53 O8A        37.2960  -11.9220    0.7020 O.co2     1 MYA1001     0.0000 
     54 C8M        24.1730   -9.9880    1.4740 C.3       1 MYA1001     0.0000 
     55 N9A        32.7300   -8.7770    4.2070 N.pl3     1 MYA1001     0.0000 
     56 O9A        35.5430  -11.3710   -1.0750 O.co2     1 MYA1001     0.0000 
     57 C9M        24.2200  -10.6920    0.1200 C.3       1 MYA1001     0.0000 
     58 CAM        22.8940  -11.1780   -0.4350 C.3       1 MYA1001     0.0000 
     59 CBM        22.4690  -12.5040    0.1530 C.3       1 MYA1001     0.0000 
     60 CCM        20.9960  -12.8140   -0.2000 C.3       1 MYA1001     0.0000 
     61 CDM        20.7630  -12.9150   -1.7340 C.3       1 MYA1001     0.0000 
     62 CEM        19.3470  -13.4740   -2.0210 C.3       1 MYA1001     0.0000 
     63 CFM        19.0160  -13.5160   -3.4890 C.3       1 MYA1001     0.0000 
@<TRIPOS>BOND
     1    1    2 1    
     2    1   25 1    
     3    2    3 1    
     4    3    4 1    
     5    4    5 am   
     6    5    6 2    
     7    5    7 1    
     8    7    8 1    
     9    8    9 1    
    10    9   10 am   
    11   10   11 2    
    12   10   12 1    
    13   12   13 1    
    14   12   14 1    
    15   14   15 1    
    16   14   16 1    
    17   14   17 1    
    18   15   47 1    
    19   18   22 ar   
    20   18   45 ar   
    21   19   20 ar   
    22   20   23 ar   
    23   20   30 1    
    24   20   44 1    
    25   21   27 1    
    26   21   39 1    
    27   21   55 1    
    28   22   29 ar   
    29   24   30 1    
    30   24   36 ar   
    31   24   41 ar   
    32   24   47 1    
    33   25   26 2    
    34   25   31 1    
    35   27   28 1    
    36   27   32 1    
    37   29   35 ar   
    38   31   37 1    
    39   32   33 1    
    40   32   38 1    
    41   33   34 1    
    42   34   50 ar   
    43   34   53 ar   
    44   34   56 ar   
    45   35   40 ar   
    46   35   55 1    
    47   37   42 1    
    48   38   39 1    
    49   38   43 1    
    50   40   45 ar   
    51   40   49 1    
    52   42   48 1    
    53   43   44 1    
    54   45   46 1    
    55   48   51 1    
    56   49   52 2    
    57   51   54 1    
    58   52   55 1    
    59   54   57 1    
    60   57   58 1    
    61   58   59 1    
    62   59   60 1    
    63   60   61 1    
    64   61   62 1    
    65   62   63 1    
@<TRIPOS>SUBSTRUCTURE
     1 MYA1001     1 GROUP   
@<TRIPOS>SET

