#    Name: 6nev_2_FAD
#    Modification time : Fri May 22 19:25:49 2020

@<TRIPOS>MOLECULE
6nev_2_FAD
   53    58     1     0     1
SMALL
NO_CHARGES


@<TRIPOS>ATOM
      1 PA         59.9800   92.5130   97.2160 P.3       1 FAD501      0.0000 
      2 O1A        59.9910   94.0040   97.4600 O.co2     1 FAD501      0.0000 
      3 O2A        61.3330   91.9910   96.8180 O.co2     1 FAD501      0.0000 
      4 O5B        58.8260   92.0970   96.1460 O.3       1 FAD501      0.0000 
      5 C5B        57.5900   92.7300   96.2780 C.3       1 FAD501      0.0000 
      6 C4B        56.9010   92.6970   94.8910 C.3       1 FAD501      0.0000 
      7 O4B        55.6370   93.0110   94.9980 O.3       1 FAD501      0.0000 
      8 C3B        57.5610   93.7470   93.9770 C.3       1 FAD501      0.0000 
      9 O3B        57.9480   93.1580   92.8240 O.3       1 FAD501      0.0000 
     10 C2B        56.4360   94.7710   93.7760 C.3       1 FAD501      0.0000 
     11 O2B        56.5260   95.5170   92.4860 O.3       1 FAD501      0.0000 
     12 C1B        55.3360   94.0790   93.8550 C.3       1 FAD501      0.0000 
     13 N9A        54.3090   94.9620   94.3300 N.pl3     1 FAD501      0.0000 
     14 C8A        54.3950   95.9750   95.2060 C.2       1 FAD501      0.0000 
     15 N7A        53.1740   96.4950   95.3230 N.2       1 FAD501      0.0000 
     16 C5A        52.3490   95.8110   94.5170 C.ar      1 FAD501      0.0000 
     17 C6A        51.0070   95.9380   94.2580 C.ar      1 FAD501      0.0000 
     18 N6A        50.0370   96.8780   94.7950 N.pl3     1 FAD501      0.0000 
     19 N1A        50.4180   95.1150   93.3920 N.ar      1 FAD501      0.0000 
     20 C2A        51.1370   94.1310   92.7800 C.ar      1 FAD501      0.0000 
     21 N3A        52.4630   94.0000   93.0280 N.ar      1 FAD501      0.0000 
     22 C4A        53.0500   94.8600   93.8950 C.ar      1 FAD501      0.0000 
     23 N1         67.8360   89.2860  102.2680 N.2       1 FAD501      0.0000 
     24 C2         68.5430   88.0000  102.3450 C.2       1 FAD501      0.0000 
     25 O2         67.9590   87.0320  102.6940 O.2       1 FAD501      0.0000 
     26 N3         69.9780   87.9280  101.9810 N.am      1 FAD501      0.0000 
     27 C4         70.6710   89.1240  101.5560 C.2       1 FAD501      0.0000 
     28 O4         71.8100   89.0800  101.2680 O.2       1 FAD501      0.0000 
     29 C4X        69.9320   90.4260  101.4930 C.2       1 FAD501      0.0000 
     30 N5         70.6130   91.6310  101.0880 N.2       1 FAD501      0.0000 
     31 C5X        69.8700   92.9150  101.0350 C.ar      1 FAD501      0.0000 
     32 C6         70.5480   94.0640  100.6380 C.ar      1 FAD501      0.0000 
     33 C7         69.8780   95.2810  100.5820 C.ar      1 FAD501      0.0000 
     34 C7M        70.7770   96.4290  100.1290 C.3       1 FAD501      0.0000 
     35 C8         68.5220   95.3520  100.9210 C.ar      1 FAD501      0.0000 
     36 C8M        67.8390   96.7200  100.8410 C.3       1 FAD501      0.0000 
     37 C9         67.8430   94.1950  101.3140 C.ar      1 FAD501      0.0000 
     38 C9A        68.5130   92.9710  101.3830 C.ar      1 FAD501      0.0000 
     39 N10        67.8200   91.7220  101.8170 N.pl3     1 FAD501      0.0000 
     40 C10        68.5370   90.4790  101.8490 C.2       1 FAD501      0.0000 
     41 C1'        66.4080   91.6660  102.1600 C.3       1 FAD501      0.0000 
     42 C2'        65.6660   91.1500  100.9210 C.3       1 FAD501      0.0000 
     43 O2'        66.0420   91.8050   99.7350 O.3       1 FAD501      0.0000 
     44 C3'        64.1790   91.3670  101.0850 C.3       1 FAD501      0.0000 
     45 O3'        63.7900   90.7550  102.2680 O.3       1 FAD501      0.0000 
     46 C4'        63.4570   90.6970   99.9230 C.3       1 FAD501      0.0000 
     47 O4'        63.7700   91.3410   98.7160 O.3       1 FAD501      0.0000 
     48 C5'        61.9570   90.7340  100.2100 C.3       1 FAD501      0.0000 
     49 O5'        61.3040   90.0140   99.2180 O.3       1 FAD501      0.0000 
     50 P          59.7100   90.2690   98.9940 P.3       1 FAD501      0.0000 
     51 O1P        59.2560   89.3720   97.8660 O.co2     1 FAD501      0.0000 
     52 O2P        58.8920   90.1080  100.2540 O.co2     1 FAD501      0.0000 
     53 O3P        59.5650   91.8620   98.6460 O.3       1 FAD501      0.0000 
@<TRIPOS>BOND
     1    1    2 ar   
     2    1    3 ar   
     3    1    4 1    
     4    1   53 1    
     5    4    5 1    
     6    5    6 1    
     7    6    7 1    
     8    6    8 1    
     9    7   12 1    
    10    8    9 1    
    11    8   10 1    
    12   10   11 1    
    13   10   12 1    
    14   12   13 1    
    15   13   14 1    
    16   13   22 1    
    17   14   15 2    
    18   15   16 1    
    19   16   17 ar   
    20   16   22 ar   
    21   17   18 1    
    22   17   19 ar   
    23   19   20 ar   
    24   20   21 ar   
    25   21   22 ar   
    26   23   24 1    
    27   23   40 2    
    28   24   25 2    
    29   24   26 am   
    30   26   27 am   
    31   27   28 2    
    32   27   29 1    
    33   29   30 2    
    34   29   40 1    
    35   30   31 1    
    36   31   32 ar   
    37   31   38 ar   
    38   32   33 ar   
    39   33   34 1    
    40   33   35 ar   
    41   35   36 1    
    42   35   37 ar   
    43   37   38 ar   
    44   38   39 1    
    45   39   40 1    
    46   39   41 1    
    47   41   42 1    
    48   42   43 1    
    49   42   44 1    
    50   44   45 1    
    51   44   46 1    
    52   46   47 1    
    53   46   48 1    
    54   48   49 1    
    55   49   50 1    
    56   50   51 ar   
    57   50   52 ar   
    58   50   53 1    
@<TRIPOS>SUBSTRUCTURE
     1 FAD501      1 GROUP   
@<TRIPOS>SET
ATOM$ORANGE STATIC     ATOMS   COLORGROUP SYSTEM 
54 5 5 6 6 8 8 10 10 12 12 14 14 16 16 17 17 20 \
20 22 22 24 24 27 27 29 29 31 31 32 32 33 33 34 34 35 \
35 36 36 37 37 38 38 40 40 41 41 42 42 44 44 46 46 48 \
48 

