#    Name: 6nev_1_FAD
#    Modification time : Fri May 22 19:25:41 2020

@<TRIPOS>MOLECULE
6nev_1_FAD
   53    58     1     0     1
SMALL
NO_CHARGES


@<TRIPOS>ATOM
      1 PA         60.3590   46.3110   92.4580 P.3       1 FAD501      0.0000 
      2 O1A        60.4590   44.7990   92.5310 O.co2     1 FAD501      0.0000 
      3 O2A        58.9890   46.8300   92.8200 O.co2     1 FAD501      0.0000 
      4 O5B        60.7220   46.8980   90.9700 O.3       1 FAD501      0.0000 
      5 C5B        61.9680   46.5850   90.4260 C.3       1 FAD501      0.0000 
      6 C4B        61.9420   46.9630   88.9190 C.3       1 FAD501      0.0000 
      7 O4B        63.0690   46.5880   88.3760 O.3       1 FAD501      0.0000 
      8 C3B        60.8260   46.1790   88.2020 C.3       1 FAD501      0.0000 
      9 O3B        60.0700   47.0240   87.4510 O.3       1 FAD501      0.0000 
     10 C2B        61.5700   45.1810   87.2920 C.3       1 FAD501      0.0000 
     11 O2B        60.7640   45.0670   86.0480 O.3       1 FAD501      0.0000 
     12 C1B        62.7090   45.7710   87.0330 C.3       1 FAD501      0.0000 
     13 N9A        63.8170   44.8770   86.7650 N.pl3     1 FAD501      0.0000 
     14 C8A        64.1900   43.7460   87.3840 C.2       1 FAD501      0.0000 
     15 N7A        65.2970   43.2870   86.8000 N.2       1 FAD501      0.0000 
     16 C5A        65.6150   44.1230   85.8090 C.ar      1 FAD501      0.0000 
     17 C6A        66.6420   44.1210   84.9020 C.ar      1 FAD501      0.0000 
     18 N6A        67.7400   43.1950   84.6870 N.pl3     1 FAD501      0.0000 
     19 N1A        66.7320   45.0970   84.0160 N.ar      1 FAD501      0.0000 
     20 C2A        65.8180   46.0930   83.9980 C.ar      1 FAD501      0.0000 
     21 N3A        64.8040   46.1030   84.8940 N.ar      1 FAD501      0.0000 
     22 C4A        64.7090   45.1090   85.7910 C.ar      1 FAD501      0.0000 
     23 N1         55.9470   48.1730  101.1860 N.2       1 FAD501      0.0000 
     24 C2         55.3680   49.3820  101.7490 C.2       1 FAD501      0.0000 
     25 O2         56.0880   50.2890  101.9640 O.2       1 FAD501      0.0000 
     26 N3         53.9110   49.4390  102.0250 N.am      1 FAD501      0.0000 
     27 C4         53.0740   48.2850  101.7490 C.2       1 FAD501      0.0000 
     28 O4         51.9120   48.3420  101.9690 O.2       1 FAD501      0.0000 
     29 C4X        53.7020   47.0540  101.1500 C.2       1 FAD501      0.0000 
     30 N5         52.9160   45.8840  100.8390 N.2       1 FAD501      0.0000 
     31 C5X        53.5750   44.6820  100.2750 C.ar      1 FAD501      0.0000 
     32 C6         52.8140   43.5340  100.0040 C.ar      1 FAD501      0.0000 
     33 C7         53.4330   42.4030   99.4750 C.ar      1 FAD501      0.0000 
     34 C7M        52.4730   41.2420   99.2120 C.3       1 FAD501      0.0000 
     35 C8         54.8140   42.4110   99.2180 C.ar      1 FAD501      0.0000 
     36 C8M        55.4360   41.1610   98.6120 C.3       1 FAD501      0.0000 
     37 C9         55.5820   43.5430   99.4920 C.ar      1 FAD501      0.0000 
     38 C9A        54.9610   44.6820  100.0190 C.ar      1 FAD501      0.0000 
     39 N10        55.7710   45.8810  100.3170 N.pl3     1 FAD501      0.0000 
     40 C10        55.1170   47.0350  100.8840 C.2       1 FAD501      0.0000 
     41 C1'        57.2100   45.9350  100.0320 C.3       1 FAD501      0.0000 
     42 C2'        57.3610   46.6510   98.6460 C.3       1 FAD501      0.0000 
     43 O2'        56.4500   46.1940   97.6710 O.3       1 FAD501      0.0000 
     44 C3'        58.7340   46.4760   98.0080 C.3       1 FAD501      0.0000 
     45 O3'        59.7410   46.6940   98.9490 O.3       1 FAD501      0.0000 
     46 C4'        58.8730   47.4170   96.7920 C.3       1 FAD501      0.0000 
     47 O4'        58.1290   46.9810   95.6730 O.3       1 FAD501      0.0000 
     48 C5'        60.3310   47.5540   96.3550 C.3       1 FAD501      0.0000 
     49 O5'        60.3070   48.3950   95.2380 O.3       1 FAD501      0.0000 
     50 P          61.5360   48.2940   94.1640 P.3       1 FAD501      0.0000 
     51 O1P        61.3520   49.3020   93.0420 O.co2     1 FAD501      0.0000 
     52 O2P        62.8640   48.3680   94.8770 O.co2     1 FAD501      0.0000 
     53 O3P        61.4760   46.7770   93.5530 O.3       1 FAD501      0.0000 
@<TRIPOS>BOND
     1    1    2 ar   
     2    1    3 ar   
     3    1    4 1    
     4    1   53 1    
     5    4    5 1    
     6    5    6 1    
     7    6    7 1    
     8    6    8 1    
     9    7   12 1    
    10    8    9 1    
    11    8   10 1    
    12   10   11 1    
    13   10   12 1    
    14   12   13 1    
    15   13   14 1    
    16   13   22 1    
    17   14   15 2    
    18   15   16 1    
    19   16   17 ar   
    20   16   22 ar   
    21   17   18 1    
    22   17   19 ar   
    23   19   20 ar   
    24   20   21 ar   
    25   21   22 ar   
    26   23   24 1    
    27   23   40 2    
    28   24   25 2    
    29   24   26 am   
    30   26   27 am   
    31   27   28 2    
    32   27   29 1    
    33   29   30 2    
    34   29   40 1    
    35   30   31 1    
    36   31   32 ar   
    37   31   38 ar   
    38   32   33 ar   
    39   33   34 1    
    40   33   35 ar   
    41   35   36 1    
    42   35   37 ar   
    43   37   38 ar   
    44   38   39 1    
    45   39   40 1    
    46   39   41 1    
    47   41   42 1    
    48   42   43 1    
    49   42   44 1    
    50   44   45 1    
    51   44   46 1    
    52   46   47 1    
    53   46   48 1    
    54   48   49 1    
    55   49   50 1    
    56   50   51 ar   
    57   50   52 ar   
    58   50   53 1    
@<TRIPOS>SUBSTRUCTURE
     1 FAD501      1 GROUP   
@<TRIPOS>SET
ATOM$ORANGE STATIC     ATOMS   COLORGROUP SYSTEM 
54 5 5 6 6 8 8 10 10 12 12 14 14 16 16 17 17 20 \
20 22 22 24 24 27 27 29 29 31 31 32 32 33 33 34 34 35 \
35 36 36 37 37 38 38 40 40 41 41 42 42 44 44 46 46 48 \
48 

