#    Name: 6amo_2_D4T_CAVITY_N1_4
#    Modification time : Fri May 22 19:33:47 2020

@<TRIPOS>MOLECULE
6amo_2_D4T_CAVITY_N1_4
   58     0     6     0     0
SMALL
NO_CHARGES


@<TRIPOS>ATOM
      1 O          16.3400  -46.9900  -12.7300 O.2       1 ALA2        0.0000 
      2 O          19.4900  -46.6900  -11.6000 O.2       1 ALA2        0.0000 
      3 O          18.0800  -46.2000  -11.8100 O.2       1 ALA2        0.0000 
      4 O          20.4700  -47.7800  -10.0700 O.2       1 ALA2        0.0000 
      5 O          19.0700  -47.3000  -10.2900 O.2       1 ALA2        0.0000 
      6 N          17.4200  -49.7200   -5.0600 N.am      1 ALA2        0.0000 
      7 O          19.8200  -45.4100  -10.9000 O.2       1 ALA2        0.0000 
      8 O          19.1800  -43.0300  -11.7200 O.2       1 ALA2        0.0000 
      9 OD1        17.1000  -45.1000  -13.3400 O.co2     2 ASP3        0.0000 
     10 OD1        16.6800  -45.7100  -12.0300 O.co2     2 ASP3        0.0000 
     11 OD1        18.6600  -47.9000   -8.9800 O.co2     2 ASP3        0.0000 
     12 OD1        18.2400  -48.5100   -7.6700 O.co2     2 ASP3        0.0000 
     13 OD1        17.8300  -49.1200   -6.3700 O.co2     2 ASP3        0.0000 
     14 OD1        16.4300  -48.6300   -6.5800 O.co2     2 ASP3        0.0000 
     15 OD1        17.8500  -43.2200  -13.9500 O.co2     2 ASP3        0.0000 
     16 OD1        18.4200  -44.9200  -11.1100 O.co2     2 ASP3        0.0000 
     17 OD1        19.4100  -46.0100   -9.5900 O.co2     2 ASP3        0.0000 
     18 OD1        19.0000  -46.6200   -8.2800 O.co2     2 ASP3        0.0000 
     19 OD1        18.5800  -47.2300   -6.9700 O.co2     2 ASP3        0.0000 
     20 OD1        16.7700  -47.3400   -5.8800 O.co2     2 ASP3        0.0000 
     21 OD1        20.1600  -44.1300  -10.1900 O.co2     2 ASP3        0.0000 
     22 OD1        18.7600  -43.6400  -10.4100 O.co2     2 ASP3        0.0000 
     23 OD1        19.7500  -44.7300   -8.8900 O.co2     2 ASP3        0.0000 
     24 OD1        18.3500  -44.2400   -9.1000 O.co2     2 ASP3        0.0000 
     25 OD1        16.9500  -43.7500   -9.3200 O.co2     2 ASP3        0.0000 
     26 OD1        19.3400  -45.3400   -7.5800 O.co2     2 ASP3        0.0000 
     27 OD1        17.9300  -44.8500   -7.8000 O.co2     2 ASP3        0.0000 
     28 OD1        17.5200  -45.4600   -6.4900 O.co2     2 ASP3        0.0000 
     29 OD1        18.6900  -42.9600   -8.4000 O.co2     2 ASP3        0.0000 
     30 OD1        17.2900  -42.4700   -8.6200 O.co2     2 ASP3        0.0000 
     31 OD1        18.2700  -43.5700   -7.0900 O.co2     2 ASP3        0.0000 
     32 OD1        16.8700  -43.0800   -7.3100 O.co2     2 ASP3        0.0000 
     33 OD1        17.2100  -41.8000   -6.6100 O.co2     2 ASP3        0.0000 
     34 NZ         17.5100  -44.5000  -14.6500 N.4       3 LYS4        0.0000 
     35 NZ         18.5000  -45.5900  -13.1200 N.4       3 LYS4        0.0000 
     36 NZ         18.2600  -42.6100  -15.2500 N.4       3 LYS4        0.0000 
     37 NZ         18.8400  -44.3100  -12.4200 N.4       3 LYS4        0.0000 
     38 NZ         20.7400  -45.8300   -7.3600 N.4       3 LYS4        0.0000 
     39 NZ         19.6700  -44.0600   -6.8800 N.4       3 LYS4        0.0000 
     40 NZ         18.6100  -42.2900   -6.3900 N.4       3 LYS4        0.0000 
     41 CZ         18.1600  -46.8700  -13.8200 C.ar      4 PHE5        0.0000 
     42 CZ         20.0600  -48.3900   -8.7700 C.ar      4 PHE5        0.0000 
     43 CZ         19.6500  -49.0000   -7.4600 C.ar      4 PHE5        0.0000 
     44 CZ         19.2300  -49.6000   -6.1500 C.ar      4 PHE5        0.0000 
     45 CZ         21.3900  -48.2100   -6.5400 C.ar      4 PHE5        0.0000 
     46 CA         16.8600  -42.1200  -15.4700 C.3       5 GLY6        0.0000 
     47 CA         20.8100  -46.5000   -9.3700 C.3       5 GLY6        0.0000 
     48 CA         20.4000  -47.1100   -8.0600 C.3       5 GLY6        0.0000 
     49 CA         19.5700  -48.3200   -5.4500 C.3       5 GLY6        0.0000 
     50 CA         18.1700  -47.8300   -5.6600 C.3       5 GLY6        0.0000 
     51 CA         21.1500  -45.2200   -8.6700 C.3       5 GLY6        0.0000 
     52 CA         20.3200  -46.4300   -6.0500 C.3       5 GLY6        0.0000 
     53 CA         18.9200  -45.9500   -6.2700 C.3       5 GLY6        0.0000 
     54 CA         17.1100  -46.0600   -5.1800 C.3       5 GLY6        0.0000 
     55 CA         19.2600  -44.6600   -5.5700 C.3       5 GLY6        0.0000 
     56 CA         17.8600  -44.1700   -5.7900 C.3       5 GLY6        0.0000 
     57 CA         17.4400  -44.7800   -4.4800 C.3       5 GLY6        0.0000 
     58 DU         19.9800  -47.7200   -6.7600 H         6 CUB7        0.0000 
@<TRIPOS>BOND
@<TRIPOS>SUBSTRUCTURE
     1 ALA2        1 GROUP   
     2 ASP3        9 GROUP   
     3 LYS4       34 GROUP   
     4 PHE5       41 GROUP   
     5 GLY6       46 GROUP   
     6 CUB7       58 GROUP   
@<TRIPOS>SET

