#    Name: 6amo_2_D4T_CAVITY_N1_12
#    Modification time : Fri May 22 19:33:47 2020

@<TRIPOS>MOLECULE
6amo_2_D4T_CAVITY_N1_12
  112     0     6     0     0
SMALL
NO_CHARGES


@<TRIPOS>ATOM
      1 N          15.8500  -45.9700  -17.5800 N.am      1 ALA2        0.0000 
      2 N          14.4500  -45.4800  -17.7900 N.am      1 ALA2        0.0000 
      3 N          13.0400  -44.9900  -18.0100 N.am      1 ALA2        0.0000 
      4 O          11.6400  -44.5000  -18.2300 O.2       1 ALA2        0.0000 
      5 N          15.4300  -46.5700  -16.2700 N.am      1 ALA2        0.0000 
      6 N          14.7800  -44.1900  -17.0900 N.am      1 ALA2        0.0000 
      7 O          13.3800  -43.7100  -17.3100 O.2       1 ALA2        0.0000 
      8 N          15.3600  -45.9000  -14.2600 N.am      1 ALA2        0.0000 
      9 O          16.3400  -46.9900  -12.7300 O.2       1 ALA2        0.0000 
     10 O          19.4900  -46.6900  -11.6000 O.2       1 ALA2        0.0000 
     11 O          18.0800  -46.2000  -11.8100 O.2       1 ALA2        0.0000 
     12 O          20.4700  -47.7800  -10.0700 O.2       1 ALA2        0.0000 
     13 O          19.0700  -47.3000  -10.2900 O.2       1 ALA2        0.0000 
     14 N          17.4200  -49.7200   -5.0600 N.am      1 ALA2        0.0000 
     15 O          19.8200  -45.4100  -10.9000 O.2       1 ALA2        0.0000 
     16 O          19.1800  -43.0300  -11.7200 O.2       1 ALA2        0.0000 
     17 OD1        16.1100  -44.0100  -14.8600 O.co2     2 ASP3        0.0000 
     18 OD1        17.1000  -45.1000  -13.3400 O.co2     2 ASP3        0.0000 
     19 OD1        16.6800  -45.7100  -12.0300 O.co2     2 ASP3        0.0000 
     20 OD1        18.6600  -47.9000   -8.9800 O.co2     2 ASP3        0.0000 
     21 OD1        18.2400  -48.5100   -7.6700 O.co2     2 ASP3        0.0000 
     22 OD1        17.8300  -49.1200   -6.3700 O.co2     2 ASP3        0.0000 
     23 OD1        16.4300  -48.6300   -6.5800 O.co2     2 ASP3        0.0000 
     24 OD1        17.2800  -41.5100  -16.7800 O.co2     2 ASP3        0.0000 
     25 OD1        17.8500  -43.2200  -13.9500 O.co2     2 ASP3        0.0000 
     26 OD1        18.4200  -44.9200  -11.1100 O.co2     2 ASP3        0.0000 
     27 OD1        19.4100  -46.0100   -9.5900 O.co2     2 ASP3        0.0000 
     28 OD1        19.0000  -46.6200   -8.2800 O.co2     2 ASP3        0.0000 
     29 OD1        18.5800  -47.2300   -6.9700 O.co2     2 ASP3        0.0000 
     30 OD1        16.7700  -47.3400   -5.8800 O.co2     2 ASP3        0.0000 
     31 OD1        20.1600  -44.1300  -10.1900 O.co2     2 ASP3        0.0000 
     32 OD1        18.7600  -43.6400  -10.4100 O.co2     2 ASP3        0.0000 
     33 OD1        19.7500  -44.7300   -8.8900 O.co2     2 ASP3        0.0000 
     34 OD1        18.3500  -44.2400   -9.1000 O.co2     2 ASP3        0.0000 
     35 OD1        16.9500  -43.7500   -9.3200 O.co2     2 ASP3        0.0000 
     36 OD1        19.3400  -45.3400   -7.5800 O.co2     2 ASP3        0.0000 
     37 OD1        17.9300  -44.8500   -7.8000 O.co2     2 ASP3        0.0000 
     38 OD1        17.5200  -45.4600   -6.4900 O.co2     2 ASP3        0.0000 
     39 OD1        18.6900  -42.9600   -8.4000 O.co2     2 ASP3        0.0000 
     40 OD1        17.2900  -42.4700   -8.6200 O.co2     2 ASP3        0.0000 
     41 OD1        18.2700  -43.5700   -7.0900 O.co2     2 ASP3        0.0000 
     42 OD1        16.8700  -43.0800   -7.3100 O.co2     2 ASP3        0.0000 
     43 OD1        17.2100  -41.8000   -6.6100 O.co2     2 ASP3        0.0000 
     44 NZ         19.4800  -45.7300  -19.7600 N.4       3 LYS4        0.0000 
     45 NZ         19.0600  -46.3400  -18.4500 N.4       3 LYS4        0.0000 
     46 NZ         17.2500  -46.4500  -17.3600 N.4       3 LYS4        0.0000 
     47 NZ         18.4200  -43.9600  -19.2700 N.4       3 LYS4        0.0000 
     48 NZ         18.0000  -44.5700  -17.9600 N.4       3 LYS4        0.0000 
     49 NZ         17.5900  -45.1700  -16.6600 N.4       3 LYS4        0.0000 
     50 NZ         17.1700  -45.7800  -15.3500 N.4       3 LYS4        0.0000 
     51 NZ         18.3400  -43.2800  -17.2600 N.4       3 LYS4        0.0000 
     52 NZ         17.5100  -44.5000  -14.6500 N.4       3 LYS4        0.0000 
     53 NZ         18.5000  -45.5900  -13.1200 N.4       3 LYS4        0.0000 
     54 NZ         18.2600  -42.6100  -15.2500 N.4       3 LYS4        0.0000 
     55 NZ         18.8400  -44.3100  -12.4200 N.4       3 LYS4        0.0000 
     56 NZ         20.7400  -45.8300   -7.3600 N.4       3 LYS4        0.0000 
     57 NZ         19.6700  -44.0600   -6.8800 N.4       3 LYS4        0.0000 
     58 NZ         18.6100  -42.2900   -6.3900 N.4       3 LYS4        0.0000 
     59 CZ         16.5000  -48.3400  -16.7500 C.ar      4 PHE5        0.0000 
     60 CZ         18.6500  -46.9400  -17.1400 C.ar      4 PHE5        0.0000 
     61 CZ         16.8300  -47.0600  -16.0500 C.ar      4 PHE5        0.0000 
     62 CZ         16.4200  -47.6700  -14.7400 C.ar      4 PHE5        0.0000 
     63 CZ         18.1600  -46.8700  -13.8200 C.ar      4 PHE5        0.0000 
     64 CZ         16.7600  -46.3900  -14.0400 C.ar      4 PHE5        0.0000 
     65 CZ         20.0600  -48.3900   -8.7700 C.ar      4 PHE5        0.0000 
     66 CZ         19.6500  -49.0000   -7.4600 C.ar      4 PHE5        0.0000 
     67 CZ         19.2300  -49.6000   -6.1500 C.ar      4 PHE5        0.0000 
     68 CZ         21.3900  -48.2100   -6.5400 C.ar      4 PHE5        0.0000 
     69 CA         19.1400  -47.0100  -20.4600 C.3       5 GLY6        0.0000 
     70 CA         17.7400  -46.5200  -20.6800 C.3       5 GLY6        0.0000 
     71 CA         16.3400  -46.0300  -20.8900 C.3       5 GLY6        0.0000 
     72 CA         14.9400  -45.5400  -21.1100 C.3       5 GLY6        0.0000 
     73 CA         18.7300  -47.6200  -19.1500 C.3       5 GLY6        0.0000 
     74 CA         17.3200  -47.1300  -19.3700 C.3       5 GLY6        0.0000 
     75 CA         15.9200  -46.6400  -19.5900 C.3       5 GLY6        0.0000 
     76 CA         14.5200  -46.1500  -19.8000 C.3       5 GLY6        0.0000 
     77 CA         18.3100  -48.2300  -17.8400 C.3       5 GLY6        0.0000 
     78 CA         16.9100  -47.7400  -18.0600 C.3       5 GLY6        0.0000 
     79 CA         15.5100  -47.2500  -18.2800 C.3       5 GLY6        0.0000 
     80 CA         15.0900  -47.8500  -16.9700 C.3       5 GLY6        0.0000 
     81 CA         15.5400  -42.3100  -17.7000 C.3       5 GLY6        0.0000 
     82 CA         14.1400  -41.8200  -17.9100 C.3       5 GLY6        0.0000 
     83 CA         16.5200  -43.4000  -16.1700 C.3       5 GLY6        0.0000 
     84 CA         15.1200  -42.9100  -16.3900 C.3       5 GLY6        0.0000 
     85 CA         14.7100  -43.5200  -15.0800 C.3       5 GLY6        0.0000 
     86 CA         16.8600  -42.1200  -15.4700 C.3       5 GLY6        0.0000 
     87 CA         20.8100  -46.5000   -9.3700 C.3       5 GLY6        0.0000 
     88 CA         20.4000  -47.1100   -8.0600 C.3       5 GLY6        0.0000 
     89 CA         19.5700  -48.3200   -5.4500 C.3       5 GLY6        0.0000 
     90 CA         18.1700  -47.8300   -5.6600 C.3       5 GLY6        0.0000 
     91 CA         21.1500  -45.2200   -8.6700 C.3       5 GLY6        0.0000 
     92 CA         20.3200  -46.4300   -6.0500 C.3       5 GLY6        0.0000 
     93 CA         18.9200  -45.9500   -6.2700 C.3       5 GLY6        0.0000 
     94 CA         17.1100  -46.0600   -5.1800 C.3       5 GLY6        0.0000 
     95 CA         19.2600  -44.6600   -5.5700 C.3       5 GLY6        0.0000 
     96 CA         17.8600  -44.1700   -5.7900 C.3       5 GLY6        0.0000 
     97 CA         17.4400  -44.7800   -4.4800 C.3       5 GLY6        0.0000 
     98 DU         18.0800  -45.2400  -19.9700 H         6 CUB7        0.0000 
     99 DU         16.6800  -44.7500  -20.1900 H         6 CUB7        0.0000 
    100 DU         15.2700  -44.2600  -20.4100 H         6 CUB7        0.0000 
    101 DU         13.8700  -43.7700  -20.6300 H         6 CUB7        0.0000 
    102 DU         17.6600  -45.8500  -18.6700 H         6 CUB7        0.0000 
    103 DU         16.2600  -45.3600  -18.8800 H         6 CUB7        0.0000 
    104 DU         14.8600  -44.8700  -19.1000 H         6 CUB7        0.0000 
    105 DU         13.4600  -44.3800  -19.3200 H         6 CUB7        0.0000 
    106 DU         12.0600  -43.8900  -19.5300 H         6 CUB7        0.0000 
    107 DU         16.6000  -44.0800  -18.1800 H         6 CUB7        0.0000 
    108 DU         15.2000  -43.5900  -18.4000 H         6 CUB7        0.0000 
    109 DU         13.8000  -43.1000  -18.6200 H         6 CUB7        0.0000 
    110 DU         16.1900  -44.6800  -16.8700 H         6 CUB7        0.0000 
    111 DU         16.9400  -42.8000  -17.4800 H         6 CUB7        0.0000 
    112 DU         19.9800  -47.7200   -6.7600 H         6 CUB7        0.0000 
@<TRIPOS>BOND
@<TRIPOS>SUBSTRUCTURE
     1 ALA2        1 GROUP   
     2 ASP3       17 GROUP   
     3 LYS4       44 GROUP   
     4 PHE5       59 GROUP   
     5 GLY6       69 GROUP   
     6 CUB7       98 GROUP   
@<TRIPOS>SET

