#    Name: 6amo_2_D4T
#    Modification time : Fri May 22 19:33:46 2020

@<TRIPOS>MOLECULE
6amo_2_D4T
   28    29     1     0     0
SMALL
NO_CHARGES


@<TRIPOS>ATOM
      1 PC         18.9740  -42.3470  -11.3970 P.3       1 D4T603      0.0000 
      2 O1C        17.6600  -41.7350  -11.0380 O.co2     1 D4T603      0.0000 
      3 O2C        20.0150  -41.8940  -10.4310 O.co2     1 D4T603      0.0000 
      4 O3C        19.3590  -41.9260  -12.7810 O.co2     1 D4T603      0.0000 
      5 O7'        18.8580  -43.9080  -11.3400 O.3       1 D4T603      0.0000 
      6 PB         19.2240  -44.7490  -10.0750 P.3       1 D4T603      0.0000 
      7 O1B        19.1660  -46.2300  -10.4230 O.co2     1 D4T603      0.0000 
      8 O2B        20.6160  -44.3890   -9.6130 O.co2     1 D4T603      0.0000 
      9 O6'        18.1930  -44.4440   -8.9280 O.3       1 D4T603      0.0000 
     10 PA         18.5890  -44.2710   -7.4490 P.3       1 D4T603      0.0000 
     11 O1A        19.7560  -43.3420   -7.3500 O.co2     1 D4T603      0.0000 
     12 O2A        17.4310  -43.6960   -6.6900 O.co2     1 D4T603      0.0000 
     13 O5'        18.9810  -45.7420   -6.8180 O.3       1 D4T603      0.0000 
     14 C5'        20.3480  -46.0030   -6.4680 C.3       1 D4T603      0.0000 
     15 C4'        20.6570  -47.4420   -6.6090 C.3       1 D4T603      0.0000 
     16 O4'        19.9080  -48.2240   -5.6410 O.3       1 D4T603      0.0000 
     17 C1'        19.0540  -49.1440   -6.3070 C.3       1 D4T603      0.0000 
     18 N1         17.6720  -48.9910   -5.8600 N.am      1 D4T603      0.0000 
     19 C6         17.2050  -47.8090   -5.5100 C.2       1 D4T603      0.0000 
     20 C2         16.8560  -50.0920   -5.8030 C.2       1 D4T603      0.0000 
     21 O2         17.2920  -51.2000   -6.1280 O.2       1 D4T603      0.0000 
     22 N3         15.5570  -49.9660   -5.3860 N.am      1 D4T603      0.0000 
     23 C4         15.0820  -48.7610   -5.0310 C.2       1 D4T603      0.0000 
     24 O4         13.8980  -48.6410   -4.6490 O.2       1 D4T603      0.0000 
     25 C5         15.8850  -47.6780   -5.0860 C.2       1 D4T603      0.0000 
     26 C5A        15.3370  -46.2760   -4.6760 C.3       1 D4T603      0.0000 
     27 C2'        19.2730  -48.8840   -7.7640 C.2       1 D4T603      0.0000 
     28 C3'        20.1670  -47.9350   -7.9090 C.2       1 D4T603      0.0000 
@<TRIPOS>BOND
     1    1    2 ar   
     2    1    3 ar   
     3    1    4 ar   
     4    1    5 1    
     5    5    6 1    
     6    6    7 ar   
     7    6    8 ar   
     8    6    9 1    
     9    9   10 1    
    10   10   11 ar   
    11   10   12 ar   
    12   10   13 1    
    13   13   14 1    
    14   14   15 1    
    15   15   16 1    
    16   15   28 1    
    17   16   17 1    
    18   17   18 1    
    19   17   27 1    
    20   18   19 1    
    21   18   20 1    
    22   19   25 2    
    23   20   21 2    
    24   20   22 1    
    25   22   23 1    
    26   23   24 2    
    27   23   25 1    
    28   25   26 1    
    29   27   28 2    
@<TRIPOS>SUBSTRUCTURE
     1 D4T603      1 GROUP   
@<TRIPOS>SET

