#    Name: 6kjd_4_LVA
#    Modification time : Fri May 22 19:30:47 2020

@<TRIPOS>MOLECULE
6kjd_4_LVA
   30    31     1     0     0
SMALL
NO_CHARGES


@<TRIPOS>ATOM
      1 O1         10.8500   39.7040   11.1860 O.co2     1 LVA401      0.0000 
      2 O2         11.1610   37.2020   10.5580 O.3       1 LVA401      0.0000 
      3 O3          8.9530   40.1950   12.2090 O.co2     1 LVA401      0.0000 
      4 O8         10.1450   38.0880    6.5360 O.3       1 LVA401      0.0000 
      5 O4         10.1070   32.2810    6.1940 O.3       1 LVA401      0.0000 
      6 C5          6.2290   32.9760    4.2110 C.2       1 LVA401      0.0000 
      7 C6          7.6620   32.7920    3.8510 C.2       1 LVA401      0.0000 
      8 C7         10.0030   37.2310    7.6760 C.3       1 LVA401      0.0000 
      9 C8          5.8630   34.0090    4.9770 C.2       1 LVA401      0.0000 
     10 C9          8.7690   33.6150    4.4730 C.3       1 LVA401      0.0000 
     11 C10         9.6250   39.3710   11.6040 C.2       1 LVA401      0.0000 
     12 C11         6.8790   35.0740    5.3640 C.3       1 LVA401      0.0000 
     13 C12         8.2500   34.4370    5.6520 C.3       1 LVA401      0.0000 
     14 C13         9.7740   37.2880   10.2130 C.3       1 LVA401      0.0000 
     15 C14         7.9970   31.8810    2.9380 C.2       1 LVA401      0.0000 
     16 C15        10.0430   32.7940    4.8280 C.3       1 LVA401      0.0000 
     17 C16         8.9600   36.1690    7.3350 C.3       1 LVA401      0.0000 
     18 C17         9.5610   38.0410    8.8990 C.3       1 LVA401      0.0000 
     19 C18         9.3050   35.4740    6.0200 C.3       1 LVA401      0.0000 
     20 C19        10.2960   31.6840    3.7960 C.3       1 LVA401      0.0000 
     21 C20         6.9350   36.1410    4.2670 C.3       1 LVA401      0.0000 
     22 C21         9.0490   37.9980   11.3530 C.3       1 LVA401      0.0000 
     23 C22         9.4450   31.8100    2.5320 C.3       1 LVA401      0.0000 
     24 C23         9.6230   30.6110    1.6100 C.3       1 LVA401      0.0000 
     25 C24        11.1350   32.8790    7.1800 C.2       1 LVA401      0.0000 
     26 C25        10.8360   33.1030    8.6360 C.3       1 LVA401      0.0000 
     27 O26        12.3150   33.2280    6.9770 O.2       1 LVA401      0.0000 
     28 C27        12.1530   33.5940    9.2810 C.3       1 LVA401      0.0000 
     29 C28        10.3020   31.8200    9.2620 C.3       1 LVA401      0.0000 
     30 C29        12.0050   34.1510   10.6870 C.3       1 LVA401      0.0000 
@<TRIPOS>BOND
     1    1   11 ar   
     2    2   14 1    
     3    3   11 ar   
     4    4    8 1    
     5    5   16 1    
     6    5   25 1    
     7    6    7 1    
     8    6    9 2    
     9    7   10 1    
    10    7   15 2    
    11    8   17 1    
    12    8   18 1    
    13    9   12 1    
    14   10   13 1    
    15   10   16 1    
    16   11   22 1    
    17   12   13 1    
    18   12   21 1    
    19   13   19 1    
    20   14   18 1    
    21   14   22 1    
    22   15   23 1    
    23   16   20 1    
    24   17   19 1    
    25   20   23 1    
    26   23   24 1    
    27   25   26 1    
    28   25   27 2    
    29   26   28 1    
    30   26   29 1    
    31   28   30 1    
@<TRIPOS>SUBSTRUCTURE
     1 LVA401      1 GROUP   
@<TRIPOS>SET

