#    Name: 6kjd_1_LVA
#    Modification time : Fri May 22 19:30:42 2020

@<TRIPOS>MOLECULE
6kjd_1_LVA
   30    31     1     0     0
SMALL
NO_CHARGES


@<TRIPOS>ATOM
      1 O1         26.8290   58.8080   22.5570 O.co2     1 LVA401      0.0000 
      2 O2         29.8930   59.0000   23.8180 O.3       1 LVA401      0.0000 
      3 O3         28.6570   58.5770   21.3220 O.co2     1 LVA401      0.0000 
      4 O8         28.2900   59.6710   27.3420 O.3       1 LVA401      0.0000 
      5 O4         34.1600   60.6100   28.2060 O.3       1 LVA401      0.0000 
      6 C5         32.6320   64.3530   30.1580 C.2       1 LVA401      0.0000 
      7 C6         33.0260   62.9790   30.5430 C.2       1 LVA401      0.0000 
      8 C7         29.2700   60.0020   26.3540 C.3       1 LVA401      0.0000 
      9 C8         31.5500   64.5560   29.4160 C.2       1 LVA401      0.0000 
     10 C9         32.4800   61.7510   29.8350 C.3       1 LVA401      0.0000 
     11 C10        28.0110   59.2510   22.1200 C.2       1 LVA401      0.0000 
     12 C11        30.7560   63.3900   28.8650 C.3       1 LVA401      0.0000 
     13 C12        31.6310   62.1400   28.6290 C.3       1 LVA401      0.0000 
     14 C13        29.3840   60.3240   23.8730 C.3       1 LVA401      0.0000 
     15 C14        33.8900   62.8230   31.5650 C.2       1 LVA401      0.0000 
     16 C15        33.5660   60.6570   29.5470 C.3       1 LVA401      0.0000 
     17 C16        30.1310   61.1740   26.8260 C.3       1 LVA401      0.0000 
     18 C17        28.5060   60.4080   25.1040 C.3       1 LVA401      0.0000 
     19 C18        30.8060   60.9310   28.1760 C.3       1 LVA401      0.0000 
     20 C19        34.6910   60.7040   30.6010 C.3       1 LVA401      0.0000 
     21 C20        29.5650   63.1390   29.7890 C.3       1 LVA401      0.0000 
     22 C21        28.5460   60.5720   22.6230 C.3       1 LVA401      0.0000 
     23 C22        34.3060   61.4150   31.9050 C.3       1 LVA401      0.0000 
     24 C23        35.4420   61.4900   32.9220 C.3       1 LVA401      0.0000 
     25 C24        33.8070   59.4930   27.2050 C.2       1 LVA401      0.0000 
     26 C25        33.5480   59.8050   25.7560 C.3       1 LVA401      0.0000 
     27 O26        33.7160   58.2770   27.4190 O.2       1 LVA401      0.0000 
     28 C27        33.2640   58.4830   25.0330 C.3       1 LVA401      0.0000 
     29 C28        34.7200   60.5610   25.1210 C.3       1 LVA401      0.0000 
     30 C29        32.9650   58.6820   23.5540 C.3       1 LVA401      0.0000 
@<TRIPOS>BOND
     1    1   11 ar   
     2    2   14 1    
     3    3   11 ar   
     4    4    8 1    
     5    5   16 1    
     6    5   25 1    
     7    6    7 1    
     8    6    9 2    
     9    7   10 1    
    10    7   15 2    
    11    8   17 1    
    12    8   18 1    
    13    9   12 1    
    14   10   13 1    
    15   10   16 1    
    16   11   22 1    
    17   12   13 1    
    18   12   21 1    
    19   13   19 1    
    20   14   18 1    
    21   14   22 1    
    22   15   23 1    
    23   16   20 1    
    24   17   19 1    
    25   20   23 1    
    26   23   24 1    
    27   25   26 1    
    28   25   27 2    
    29   26   28 1    
    30   26   29 1    
    31   28   30 1    
@<TRIPOS>SUBSTRUCTURE
     1 LVA401      1 GROUP   
@<TRIPOS>SET

