#    Name: 6c1p_1_1N7_CAVITY_N1_4
#    Modification time : Fri May 22 19:33:26 2020

@<TRIPOS>MOLECULE
6c1p_1_1N7_CAVITY_N1_4
   58     0     4     0     0
SMALL
NO_CHARGES


@<TRIPOS>ATOM
      1 O          22.2100  -88.7500  203.5500 O.2       1 ALA2        0.0000 
      2 N          24.1100  -89.2200  198.5100 N.am      1 ALA2        0.0000 
      3 CZ         24.3800  -90.6600  202.7600 C.ar      2 PHE5        0.0000 
      4 CZ         24.2900  -90.1800  201.3400 C.ar      2 PHE5        0.0000 
      5 CZ         25.3800  -91.1300  200.9500 C.ar      2 PHE5        0.0000 
      6 CZ         25.5000  -90.0900  204.4700 C.ar      2 PHE5        0.0000 
      7 CZ         25.4100  -89.6100  203.0500 C.ar      2 PHE5        0.0000 
      8 CZ         26.5000  -90.5600  202.6600 C.ar      2 PHE5        0.0000 
      9 CZ         22.0600  -86.2600  202.8100 C.ar      2 PHE5        0.0000 
     10 CZ         26.4100  -90.0800  201.2400 C.ar      2 PHE5        0.0000 
     11 CZ         21.9700  -85.7800  201.3900 C.ar      2 PHE5        0.0000 
     12 CZ         23.0600  -86.7400  201.0000 C.ar      2 PHE5        0.0000 
     13 CZ         24.1400  -87.6900  200.6100 C.ar      2 PHE5        0.0000 
     14 CZ         24.0900  -85.6800  201.2900 C.ar      2 PHE5        0.0000 
     15 CZ         25.1700  -86.6400  200.9000 C.ar      2 PHE5        0.0000 
     16 CZ         25.0800  -86.1600  199.4800 C.ar      2 PHE5        0.0000 
     17 CZ         28.5600  -88.4600  203.2400 C.ar      2 PHE5        0.0000 
     18 CZ         28.4700  -87.9800  201.8200 C.ar      2 PHE5        0.0000 
     19 CA         22.3000  -89.2300  204.9600 C.3       3 GLY6        0.0000 
     20 CA         23.2900  -89.7000  203.1500 C.3       3 GLY6        0.0000 
     21 CA         22.1200  -88.2700  202.1300 C.3       3 GLY6        0.0000 
     22 CA         23.2100  -89.2200  201.7300 C.3       3 GLY6        0.0000 
     23 CA         23.1200  -88.7400  200.3200 C.3       3 GLY6        0.0000 
     24 CA         24.2000  -89.7000  199.9200 C.3       3 GLY6        0.0000 
     25 CA         25.2900  -90.6500  199.5300 C.3       3 GLY6        0.0000 
     26 CA         24.5000  -89.6200  206.2800 C.3       3 GLY6        0.0000 
     27 CA         24.4100  -89.1300  204.8600 C.3       3 GLY6        0.0000 
     28 CA         22.1500  -86.7400  204.2300 C.3       3 GLY6        0.0000 
     29 CA         23.1500  -87.2200  202.4200 C.3       3 GLY6        0.0000 
     30 CA         25.4400  -88.0800  205.1500 C.3       3 GLY6        0.0000 
     31 CA         23.1800  -85.6900  204.5200 C.3       3 GLY6        0.0000 
     32 CA         24.2600  -86.6500  204.1300 C.3       3 GLY6        0.0000 
     33 CA         25.3500  -87.6000  203.7400 C.3       3 GLY6        0.0000 
     34 CA         23.0900  -85.2100  203.1000 C.3       3 GLY6        0.0000 
     35 CA         24.1700  -86.1600  202.7100 C.3       3 GLY6        0.0000 
     36 CA         23.0000  -84.7300  201.6900 C.3       3 GLY6        0.0000 
     37 CA         27.5600  -87.9900  205.0500 C.3       3 GLY6        0.0000 
     38 CA         24.2100  -84.6400  204.8100 C.3       3 GLY6        0.0000 
     39 CA         27.4700  -87.5000  203.6400 C.3       3 GLY6        0.0000 
     40 CA         25.2000  -85.1100  203.0000 C.3       3 GLY6        0.0000 
     41 CA         26.2900  -86.0700  202.6100 C.3       3 GLY6        0.0000 
     42 CA         27.3800  -87.0200  202.2200 C.3       3 GLY6        0.0000 
     43 CA         25.1100  -84.6300  201.5900 C.3       3 GLY6        0.0000 
     44 CA         26.2000  -85.5900  201.1900 C.3       3 GLY6        0.0000 
     45 DU         23.3300  -88.1800  205.2600 H         4 CUB7        0.0000 
     46 DU         23.2400  -87.7000  203.8400 H         4 CUB7        0.0000 
     47 DU         24.3200  -88.6500  203.4400 H         4 CUB7        0.0000 
     48 DU         24.2300  -88.1700  202.0300 H         4 CUB7        0.0000 
     49 DU         25.3200  -89.1300  201.6300 H         4 CUB7        0.0000 
     50 DU         25.2300  -88.6500  200.2200 H         4 CUB7        0.0000 
     51 DU         26.6200  -89.5200  206.1800 H         4 CUB7        0.0000 
     52 DU         24.3500  -87.1300  205.5500 H         4 CUB7        0.0000 
     53 DU         26.5300  -89.0400  204.7600 H         4 CUB7        0.0000 
     54 DU         26.4400  -88.5600  203.3400 H         4 CUB7        0.0000 
     55 DU         27.5300  -89.5100  202.9500 H         4 CUB7        0.0000 
     56 DU         25.2600  -87.1200  202.3200 H         4 CUB7        0.0000 
     57 DU         26.3500  -88.0800  201.9300 H         4 CUB7        0.0000 
     58 DU         26.2600  -87.5900  200.5100 H         4 CUB7        0.0000 
@<TRIPOS>BOND
@<TRIPOS>SUBSTRUCTURE
     1 ALA2        1 GROUP   
     2 PHE5        3 GROUP   
     3 GLY6       19 GROUP   
     4 CUB7       45 GROUP   
@<TRIPOS>SET

