#    Name: 6c1p_1_1N7
#    Modification time : Fri May 22 19:33:25 2020

@<TRIPOS>MOLECULE
6c1p_1_1N7
   26    31     1     0     0
SMALL
NO_CHARGES


@<TRIPOS>ATOM
      1 C1         24.8170  -85.7880  201.2240 C.3       1 1N71301     0.0000 
      2 C2         25.8900  -86.7380  200.6620 C.3       1 1N71301     0.0000 
      3 C3         26.3400  -85.4510  198.4920 C.3       1 1N71301     0.0000 
      4 C4         26.1990  -85.5120  196.8160 C.3       1 1N71301     0.0000 
      5 C5         26.5860  -86.8430  196.1500 C.3       1 1N71301     0.0000 
      6 C6         26.8150  -88.1240  197.0770 C.3       1 1N71301     0.0000 
      7 C7         27.6470  -89.0980  196.0600 C.3       1 1N71301     0.0000 
      8 C8         27.1120  -88.6760  194.4870 C.3       1 1N71301     0.0000 
      9 C9         26.4700  -87.2670  194.5730 C.3       1 1N71301     0.0000 
     10 C10        25.1010  -87.2250  196.0300 Du        1 1N71301     0.0000 
     11 C11        24.7380  -87.5900  200.1010 Du        1 1N71301     0.0000 
     12 C12        23.8510  -86.3150  202.2780 Du        1 1N71301     0.0000 
     13 C13        24.3640  -87.3830  203.2680 Du        1 1N71301     0.0000 
     14 C14        25.2870  -88.4120  202.5800 C.3       1 1N71301     0.0000 
     15 C15        26.3550  -87.8860  201.6260 C.3       1 1N71301     0.0000 
     16 C16        27.0970  -89.1250  200.8910 C.3       1 1N71301     0.0000 
     17 C17        27.4610  -89.1270  199.3320 C.3       1 1N71301     0.0000 
     18 C18        27.2220  -87.8570  198.5290 C.3       1 1N71301     0.0000 
     19 C19        26.1290  -86.7830  199.1360 C.3       1 1N71301     0.0000 
     20 C20        27.1100  -86.3500  193.6500 C.3       1 1N71301     0.0000 
     21 C21        26.2570  -85.0920  193.3760 C.3       1 1N71301     0.0000 
     22 C22        27.3220  -87.0580  192.2740 C.3       1 1N71301     0.0000 
     23 C23        27.9560  -86.0490  191.2850 C.3       1 1N71301     0.0000 
     24 O2         23.1970  -88.0100  203.7740 Du        1 1N71301     0.0000 
     25 O3         26.7020  -90.1560  198.7740 O.3       1 1N71301     0.0000 
     26 O4         24.9930  -85.0190  196.4190 O.3       1 1N71301     0.0000 
@<TRIPOS>BOND
     1    1    2 1    
     2    1   12 du   
     3    2   11 du   
     4    2   15 1    
     5    2   19 1    
     6    3    4 1    
     7    3   19 1    
     8    4    5 1    
     9    4   26 1    
    10    5    6 1    
    11    5    9 1    
    12    5   10 du   
    13    6    7 1    
    14    6   18 1    
    15    7    8 1    
    16    8    9 1    
    17    9   10 du   
    18    9   20 1    
    19   11   19 du   
    20   12   13 du   
    21   13   14 du   
    22   13   24 du   
    23   14   15 1    
    24   15   16 1    
    25   16   17 1    
    26   17   18 1    
    27   17   25 1    
    28   18   19 1    
    29   20   21 1    
    30   20   22 1    
    31   22   23 1    
@<TRIPOS>SUBSTRUCTURE
     1 1N71301     1 GROUP   
@<TRIPOS>SET

