#    Name: 5zve_2_SAH
#    Modification time : Fri May 22 19:25:55 2020

@<TRIPOS>MOLECULE
5zve_2_SAH
   26    28     1     0     0
SMALL
NO_CHARGES


@<TRIPOS>ATOM
      1 N         -29.9490   -9.1830   27.2330 N.4       1 SAH401      0.0000 
      2 CA        -28.6780   -9.7330   27.6910 C.3       1 SAH401      0.0000 
      3 CB        -28.7560  -10.1700   29.1540 C.3       1 SAH401      0.0000 
      4 CG        -29.5630   -9.2620   30.0860 C.3       1 SAH401      0.0000 
      5 SD        -29.2270   -9.6590   31.8190 S.3       1 SAH401      0.0000 
      6 C         -28.1660  -10.8710   26.8040 C.2       1 SAH401      0.0000 
      7 O         -28.8930  -11.4170   25.9740 O.co2     1 SAH401      0.0000 
      8 OXT       -27.0060  -11.2720   26.8920 O.co2     1 SAH401      0.0000 
      9 C5'       -29.9030   -8.0910   32.4360 C.3       1 SAH401      0.0000 
     10 C4'       -28.9190   -6.9240   32.3990 C.3       1 SAH401      0.0000 
     11 O4'       -29.5480   -5.7510   32.8750 O.3       1 SAH401      0.0000 
     12 C3'       -27.6780   -7.1140   33.2620 C.3       1 SAH401      0.0000 
     13 O3'       -26.5420   -7.1510   32.4300 O.3       1 SAH401      0.0000 
     14 C2'       -27.5920   -5.8770   34.1360 C.3       1 SAH401      0.0000 
     15 O2'       -26.2980   -5.3290   34.0810 O.3       1 SAH401      0.0000 
     16 C1'       -28.5720   -4.9270   33.4790 C.3       1 SAH401      0.0000 
     17 N9        -29.1800   -3.9470   34.4050 N.pl3     1 SAH401      0.0000 
     18 C8        -29.6610   -4.1490   35.6740 C.2       1 SAH401      0.0000 
     19 N7        -30.1370   -2.9720   36.1470 N.2       1 SAH401      0.0000 
     20 C5        -29.9660   -2.0230   35.2000 C.ar      1 SAH401      0.0000 
     21 C6        -30.2670   -0.6660   35.1560 C.ar      1 SAH401      0.0000 
     22 N6        -30.8420   -0.0590   36.1920 N.pl3     1 SAH401      0.0000 
     23 N1        -29.9670    0.0550   34.0200 N.ar      1 SAH401      0.0000 
     24 C2        -29.3710   -0.5660   32.9390 C.ar      1 SAH401      0.0000 
     25 N3        -29.0730   -1.9110   32.9900 N.ar      1 SAH401      0.0000 
     26 C4        -29.3670   -2.6260   34.1030 C.ar      1 SAH401      0.0000 
@<TRIPOS>BOND
     1    1    2 1    
     2    2    3 1    
     3    2    6 1    
     4    3    4 1    
     5    4    5 1    
     6    5    9 1    
     7    6    7 ar   
     8    6    8 ar   
     9    9   10 1    
    10   10   11 1    
    11   10   12 1    
    12   11   16 1    
    13   12   13 1    
    14   12   14 1    
    15   14   15 1    
    16   14   16 1    
    17   16   17 1    
    18   17   18 1    
    19   17   26 1    
    20   18   19 2    
    21   19   20 1    
    22   20   21 ar   
    23   20   26 ar   
    24   21   22 1    
    25   21   23 ar   
    26   23   24 ar   
    27   24   25 ar   
    28   25   26 ar   
@<TRIPOS>SUBSTRUCTURE
     1 SAH401      1 GROUP   
@<TRIPOS>SET

