#    Name: 6q2e_1_MTA_CAVITY_N1_4
#    Modification time : Fri May 22 19:27:59 2020

@<TRIPOS>MOLECULE
6q2e_1_MTA_CAVITY_N1_4
   69     0     6     0     0
SMALL
NO_CHARGES


@<TRIPOS>ATOM
      1 N          -4.2000   39.8700    1.2300 N.am      1 ALA2        0.0000 
      2 N          -4.4600   41.3200    0.9600 N.am      1 ALA2        0.0000 
      3 N          -2.8800   38.7900    2.4800 N.am      1 ALA2        0.0000 
      4 N          -3.6500   43.1500    1.6800 N.am      1 ALA2        0.0000 
      5 N          -4.1600   40.2600    3.3100 N.am      1 ALA2        0.0000 
      6 N          -4.4100   41.7200    3.0500 N.am      1 ALA2        0.0000 
      7 N          -4.6700   43.1700    2.7800 N.am      1 ALA2        0.0000 
      8 N          -3.3400   42.0900    4.0300 N.am      1 ALA2        0.0000 
      9 N          -4.3600   42.1100    5.1300 N.am      1 ALA2        0.0000 
     10 N          -4.6200   43.5600    4.8600 N.am      1 ALA2        0.0000 
     11 N          -5.1300   40.6800    6.5000 N.am      1 ALA2        0.0000 
     12 N          -6.1500   40.7000    7.6000 N.am      1 ALA2        0.0000 
     13 N          -3.3000   42.4800    6.1100 N.am      1 ALA2        0.0000 
     14 N          -3.5500   43.9400    5.8500 N.am      1 ALA2        0.0000 
     15 N          -4.0600   41.0500    7.4800 N.am      1 ALA2        0.0000 
     16 O          -1.9700   41.4000    7.3700 O.2       1 ALA2        0.0000 
     17 O          -0.9000   41.7700    8.3500 O.2       1 ALA2        0.0000 
     18 O          -1.9200   41.7900    9.4500 O.2       1 ALA2        0.0000 
     19 O          -0.5900   40.7100   10.7000 O.2       1 ALA2        0.0000 
     20 N          -0.8500   42.1700   10.4400 N.am      1 ALA2        0.0000 
     21 OD1        -5.5300   40.9500   -0.0200 O.co2     2 ASP3        0.0000 
     22 OD1        -5.2200   39.8900    2.3300 O.co2     2 ASP3        0.0000 
     23 OD1        -5.4800   41.3500    2.0600 O.co2     2 ASP3        0.0000 
     24 OD1        -5.7400   42.8000    1.7900 O.co2     2 ASP3        0.0000 
     25 OD1        -5.9900   38.4600    3.7000 O.co2     2 ASP3        0.0000 
     26 OD1        -6.2400   39.9200    3.4300 O.co2     2 ASP3        0.0000 
     27 OD1        -6.5000   41.3700    3.1600 O.co2     2 ASP3        0.0000 
     28 OD1        -7.0100   38.4800    4.8000 O.co2     2 ASP3        0.0000 
     29 OD1        -5.9400   38.8600    5.7800 O.co2     2 ASP3        0.0000 
     30 NZ         -5.4200   35.9500    6.3200 N.4       3 LYS4        0.0000 
     31 NZ         -6.7000   37.4200    7.1500 N.4       3 LYS4        0.0000 
     32 NZ         -4.6100   37.7700    7.0300 N.4       3 LYS4        0.0000 
     33 NZ         -5.6300   37.8000    8.1300 N.4       3 LYS4        0.0000 
     34 NZ         -3.5400   38.1500    8.0200 N.4       3 LYS4        0.0000 
     35 NZ         -4.5600   38.1700    9.1200 N.4       3 LYS4        0.0000 
     36 CZ         -3.9000   38.8100    3.5800 C.ar      4 PHE5        0.0000 
     37 CZ         -2.8300   39.1800    4.5700 C.ar      4 PHE5        0.0000 
     38 CZ         -3.5900   37.7500    5.9300 C.ar      4 PHE5        0.0000 
     39 CZ         -3.8500   39.2100    5.6700 C.ar      4 PHE5        0.0000 
     40 CZ         -2.5200   38.1200    6.9200 C.ar      4 PHE5        0.0000 
     41 CZ         -2.7800   39.5800    6.6500 C.ar      4 PHE5        0.0000 
     42 CZ         -1.7100   39.9500    7.6400 C.ar      4 PHE5        0.0000 
     43 CZ         -2.4700   38.5200    9.0000 C.ar      4 PHE5        0.0000 
     44 CZ         -1.4000   38.8900    9.9900 C.ar      4 PHE5        0.0000 
     45 CA         -6.7600   42.8200    2.8900 C.3       5 GLY6        0.0000 
     46 CA         -5.1800   40.2900    4.4100 C.3       5 GLY6        0.0000 
     47 CA         -5.4300   41.7400    4.1500 C.3       5 GLY6        0.0000 
     48 CA         -5.6900   43.1900    3.8800 C.3       5 GLY6        0.0000 
     49 CA         -6.2000   40.3100    5.5100 C.3       5 GLY6        0.0000 
     50 CA         -6.7100   43.2100    4.9800 C.3       5 GLY6        0.0000 
     51 CA         -6.9600   38.8800    6.8800 C.3       5 GLY6        0.0000 
     52 CA         -3.0900   40.6400    4.3000 C.3       5 GLY6        0.0000 
     53 CA         -4.1100   40.6600    5.4000 C.3       5 GLY6        0.0000 
     54 CA         -5.8900   39.2500    7.8700 C.3       5 GLY6        0.0000 
     55 CA         -3.0400   41.0300    6.3800 C.3       5 GLY6        0.0000 
     56 CA         -3.8000   39.6000    7.7500 C.3       5 GLY6        0.0000 
     57 CA         -4.8200   39.6200    8.8500 C.3       5 GLY6        0.0000 
     58 CA         -2.7300   39.9700    8.7300 C.3       5 GLY6        0.0000 
     59 CA         -2.9900   41.4200    8.4700 C.3       5 GLY6        0.0000 
     60 CA         -3.4900   38.5400   10.1000 C.3       5 GLY6        0.0000 
     61 CA         -1.6600   40.3400    9.7200 C.3       5 GLY6        0.0000 
     62 CA         -2.4200   38.9100   11.0900 C.3       5 GLY6        0.0000 
     63 CA          0.4300   40.6900    9.6000 C.3       5 GLY6        0.0000 
     64 CA         -1.6100   40.7300   11.8000 C.3       5 GLY6        0.0000 
     65 DU         -4.2500   39.4800   -0.8500 H         6 CUB7        0.0000 
     66 DU         -4.6600   37.3800    4.9500 H         6 CUB7        0.0000 
     67 DU         -4.9200   38.8300    4.6800 H         6 CUB7        0.0000 
     68 DU         -5.6800   37.4000    6.0500 H         6 CUB7        0.0000 
     69 DU         -4.8700   39.2300    6.7700 H         6 CUB7        0.0000 
@<TRIPOS>BOND
@<TRIPOS>SUBSTRUCTURE
     1 ALA2        1 GROUP   
     2 ASP3       21 GROUP   
     3 LYS4       30 GROUP   
     4 PHE5       36 GROUP   
     5 GLY6       45 GROUP   
     6 CUB7       65 GROUP   
@<TRIPOS>SET

