#    Name: 6q2e_1_MTA
#    Modification time : Fri May 22 19:27:57 2020

@<TRIPOS>MOLECULE
6q2e_1_MTA
   20    22     1     0     0
SMALL
NO_CHARGES


@<TRIPOS>ATOM
      1 CS         -5.5390   38.2080    2.5140 C.3       1 MTA401      0.0000 
      2 S5'        -4.7360   39.6240    3.1890 S.3       1 MTA401      0.0000 
      3 C5'        -5.5610   39.7700    4.7370 C.3       1 MTA401      0.0000 
      4 C4'        -5.1050   38.6540    5.6650 C.3       1 MTA401      0.0000 
      5 O4'        -3.7080   38.7890    5.9060 O.3       1 MTA401      0.0000 
      6 C2'        -4.7230   38.0550    7.9270 C.3       1 MTA401      0.0000 
      7 O2'        -4.8840   36.6340    7.7940 O.3       1 MTA401      0.0000 
      8 C3'        -5.7310   38.7390    7.0450 C.3       1 MTA401      0.0000 
      9 O3'        -6.9630   38.0310    7.0930 O.3       1 MTA401      0.0000 
     10 C1'        -3.4160   38.3870    7.2480 C.3       1 MTA401      0.0000 
     11 N9         -2.7660   39.5080    7.9420 N.pl3     1 MTA401      0.0000 
     12 C8         -2.8220   40.8060    7.6010 C.2       1 MTA401      0.0000 
     13 N7         -2.0900   41.5470    8.4520 N.2       1 MTA401      0.0000 
     14 C5         -1.5640   40.7000    9.3620 C.ar      1 MTA401      0.0000 
     15 C6         -0.6880   40.8180   10.5400 C.ar      1 MTA401      0.0000 
     16 N6         -0.2280   42.0230   10.9320 N.pl3     1 MTA401      0.0000 
     17 N1         -0.3600   39.6790   11.1870 N.ar      1 MTA401      0.0000 
     18 C2         -0.8200   38.4750   10.7910 C.ar      1 MTA401      0.0000 
     19 N3         -1.6310   38.2930    9.7380 N.ar      1 MTA401      0.0000 
     20 C4         -2.0040   39.3580    9.0010 C.ar      1 MTA401      0.0000 
@<TRIPOS>BOND
     1    1    2 1    
     2    2    3 1    
     3    3    4 1    
     4    4    5 1    
     5    4    8 1    
     6    5   10 1    
     7    6    7 1    
     8    6    8 1    
     9    6   10 1    
    10    8    9 1    
    11   10   11 1    
    12   11   12 1    
    13   11   20 1    
    14   12   13 2    
    15   13   14 1    
    16   14   15 ar   
    17   14   20 ar   
    18   15   16 1    
    19   15   17 ar   
    20   17   18 ar   
    21   18   19 ar   
    22   19   20 ar   
@<TRIPOS>SUBSTRUCTURE
     1 MTA401      1 GROUP   
@<TRIPOS>SET

