#    Name: 6q2e_2_MTA_CAVITY_N1_8
#    Modification time : Fri May 22 19:28:04 2020

@<TRIPOS>MOLECULE
6q2e_2_MTA_CAVITY_N1_8
   89     0     7     0     0
SMALL
NO_CHARGES


@<TRIPOS>ATOM
      1 OG         20.1100   32.1000   28.0400 O.3       1 SER1        0.0000 
      2 N          17.5200   31.2400   17.4700 N.am      2 ALA2        0.0000 
      3 N          19.4000   33.4300   19.1700 N.am      2 ALA2        0.0000 
      4 N          17.6100   32.0200   21.6300 N.am      2 ALA2        0.0000 
      5 N          21.4900   33.7800   19.0500 N.am      2 ALA2        0.0000 
      6 N          20.7200   32.3500   20.4200 N.am      2 ALA2        0.0000 
      7 N          20.4700   33.8100   20.1500 N.am      2 ALA2        0.0000 
      8 N          19.7000   32.3700   21.5200 N.am      2 ALA2        0.0000 
      9 N          19.4500   33.8300   21.2500 N.am      2 ALA2        0.0000 
     10 N          18.6800   32.4000   22.6200 N.am      2 ALA2        0.0000 
     11 N          22.8100   32.7000   20.3100 N.am      2 ALA2        0.0000 
     12 N          22.5600   34.1600   20.0400 N.am      2 ALA2        0.0000 
     13 N          22.3000   35.6100   19.7700 N.am      2 ALA2        0.0000 
     14 N          21.2800   35.6300   20.8700 N.am      2 ALA2        0.0000 
     15 N          20.5200   34.2000   22.2400 N.am      2 ALA2        0.0000 
     16 N          19.7500   32.7700   23.6000 N.am      2 ALA2        0.0000 
     17 N          18.7300   32.7900   24.7000 N.am      2 ALA2        0.0000 
     18 N          23.3700   35.9800   20.7500 N.am      2 ALA2        0.0000 
     19 O          22.8600   33.1000   22.3900 O.2       2 ALA2        0.0000 
     20 N          22.6000   34.5500   22.1200 N.am      2 ALA2        0.0000 
     21 N          22.3500   36.0000   21.8500 N.am      2 ALA2        0.0000 
     22 O          22.0900   37.4500   21.5900 O.2       2 ALA2        0.0000 
     23 O          21.8400   33.1200   23.4900 O.2       2 ALA2        0.0000 
     24 N          20.5600   34.5900   24.3200 N.am      2 ALA2        0.0000 
     25 N          19.8000   33.1600   25.6900 N.am      2 ALA2        0.0000 
     26 O          23.1700   32.0400   24.7400 O.2       2 ALA2        0.0000 
     27 O          22.9100   33.4900   24.4700 O.2       2 ALA2        0.0000 
     28 O          22.4000   36.3900   23.9400 O.2       2 ALA2        0.0000 
     29 O          21.3700   36.4200   25.0400 O.2       2 ALA2        0.0000 
     30 OD1        18.1300   29.1200   22.1700 O.co2     3 ASP3        0.0000 
     31 OD1        17.8700   30.5700   21.9000 O.co2     3 ASP3        0.0000 
     32 OD1        18.9400   30.9400   22.8900 O.co2     3 ASP3        0.0000 
     33 OD1        17.9200   30.9600   23.9900 O.co2     3 ASP3        0.0000 
     34 OD1        22.1000   31.6600   23.7600 O.co2     3 ASP3        0.0000 
     35 OD1        21.0800   31.6900   24.8600 O.co2     3 ASP3        0.0000 
     36 NZ         15.6900   29.4400   17.8500 N.4       4 LYS4        0.0000 
     37 NZ         14.9200   28.0000   19.2200 N.4       4 LYS4        0.0000 
     38 NZ         14.6700   29.4600   18.9500 N.4       4 LYS4        0.0000 
     39 NZ         17.0100   28.3500   19.1000 N.4       4 LYS4        0.0000 
     40 NZ         16.2500   26.9200   20.4700 N.4       4 LYS4        0.0000 
     41 NZ         15.9900   28.3800   20.2000 N.4       4 LYS4        0.0000 
     42 NZ         17.3200   27.2900   21.4500 N.4       4 LYS4        0.0000 
     43 NZ         17.0600   28.7500   21.1900 N.4       4 LYS4        0.0000 
     44 CZ         15.4300   30.8900   17.5800 C.ar      5 PHE5        0.0000 
     45 CZ         14.4100   30.9100   18.6800 C.ar      5 PHE5        0.0000 
     46 CZ         16.5000   31.2600   18.5700 C.ar      5 PHE5        0.0000 
     47 CZ         15.7300   29.8300   19.9300 C.ar      5 PHE5        0.0000 
     48 CZ         14.7100   29.8500   21.0300 C.ar      5 PHE5        0.0000 
     49 CZ         15.7800   30.2200   22.0200 C.ar      5 PHE5        0.0000 
     50 CZ         19.5400   34.6100   25.4200 C.ar      5 PHE5        0.0000 
     51 CZ         22.1500   32.0600   25.8400 C.ar      5 PHE5        0.0000 
     52 CZ         21.1300   32.0800   26.9400 C.ar      5 PHE5        0.0000 
     53 CZ         20.6100   34.9900   26.4000 C.ar      5 PHE5        0.0000 
     54 CZ         19.8500   33.5500   27.7700 C.ar      5 PHE5        0.0000 
     55 CZ         23.2200   32.4300   26.8300 C.ar      5 PHE5        0.0000 
     56 CA         16.7100   29.4100   16.7500 C.3       6 GLY6        0.0000 
     57 CA         16.4500   30.8700   16.4800 C.3       6 GLY6        0.0000 
     58 CA         18.0300   28.3300   18.0000 C.3       6 GLY6        0.0000 
     59 CA         17.7800   29.7900   17.7300 C.3       6 GLY6        0.0000 
     60 CA         17.2700   26.9000   19.3700 C.3       6 GLY6        0.0000 
     61 CA         16.5100   25.4700   20.7400 C.3       6 GLY6        0.0000 
     62 CA         18.8400   30.1600   18.7200 C.3       6 GLY6        0.0000 
     63 CA         18.0800   28.7300   20.0900 C.3       6 GLY6        0.0000 
     64 CA         17.8200   30.1800   19.8200 C.3       6 GLY6        0.0000 
     65 CA         17.5700   31.6300   19.5500 C.3       6 GLY6        0.0000 
     66 CA         16.5500   31.6500   20.6500 C.3       6 GLY6        0.0000 
     67 CA         18.8900   30.5500   20.8000 C.3       6 GLY6        0.0000 
     68 CA         18.6400   32.0000   20.5400 C.3       6 GLY6        0.0000 
     69 CA         18.3800   33.4600   20.2700 C.3       6 GLY6        0.0000 
     70 CA         21.7900   32.7200   21.4100 C.3       6 GLY6        0.0000 
     71 CA         20.7700   32.7500   22.5000 C.3       6 GLY6        0.0000 
     72 CA         20.2600   35.6500   21.9700 C.3       6 GLY6        0.0000 
     73 CA         21.3300   36.0200   22.9500 C.3       6 GLY6        0.0000 
     74 CA         23.6700   34.9200   23.1100 C.3       6 GLY6        0.0000 
     75 CA         23.4200   36.3700   22.8400 C.3       6 GLY6        0.0000 
     76 CA         22.6500   34.9400   24.2100 C.3       6 GLY6        0.0000 
     77 CA         23.7200   35.3100   25.1900 C.3       6 GLY6        0.0000 
     78 CA         22.9600   33.8800   26.5600 C.3       6 GLY6        0.0000 
     79 CA         22.2000   32.4500   27.9300 C.3       6 GLY6        0.0000 
     80 CA         21.9400   33.9000   27.6600 C.3       6 GLY6        0.0000 
     81 DU         16.7600   29.8100   18.8300 H         7 CUB7        0.0000 
     82 DU         16.8000   30.2000   20.9200 H         7 CUB7        0.0000 
     83 DU         16.8500   30.5900   23.0000 H         7 CUB7        0.0000 
     84 DU         21.5400   34.1800   21.1400 H         7 CUB7        0.0000 
     85 DU         21.5800   34.5700   23.2200 H         7 CUB7        0.0000 
     86 DU         20.8200   33.1400   24.5900 H         7 CUB7        0.0000 
     87 DU         21.8900   33.5100   25.5700 H         7 CUB7        0.0000 
     88 DU         21.6300   34.9600   25.3100 H         7 CUB7        0.0000 
     89 DU         20.8700   33.5300   26.6700 H         7 CUB7        0.0000 
@<TRIPOS>BOND
@<TRIPOS>SUBSTRUCTURE
     1 SER1        1 GROUP   
     2 ALA2        2 GROUP   
     3 ASP3       30 GROUP   
     4 LYS4       36 GROUP   
     5 PHE5       44 GROUP   
     6 GLY6       56 GROUP   
     7 CUB7       81 GROUP   
@<TRIPOS>SET

