#    Name: 6q2e_2_MTA_CAVITY_N1_4
#    Modification time : Fri May 22 19:28:04 2020

@<TRIPOS>MOLECULE
6q2e_2_MTA_CAVITY_N1_4
   45     0     6     0     0
SMALL
NO_CHARGES


@<TRIPOS>ATOM
      1 N          17.5200   31.2400   17.4700 N.am      1 ALA2        0.0000 
      2 N          19.4000   33.4300   19.1700 N.am      1 ALA2        0.0000 
      3 N          17.6100   32.0200   21.6300 N.am      1 ALA2        0.0000 
      4 N          20.7200   32.3500   20.4200 N.am      1 ALA2        0.0000 
      5 N          19.7000   32.3700   21.5200 N.am      1 ALA2        0.0000 
      6 N          19.4500   33.8300   21.2500 N.am      1 ALA2        0.0000 
      7 N          18.6800   32.4000   22.6200 N.am      1 ALA2        0.0000 
      8 N          19.7500   32.7700   23.6000 N.am      1 ALA2        0.0000 
      9 N          18.7300   32.7900   24.7000 N.am      1 ALA2        0.0000 
     10 OD1        18.1300   29.1200   22.1700 O.co2     2 ASP3        0.0000 
     11 OD1        17.8700   30.5700   21.9000 O.co2     2 ASP3        0.0000 
     12 OD1        18.9400   30.9400   22.8900 O.co2     2 ASP3        0.0000 
     13 OD1        17.9200   30.9600   23.9900 O.co2     2 ASP3        0.0000 
     14 NZ         15.6900   29.4400   17.8500 N.4       3 LYS4        0.0000 
     15 NZ         14.9200   28.0000   19.2200 N.4       3 LYS4        0.0000 
     16 NZ         14.6700   29.4600   18.9500 N.4       3 LYS4        0.0000 
     17 NZ         17.0100   28.3500   19.1000 N.4       3 LYS4        0.0000 
     18 NZ         16.2500   26.9200   20.4700 N.4       3 LYS4        0.0000 
     19 NZ         15.9900   28.3800   20.2000 N.4       3 LYS4        0.0000 
     20 NZ         17.3200   27.2900   21.4500 N.4       3 LYS4        0.0000 
     21 NZ         17.0600   28.7500   21.1900 N.4       3 LYS4        0.0000 
     22 CZ         15.4300   30.8900   17.5800 C.ar      4 PHE5        0.0000 
     23 CZ         14.4100   30.9100   18.6800 C.ar      4 PHE5        0.0000 
     24 CZ         16.5000   31.2600   18.5700 C.ar      4 PHE5        0.0000 
     25 CZ         15.7300   29.8300   19.9300 C.ar      4 PHE5        0.0000 
     26 CZ         14.7100   29.8500   21.0300 C.ar      4 PHE5        0.0000 
     27 CZ         15.7800   30.2200   22.0200 C.ar      4 PHE5        0.0000 
     28 CA         16.7100   29.4100   16.7500 C.3       5 GLY6        0.0000 
     29 CA         16.4500   30.8700   16.4800 C.3       5 GLY6        0.0000 
     30 CA         18.0300   28.3300   18.0000 C.3       5 GLY6        0.0000 
     31 CA         17.7800   29.7900   17.7300 C.3       5 GLY6        0.0000 
     32 CA         17.2700   26.9000   19.3700 C.3       5 GLY6        0.0000 
     33 CA         16.5100   25.4700   20.7400 C.3       5 GLY6        0.0000 
     34 CA         18.8400   30.1600   18.7200 C.3       5 GLY6        0.0000 
     35 CA         18.0800   28.7300   20.0900 C.3       5 GLY6        0.0000 
     36 CA         17.8200   30.1800   19.8200 C.3       5 GLY6        0.0000 
     37 CA         17.5700   31.6300   19.5500 C.3       5 GLY6        0.0000 
     38 CA         16.5500   31.6500   20.6500 C.3       5 GLY6        0.0000 
     39 CA         18.8900   30.5500   20.8000 C.3       5 GLY6        0.0000 
     40 CA         18.6400   32.0000   20.5400 C.3       5 GLY6        0.0000 
     41 CA         18.3800   33.4600   20.2700 C.3       5 GLY6        0.0000 
     42 CA         20.7700   32.7500   22.5000 C.3       5 GLY6        0.0000 
     43 DU         16.7600   29.8100   18.8300 H         6 CUB7        0.0000 
     44 DU         16.8000   30.2000   20.9200 H         6 CUB7        0.0000 
     45 DU         16.8500   30.5900   23.0000 H         6 CUB7        0.0000 
@<TRIPOS>BOND
@<TRIPOS>SUBSTRUCTURE
     1 ALA2        1 GROUP   
     2 ASP3       10 GROUP   
     3 LYS4       14 GROUP   
     4 PHE5       22 GROUP   
     5 GLY6       28 GROUP   
     6 CUB7       43 GROUP   
@<TRIPOS>SET

