#    Name: 6q2e_2_MTA
#    Modification time : Fri May 22 19:28:03 2020

@<TRIPOS>MOLECULE
6q2e_2_MTA
   20    22     1     0     0
SMALL
NO_CHARGES


@<TRIPOS>ATOM
      1 CS         17.0930   29.9730   23.5790 C.3       1 MTA401      0.0000 
      2 S5'        17.7200   31.2420   22.5250 S.3       1 MTA401      0.0000 
      3 C5'        18.1790   30.2980   21.1120 C.3       1 MTA401      0.0000 
      4 C4'        16.9260   29.8430   20.3850 C.3       1 MTA401      0.0000 
      5 O4'        16.2220   30.9750   19.8780 O.3       1 MTA401      0.0000 
      6 C2'        16.1560   29.2940   18.2070 C.3       1 MTA401      0.0000 
      7 O2'        15.0930   28.3760   18.4650 O.3       1 MTA401      0.0000 
      8 C3'        17.2620   28.9840   19.1860 C.3       1 MTA401      0.0000 
      9 O3'        17.2160   27.6090   19.5610 O.3       1 MTA401      0.0000 
     10 C1'        15.6590   30.6740   18.6010 C.3       1 MTA401      0.0000 
     11 N9         16.0490   31.7250   17.6250 N.pl3     1 MTA401      0.0000 
     12 C8         17.1190   32.5490   17.6990 C.2       1 MTA401      0.0000 
     13 N7         17.1500   33.4070   16.6370 N.2       1 MTA401      0.0000 
     14 C5         16.0670   33.1190   15.8770 C.ar      1 MTA401      0.0000 
     15 C6         15.4890   33.6310   14.6200 C.ar      1 MTA401      0.0000 
     16 N6         16.1110   34.6350   13.9660 N.pl3     1 MTA401      0.0000 
     17 N1         14.3350   33.0710   14.1640 N.ar      1 MTA401      0.0000 
     18 C2         13.7330   32.0720   14.8350 C.ar      1 MTA401      0.0000 
     19 N3         14.2020   31.5510   15.9830 N.ar      1 MTA401      0.0000 
     20 C4         15.3470   32.0240   16.5330 C.ar      1 MTA401      0.0000 
@<TRIPOS>BOND
     1    1    2 1    
     2    2    3 1    
     3    3    4 1    
     4    4    5 1    
     5    4    8 1    
     6    5   10 1    
     7    6    7 1    
     8    6    8 1    
     9    6   10 1    
    10    8    9 1    
    11   10   11 1    
    12   11   12 1    
    13   11   20 1    
    14   12   13 2    
    15   13   14 1    
    16   14   15 ar   
    17   14   20 ar   
    18   15   16 1    
    19   15   17 ar   
    20   17   18 ar   
    21   18   19 ar   
    22   19   20 ar   
@<TRIPOS>SUBSTRUCTURE
     1 MTA401      1 GROUP   
@<TRIPOS>SET

