#    Name: 6na5_3_NDP
#    Modification time : Fri May 22 19:39:05 2020

@<TRIPOS>MOLECULE
6na5_3_NDP
   48    53     1     0     1
SMALL
NO_CHARGES


@<TRIPOS>ATOM
      1 PA        -38.2380   57.1300  -80.5860 P.3       1 NDP501      0.0000 
      2 O1A       -39.2600   56.2830  -81.2860 O.co2     1 NDP501      0.0000 
      3 O2A       -38.3700   58.5790  -80.8860 O.co2     1 NDP501      0.0000 
      4 O5B       -38.3170   56.8290  -78.9560 O.3       1 NDP501      0.0000 
      5 C5B       -37.3450   57.4440  -78.1200 C.3       1 NDP501      0.0000 
      6 C4B       -38.0520   57.6970  -76.7760 C.3       1 NDP501      0.0000 
      7 O4B       -37.2630   58.2870  -75.9980 O.3       1 NDP501      0.0000 
      8 C3B       -39.2150   58.7130  -77.0340 C.3       1 NDP501      0.0000 
      9 O3B       -40.3720   57.9810  -77.2580 O.3       1 NDP501      0.0000 
     10 C2B       -39.2820   59.4890  -75.7520 C.3       1 NDP501      0.0000 
     11 O2B       -40.3800   58.8000  -74.9610 O.3       1 NDP501      0.0000 
     12 C1B       -38.1230   59.3370  -75.1220 C.3       1 NDP501      0.0000 
     13 N9A       -37.3920   60.5430  -75.0140 N.pl3     1 NDP501      0.0000 
     14 C8A       -37.0870   61.3550  -76.0080 C.2       1 NDP501      0.0000 
     15 N7A       -36.4000   62.3800  -75.5480 N.2       1 NDP501      0.0000 
     16 C5A       -36.2480   62.2370  -74.2250 C.ar      1 NDP501      0.0000 
     17 C6A       -35.6340   62.9810  -73.2080 C.ar      1 NDP501      0.0000 
     18 N6A       -34.9510   64.2350  -73.5150 N.pl3     1 NDP501      0.0000 
     19 N1A       -35.6780   62.5340  -71.9590 N.ar      1 NDP501      0.0000 
     20 C2A       -36.2940   61.3990  -71.6620 C.ar      1 NDP501      0.0000 
     21 N3A       -36.8750   60.6760  -72.6010 N.ar      1 NDP501      0.0000 
     22 C4A       -36.8780   61.0640  -73.8870 C.ar      1 NDP501      0.0000 
     23 O3        -36.7310   56.7340  -81.1760 O.3       1 NDP501      0.0000 
     24 PN        -36.0540   55.2240  -81.0620 P.3       1 NDP501      0.0000 
     25 O1N       -36.2020   54.4980  -82.4150 O.co2     1 NDP501      0.0000 
     26 O2N       -36.6120   54.4620  -79.9380 O.co2     1 NDP501      0.0000 
     27 O5D       -34.4830   55.6880  -80.6760 O.3       1 NDP501      0.0000 
     28 C5D       -34.1080   56.9370  -81.2320 C.3       1 NDP501      0.0000 
     29 C4D       -32.5570   57.1700  -81.1440 C.3       1 NDP501      0.0000 
     30 O4D       -31.9140   56.5620  -82.1030 O.3       1 NDP501      0.0000 
     31 C3D       -32.2610   56.3570  -79.8310 Du        1 NDP501      0.0000 
     32 O3D       -31.9780   57.1280  -78.7740 Du        1 NDP501      0.0000 
     33 C2D       -31.0920   55.5820  -80.3200 C.3       1 NDP501      0.0000 
     34 O2D       -30.1170   56.5280  -80.9830 O.3       1 NDP501      0.0000 
     35 C1D       -31.7290   55.1540  -81.3060 C.3       1 NDP501      0.0000 
     36 N1N       -31.1650   53.9710  -81.7700 N.pl3     1 NDP501      0.0000 
     37 C2N       -29.8690   53.6240  -81.6830 C.2       1 NDP501      0.0000 
     38 C3N       -29.5610   52.3610  -82.1510 C.2       1 NDP501      0.0000 
     39 C7N       -28.1580   51.7230  -82.2010 C.2       1 NDP501      0.0000 
     40 O7N       -28.0640   50.7010  -82.7830 O.2       1 NDP501      0.0000 
     41 N7N       -27.0430   52.3090  -81.5380 N.am      1 NDP501      0.0000 
     42 C4N       -30.5440   51.5430  -82.6280 C.3       1 NDP501      0.0000 
     43 C5N       -31.8590   51.9720  -82.6130 C.2       1 NDP501      0.0000 
     44 C6N       -32.1230   53.2140  -82.1730 C.2       1 NDP501      0.0000 
     45 P2B       -41.3450   59.7660  -73.9270 P.3       1 NDP501      0.0000 
     46 O1X       -41.3460   61.1560  -74.4900 O.co2     1 NDP501      0.0000 
     47 O2X       -40.7490   59.7590  -72.5250 O.co2     1 NDP501      0.0000 
     48 O3X       -42.7500   59.1780  -73.9490 O.co2     1 NDP501      0.0000 
@<TRIPOS>BOND
     1    1    2 ar   
     2    1    3 ar   
     3    1    4 1    
     4    1   23 1    
     5    4    5 1    
     6    5    6 1    
     7    6    7 1    
     8    6    8 1    
     9    7   12 1    
    10    8    9 1    
    11    8   10 1    
    12   10   11 1    
    13   10   12 1    
    14   11   45 1    
    15   12   13 1    
    16   13   14 1    
    17   13   22 1    
    18   14   15 2    
    19   15   16 1    
    20   16   17 ar   
    21   16   22 ar   
    22   17   18 1    
    23   17   19 ar   
    24   19   20 ar   
    25   20   21 ar   
    26   21   22 ar   
    27   23   24 1    
    28   24   25 ar   
    29   24   26 ar   
    30   24   27 1    
    31   27   28 1    
    32   28   29 1    
    33   29   30 1    
    34   29   31 du   
    35   30   35 1    
    36   31   32 du   
    37   31   33 du   
    38   31   35 du   
    39   33   34 1    
    40   33   35 1    
    41   35   36 1    
    42   36   37 1    
    43   36   44 1    
    44   37   38 2    
    45   38   39 1    
    46   38   42 1    
    47   39   40 2    
    48   39   41 am   
    49   42   43 1    
    50   43   44 2    
    51   45   46 ar   
    52   45   47 ar   
    53   45   48 ar   
@<TRIPOS>SUBSTRUCTURE
     1 NDP501      1 GROUP   
@<TRIPOS>SET
ATOM$ORANGE STATIC     ATOMS   COLORGROUP SYSTEM 
40 5 5 6 6 8 8 10 10 12 12 14 14 16 16 17 17 20 \
20 22 22 28 28 29 29 33 33 35 35 37 37 38 38 39 39 42 \
42 43 43 44 44 

