#    Name: 6na5_1_NDP
#    Modification time : Fri May 22 19:38:48 2020

@<TRIPOS>MOLECULE
6na5_1_NDP
   48    52     1     0     1
SMALL
NO_CHARGES


@<TRIPOS>ATOM
      1 PA        -37.3680   13.2540  -57.3270 P.3       1 NDP501      0.0000 
      2 O1A       -38.4900   14.0890  -56.7710 O.co2     1 NDP501      0.0000 
      3 O2A       -37.5720   11.8290  -56.9620 O.co2     1 NDP501      0.0000 
      4 O5B       -37.2740   13.3280  -58.9810 O.3       1 NDP501      0.0000 
      5 C5B       -36.2510   12.5180  -59.5520 C.3       1 NDP501      0.0000 
      6 C4B       -36.5220   12.3190  -61.0620 C.3       1 NDP501      0.0000 
      7 O4B       -35.5210   11.7640  -61.5830 O.3       1 NDP501      0.0000 
      8 C3B       -37.6980   11.2920  -61.3030 C.3       1 NDP501      0.0000 
      9 O3B       -38.8990   11.9640  -61.4710 O.3       1 NDP501      0.0000 
     10 C2B       -37.3100   10.5530  -62.5570 C.3       1 NDP501      0.0000 
     11 O2B       -38.2180   10.9900  -63.7070 O.3       1 NDP501      0.0000 
     12 C1B       -36.0870   10.9390  -62.8580 C.3       1 NDP501      0.0000 
     13 N9A       -35.2410    9.8390  -63.1150 N.pl3     1 NDP501      0.0000 
     14 C8A       -34.7320    9.0280  -62.2090 C.2       1 NDP501      0.0000 
     15 N7A       -33.9830    8.1190  -62.8040 N.2       1 NDP501      0.0000 
     16 C5A       -34.0020    8.3420  -64.1230 C.ar      1 NDP501      0.0000 
     17 C6A       -33.4170    7.7310  -65.2390 C.ar      1 NDP501      0.0000 
     18 N6A       -32.5580    6.5580  -65.0710 N.pl3     1 NDP501      0.0000 
     19 N1A       -33.6570    8.2330  -66.4510 N.ar      1 NDP501      0.0000 
     20 C2A       -34.4380    9.2960  -66.6060 C.ar      1 NDP501      0.0000 
     21 N3A       -35.0010    9.8960  -65.5750 N.ar      1 NDP501      0.0000 
     22 C4A       -34.8030    9.4450  -64.3230 C.ar      1 NDP501      0.0000 
     23 O3        -35.8840   13.7940  -56.6930 O.3       1 NDP501      0.0000 
     24 PN        -35.2840   15.3320  -56.9690 P.3       1 NDP501      0.0000 
     25 O1N       -35.6620   16.2440  -55.7680 O.co2     1 NDP501      0.0000 
     26 O2N       -35.8760   15.8500  -58.2150 O.co2     1 NDP501      0.0000 
     27 O5D       -33.5960   15.2380  -57.2230 O.3       1 NDP501      0.0000 
     28 C5D       -32.9050   14.0060  -57.1100 C.3       1 NDP501      0.0000 
     29 C4D       -32.3360   13.8910  -55.6370 C.3       1 NDP501      0.0000 
     30 O4D       -32.3320   15.0500  -55.1170 O.3       1 NDP501      0.0000 
     31 C3D       -30.8070   13.4970  -55.6260 C.3       1 NDP501      0.0000 
     32 O3D       -30.5120   12.7570  -54.5270 O.3       1 NDP501      0.0000 
     33 C2D       -30.0670   14.8230  -55.5790 C.3       1 NDP501      0.0000 
     34 O2D       -29.3860   14.9800  -54.2420 O.3       1 NDP501      0.0000 
     35 C1D       -31.0110   15.7220  -55.7920 C.3       1 NDP501      0.0000 
     36 N1N       -30.8060   17.0390  -55.3020 N.pl3     1 NDP501      0.0000 
     37 C2N       -29.6100   17.6350  -55.3710 C.2       1 NDP501      0.0000 
     38 C3N       -29.4680   18.9190  -54.8760 C.2       1 NDP501      0.0000 
     39 C7N       -28.1020   19.6650  -54.9160 C.2       1 NDP501      0.0000 
     40 O7N       -28.0070   20.6950  -54.3320 O.2       1 NDP501      0.0000 
     41 N7N       -26.9780   19.1420  -55.6520 N.am      1 NDP501      0.0000 
     42 C4N       -30.5710   19.5680  -54.3540 C.3       1 NDP501      0.0000 
     43 C5N       -31.7940   18.9200  -54.3280 C.2       1 NDP501      0.0000 
     44 C6N       -31.8590   17.6420  -54.8160 C.2       1 NDP501      0.0000 
     45 P2B       -39.6140   10.0750  -64.1380 P.3       1 NDP501      0.0000 
     46 O1X       -39.0310   10.2890  -65.4860 O.co2     1 NDP501      0.0000 
     47 O2X       -40.2410   11.0040  -63.1000 O.co2     1 NDP501      0.0000 
     48 O3X       -40.8470   10.4920  -64.9300 O.co2     1 NDP501      0.0000 
@<TRIPOS>BOND
     1    1    2 ar   
     2    1    3 ar   
     3    1    4 1    
     4    1   23 1    
     5    4    5 1    
     6    5    6 1    
     7    6    7 1    
     8    6    8 1    
     9    7   12 1    
    10    8    9 1    
    11    8   10 1    
    12   10   11 1    
    13   10   12 1    
    14   11   45 1    
    15   12   13 1    
    16   13   14 1    
    17   13   22 1    
    18   14   15 2    
    19   15   16 1    
    20   16   17 ar   
    21   16   22 ar   
    22   17   18 1    
    23   17   19 ar   
    24   19   20 ar   
    25   20   21 ar   
    26   21   22 ar   
    27   23   24 1    
    28   24   25 ar   
    29   24   26 ar   
    30   24   27 1    
    31   27   28 1    
    32   28   29 1    
    33   29   30 1    
    34   29   31 1    
    35   30   35 1    
    36   31   32 1    
    37   31   33 1    
    38   33   34 1    
    39   33   35 1    
    40   35   36 1    
    41   36   37 1    
    42   36   44 1    
    43   37   38 2    
    44   38   39 1    
    45   38   42 1    
    46   39   40 2    
    47   39   41 am   
    48   42   43 1    
    49   43   44 2    
    50   45   46 ar   
    51   45   47 ar   
    52   45   48 ar   
@<TRIPOS>SUBSTRUCTURE
     1 NDP501      1 GROUP   
@<TRIPOS>SET
ATOM$ORANGE STATIC     ATOMS   COLORGROUP SYSTEM 
42 5 5 6 6 8 8 10 10 12 12 14 14 16 16 17 17 20 \
20 22 22 28 28 29 29 31 31 33 33 35 35 37 37 38 38 39 \
39 42 42 43 43 44 44 

