#    Name: 6na5_1_NDP_CAVITY_N1_6
#    Modification time : Fri May 22 19:38:49 2020

@<TRIPOS>MOLECULE
6na5_1_NDP_CAVITY_N1_6
   72     0     6     0     0
SMALL
NO_CHARGES


@<TRIPOS>ATOM
      1 OG        -34.1800    7.9500  -61.9300 O.3       1 SER1        0.0000 
      2 OG        -33.1400    8.4600  -62.8900 O.3       1 SER1        0.0000 
      3 OG        -34.3100    9.8800  -61.0600 O.3       1 SER1        0.0000 
      4 OG        -38.4000   11.5100  -57.5700 O.3       1 SER1        0.0000 
      5 OG        -37.5700   10.2900  -57.3200 O.3       1 SER1        0.0000 
      6 OG        -37.3600   12.0200  -58.5300 O.3       1 SER1        0.0000 
      7 OG        -36.5300   10.7900  -58.2700 O.3       1 SER1        0.0000 
      8 OG        -34.6600   10.0800  -58.9700 O.3       1 SER1        0.0000 
      9 OG        -36.6700   12.7200  -57.4000 O.3       1 SER1        0.0000 
     10 OG        -35.8400   11.5000  -57.1500 O.3       1 SER1        0.0000 
     11 OG        -35.0100   10.2700  -56.8900 O.3       1 SER1        0.0000 
     12 O         -40.8300    9.5900  -58.8800 O.2       2 ALA2        0.0000 
     13 N         -40.6200   11.3300  -60.0900 N.am      2 ALA2        0.0000 
     14 N         -39.5800   11.8300  -61.0400 N.am      2 ALA2        0.0000 
     15 N         -40.1300   10.3000  -57.7500 N.am      2 ALA2        0.0000 
     16 N         -39.0900   10.8100  -58.7000 N.am      2 ALA2        0.0000 
     17 N         -38.2600    9.5800  -58.4500 N.am      2 ALA2        0.0000 
     18 O         -37.4400    8.3600  -58.1900 O.2       2 ALA2        0.0000 
     19 N         -35.7000    9.5700  -58.0200 N.am      2 ALA2        0.0000 
     20 O         -37.5000   13.9400  -57.6500 O.2       2 ALA2        0.0000 
     21 OD1       -37.4300    7.2600  -63.4900 O.co2     3 ASP3        0.0000 
     22 OD1       -35.5600    6.5400  -64.1900 O.co2     3 ASP3        0.0000 
     23 OD1       -35.3500    8.2700  -65.4000 O.co2     3 ASP3        0.0000 
     24 OD1       -33.6900    5.8300  -64.8900 O.co2     3 ASP3        0.0000 
     25 OD1       -34.3100    8.7800  -66.3500 O.co2     3 ASP3        0.0000 
     26 OD1       -33.4800    7.5600  -66.1000 O.co2     3 ASP3        0.0000 
     27 OD1       -37.5700    9.1900  -62.6200 O.co2     3 ASP3        0.0000 
     28 OD1       -36.7400    7.9600  -62.3600 O.co2     3 ASP3        0.0000 
     29 OD1       -36.5300    9.6900  -63.5700 O.co2     3 ASP3        0.0000 
     30 OD1       -35.7000    8.4700  -63.3200 O.co2     3 ASP3        0.0000 
     31 OD1       -34.8700    7.2500  -63.0600 O.co2     3 ASP3        0.0000 
     32 OD1       -35.4900   10.2000  -64.5200 O.co2     3 ASP3        0.0000 
     33 OD1       -34.6600    8.9800  -64.2700 O.co2     3 ASP3        0.0000 
     34 OD1       -33.8300    7.7500  -64.0200 O.co2     3 ASP3        0.0000 
     35 OD1       -39.7900   10.1000  -59.8300 O.co2     3 ASP3        0.0000 
     36 CZ        -35.9700   12.3300  -61.5700 C.ar      4 PHE5        0.0000 
     37 CZ        -35.2800   13.0300  -60.4400 C.ar      4 PHE5        0.0000 
     38 CA        -37.3600   10.9200  -63.8200 C.3       5 GLY6        0.0000 
     39 CA        -33.0000    6.5300  -63.7600 C.3       5 GLY6        0.0000 
     40 CA        -34.4500   10.7100  -65.4800 C.3       5 GLY6        0.0000 
     41 CA        -33.6200    9.4800  -65.2200 C.3       5 GLY6        0.0000 
     42 CA        -32.7900    8.2600  -64.9700 C.3       5 GLY6        0.0000 
     43 CA        -40.0000    8.3700  -58.6200 C.3       5 GLY6        0.0000 
     44 CA        -38.5400   12.3400  -62.0000 C.3       5 GLY6        0.0000 
     45 CA        -36.6700   11.6200  -62.7000 C.3       5 GLY6        0.0000 
     46 CA        -35.6300   12.1300  -63.6500 C.3       5 GLY6        0.0000 
     47 CA        -34.8000   10.9000  -63.4000 C.3       5 GLY6        0.0000 
     48 CA        -33.9700    9.6800  -63.1400 C.3       5 GLY6        0.0000 
     49 CA        -39.9200   12.0300  -58.9600 C.3       5 GLY6        0.0000 
     50 CA        -38.8800   12.5400  -59.9100 C.3       5 GLY6        0.0000 
     51 CA        -37.8400   13.0400  -60.8700 C.3       5 GLY6        0.0000 
     52 CA        -36.8000   13.5500  -61.8200 C.3       5 GLY6        0.0000 
     53 CA        -39.2300   12.7300  -57.8300 C.3       5 GLY6        0.0000 
     54 CA        -38.1900   13.2400  -58.7800 C.3       5 GLY6        0.0000 
     55 CA        -37.1500   13.7500  -59.7400 C.3       5 GLY6        0.0000 
     56 CA        -33.9700   10.7800  -57.8500 C.3       5 GLY6        0.0000 
     57 DU        -38.9600    8.8800  -59.5800 H         6 CUB7        0.0000 
     58 DU        -38.7500   10.6100  -60.7900 H         6 CUB7        0.0000 
     59 DU        -37.9200    9.3800  -60.5300 H         6 CUB7        0.0000 
     60 DU        -37.7100   11.1100  -61.7400 H         6 CUB7        0.0000 
     61 DU        -35.8400   10.4000  -62.4400 H         6 CUB7        0.0000 
     62 DU        -35.0100    9.1700  -62.1900 H         6 CUB7        0.0000 
     63 DU        -38.0500   11.3100  -59.6600 H         6 CUB7        0.0000 
     64 DU        -37.2200   10.0900  -59.4000 H         6 CUB7        0.0000 
     65 DU        -36.3900    8.8700  -59.1500 H         6 CUB7        0.0000 
     66 DU        -37.0100   11.8200  -60.6100 H         6 CUB7        0.0000 
     67 DU        -36.1800   10.6000  -60.3600 H         6 CUB7        0.0000 
     68 DU        -35.3500    9.3700  -60.1000 H         6 CUB7        0.0000 
     69 DU        -36.3200   12.5200  -59.4800 H         6 CUB7        0.0000 
     70 DU        -35.4900   11.3000  -59.2300 H         6 CUB7        0.0000 
     71 DU        -35.6300   13.2300  -58.3500 H         6 CUB7        0.0000 
     72 DU        -34.8000   12.0000  -58.1000 H         6 CUB7        0.0000 
@<TRIPOS>BOND
@<TRIPOS>SUBSTRUCTURE
     1 SER1        1 GROUP   
     2 ALA2       12 GROUP   
     3 ASP3       21 GROUP   
     4 PHE5       36 GROUP   
     5 GLY6       38 GROUP   
     6 CUB7       57 GROUP   
@<TRIPOS>SET

