#    Name: 6na5_2_NDP
#    Modification time : Fri May 22 19:38:56 2020

@<TRIPOS>MOLECULE
6na5_2_NDP
   48    52     1     0     1
SMALL
NO_CHARGES


@<TRIPOS>ATOM
      1 PA         -1.0970   58.3970  -54.8900 P.3       1 NDP501      0.0000 
      2 O1A         0.0070   57.6610  -54.1880 O.co2     1 NDP501      0.0000 
      3 O2A        -0.9790   59.8620  -54.7330 O.co2     1 NDP501      0.0000 
      4 O5B        -1.1020   58.0610  -56.5240 O.3       1 NDP501      0.0000 
      5 C5B        -2.0940   58.7610  -57.2690 C.3       1 NDP501      0.0000 
      6 C4B        -1.4820   59.2510  -58.6030 C.3       1 NDP501      0.0000 
      7 O4B        -2.3910   59.7500  -59.3220 O.3       1 NDP501      0.0000 
      8 C3B        -0.5350   60.4840  -58.3620 C.3       1 NDP501      0.0000 
      9 O3B         0.7220   60.0720  -57.9610 O.3       1 NDP501      0.0000 
     10 C2B        -0.4960   61.1040  -59.7290 C.3       1 NDP501      0.0000 
     11 O2B         0.6680   60.4490  -60.4720 O.3       1 NDP501      0.0000 
     12 C1B        -1.6450   60.7960  -60.3110 C.3       1 NDP501      0.0000 
     13 N9A        -2.4810   61.9210  -60.4860 N.pl3     1 NDP501      0.0000 
     14 C8A        -2.9600   62.6920  -59.5200 C.2       1 NDP501      0.0000 
     15 N7A        -3.7070   63.6420  -60.0550 N.2       1 NDP501      0.0000 
     16 C5A        -3.7140   63.4830  -61.3880 C.ar      1 NDP501      0.0000 
     17 C6A        -4.3020   64.1590  -62.4580 C.ar      1 NDP501      0.0000 
     18 N6A        -5.1450   65.3330  -62.2220 N.pl3     1 NDP501      0.0000 
     19 N1A        -4.0940   63.7170  -63.6940 N.ar      1 NDP501      0.0000 
     20 C2A        -3.3400   62.6530  -63.9270 C.ar      1 NDP501      0.0000 
     21 N3A        -2.7700   61.9940  -62.9370 N.ar      1 NDP501      0.0000 
     22 C4A        -2.9350   62.3820  -61.6580 C.ar      1 NDP501      0.0000 
     23 O3         -2.5600   57.8590  -54.2580 O.3       1 NDP501      0.0000 
     24 PN         -3.1380   56.3120  -54.4950 P.3       1 NDP501      0.0000 
     25 O1N        -2.9730   55.5080  -53.1840 O.co2     1 NDP501      0.0000 
     26 O2N        -2.4990   55.6440  -55.6450 O.co2     1 NDP501      0.0000 
     27 O5D        -4.7780   56.5800  -54.8280 O.3       1 NDP501      0.0000 
     28 C5D        -5.3350   56.9640  -53.6020 C.3       1 NDP501      0.0000 
     29 C4D        -6.7250   57.7110  -53.6480 C.3       1 NDP501      0.0000 
     30 O4D        -7.5470   56.9660  -53.0180 O.3       1 NDP501      0.0000 
     31 C3D        -7.3430   57.8250  -55.0710 C.3       1 NDP501      0.0000 
     32 O3D        -8.1010   58.9340  -54.9930 O.3       1 NDP501      0.0000 
     33 C2D        -8.2100   56.5870  -55.0490 C.3       1 NDP501      0.0000 
     34 O2D        -9.4970   57.0130  -54.3880 O.3       1 NDP501      0.0000 
     35 C1D        -7.5640   55.8770  -54.2060 C.3       1 NDP501      0.0000 
     36 N1N        -8.0040   54.5920  -53.8580 N.pl3     1 NDP501      0.0000 
     37 C2N        -9.2630   54.1660  -53.9840 C.2       1 NDP501      0.0000 
     38 C3N        -9.5030   52.8750  -53.5900 C.2       1 NDP501      0.0000 
     39 C7N       -10.8620   52.1410  -53.6540 C.2       1 NDP501      0.0000 
     40 O7N       -11.8630   52.5030  -54.1850 O.2       1 NDP501      0.0000 
     41 N7N       -10.7760   50.8830  -53.0520 N.am      1 NDP501      0.0000 
     42 C4N        -8.4840   52.0840  -53.1040 C.3       1 NDP501      0.0000 
     43 C5N        -7.2000   52.5900  -53.0300 C.2       1 NDP501      0.0000 
     44 C6N        -7.0200   53.8780  -53.4140 C.2       1 NDP501      0.0000 
     45 P2B         1.7090   61.4720  -61.3860 P.3       1 NDP501      0.0000 
     46 O1X         1.7410   62.8270  -60.7480 O.co2     1 NDP501      0.0000 
     47 O2X         1.2090   61.5890  -62.8260 O.co2     1 NDP501      0.0000 
     48 O3X         3.1050   60.8680  -61.3790 O.co2     1 NDP501      0.0000 
@<TRIPOS>BOND
     1    1    2 ar   
     2    1    3 ar   
     3    1    4 1    
     4    1   23 1    
     5    4    5 1    
     6    5    6 1    
     7    6    7 1    
     8    6    8 1    
     9    7   12 1    
    10    8    9 1    
    11    8   10 1    
    12   10   11 1    
    13   10   12 1    
    14   11   45 1    
    15   12   13 1    
    16   13   14 1    
    17   13   22 1    
    18   14   15 2    
    19   15   16 1    
    20   16   17 ar   
    21   16   22 ar   
    22   17   18 1    
    23   17   19 ar   
    24   19   20 ar   
    25   20   21 ar   
    26   21   22 ar   
    27   23   24 1    
    28   24   25 ar   
    29   24   26 ar   
    30   24   27 1    
    31   27   28 1    
    32   28   29 1    
    33   29   30 1    
    34   29   31 1    
    35   30   35 1    
    36   31   32 1    
    37   31   33 1    
    38   33   34 1    
    39   33   35 1    
    40   35   36 1    
    41   36   37 1    
    42   36   44 1    
    43   37   38 2    
    44   38   39 1    
    45   38   42 1    
    46   39   40 2    
    47   39   41 am   
    48   42   43 1    
    49   43   44 2    
    50   45   46 ar   
    51   45   47 ar   
    52   45   48 ar   
@<TRIPOS>SUBSTRUCTURE
     1 NDP501      1 GROUP   
@<TRIPOS>SET
ATOM$ORANGE STATIC     ATOMS   COLORGROUP SYSTEM 
42 5 5 6 6 8 8 10 10 12 12 14 14 16 16 17 17 20 \
20 22 22 28 28 29 29 31 31 33 33 35 35 37 37 38 38 39 \
39 42 42 43 43 44 44 

