#    Name: 6fek_1_ADN
#    Modification time : Fri May 22 19:25:03 2020

@<TRIPOS>MOLECULE
6fek_1_ADN
   32    34     1     0     0
SMALL
NO_CHARGES


@<TRIPOS>ATOM
      1 O5'        24.2310  -15.8140    7.6790 O.3       1 ADN1104     0.0000 
      2 C5'        25.0990  -15.7350    8.8080 C.3       1 ADN1104     0.0000 
      3 C4'        26.3010  -14.8540    8.5320 C.3       1 ADN1104     0.0000 
      4 O4'        25.8700  -13.5160    8.2070 O.3       1 ADN1104     0.0000 
      5 C3'        27.2910  -14.7040    9.6770 C.3       1 ADN1104     0.0000 
      6 O3'        28.6140  -14.5340    9.1610 O.3       1 ADN1104     0.0000 
      7 C2'        26.8480  -13.4180   10.3900 C.3       1 ADN1104     0.0000 
      8 O2'        27.9280  -12.6370   10.8600 O.3       1 ADN1104     0.0000 
      9 C1'        26.0160  -12.6620    9.3300 C.3       1 ADN1104     0.0000 
     10 N9         24.6660  -12.3010    9.7850 N.pl3     1 ADN1104     0.0000 
     11 C8         23.5520  -13.0170    9.5990 C.2       1 ADN1104     0.0000 
     12 N7         22.5380  -12.3710   10.1640 N.2       1 ADN1104     0.0000 
     13 C5         23.0170  -11.2550   10.7120 C.ar      1 ADN1104     0.0000 
     14 C6         22.3810  -10.2580   11.4060 C.ar      1 ADN1104     0.0000 
     15 N6         20.9960  -10.0530   11.8010 N.pl3     1 ADN1104     0.0000 
     16 N1         23.0750   -9.2250   11.8620 N.ar      1 ADN1104     0.0000 
     17 C2         24.4110   -9.1610   11.6410 C.ar      1 ADN1104     0.0000 
     18 N3         25.0360  -10.1500   10.9560 N.ar      1 ADN1104     0.0000 
     19 C4         24.3330  -11.2020   10.4890 C.ar      1 ADN1104     0.0000 
     20 HO5'       24.5900  -15.4210    7.0170 H         1 ADN1104     0.0000 
     21 H5'1       24.6070  -15.3710    9.5600 H         1 ADN1104     0.0000 
     22 H5'2       25.4070  -16.6270    9.0340 H         1 ADN1104     0.0000 
     23 H4'        26.7760  -15.2140    7.7670 H         1 ADN1104     0.0000 
     24 H3'        27.2420  -15.4650   10.2770 H         1 ADN1104     0.0000 
     25 HO3'       28.6870  -14.9530    8.4250 H         1 ADN1104     0.0000 
     26 H2'        26.2740  -13.6530   11.1360 H         1 ADN1104     0.0000 
     27 HO2'       28.5370  -13.1480   11.1620 H         1 ADN1104     0.0000 
     28 H1'        26.4940  -11.8610    9.0630 H         1 ADN1104     0.0000 
     29 H8         23.4950  -13.8260    9.1460 H         1 ADN1104     0.0000 
     30 HN61       20.7730   -9.3480   12.2400 H         1 ADN1104     0.0000 
     31 HN62       20.3990  -10.6370   11.5940 H         1 ADN1104     0.0000 
     32 H2         24.9000   -8.4380   11.9620 H         1 ADN1104     0.0000 
@<TRIPOS>BOND
     1    1    2 1    
     2    1   20 1    
     3    2    3 1    
     4    2   21 1    
     5    2   22 1    
     6    3    4 1    
     7    3    5 1    
     8    3   23 1    
     9    4    9 1    
    10    5    6 1    
    11    5    7 1    
    12    5   24 1    
    13    6   25 1    
    14    7    8 1    
    15    7    9 1    
    16    7   26 1    
    17    8   27 1    
    18    9   10 1    
    19    9   28 1    
    20   10   11 1    
    21   10   19 1    
    22   11   12 2    
    23   11   29 1    
    24   12   13 1    
    25   13   14 ar   
    26   13   19 ar   
    27   14   15 1    
    28   14   16 ar   
    29   15   30 1    
    30   15   31 1    
    31   16   17 ar   
    32   17   18 ar   
    33   17   32 1    
    34   18   19 ar   
@<TRIPOS>SUBSTRUCTURE
     1 ADN1104     1 GROUP   
@<TRIPOS>SET

