#    Name: 6a2m_2_UMP
#    Modification time : Fri May 22 19:27:36 2020

@<TRIPOS>MOLECULE
6a2m_2_UMP
   20    21     1     0     1
SMALL
NO_CHARGES


@<TRIPOS>ATOM
      1 N1        -14.9750  -20.5860   19.0130 N.am      1 UMP703      0.0000 
      2 C2        -14.1200  -20.0310   20.0220 C.2       1 UMP703      0.0000 
      3 N3        -13.2440  -20.8190   20.6380 N.am      1 UMP703      0.0000 
      4 C4        -13.1260  -22.1120   20.3660 C.2       1 UMP703      0.0000 
      5 C5        -13.9690  -22.7080   19.4080 C.2       1 UMP703      0.0000 
      6 C6        -14.8720  -21.9000   18.7260 C.2       1 UMP703      0.0000 
      7 O2        -14.1540  -18.8150   20.3430 O.2       1 UMP703      0.0000 
      8 O4        -12.2910  -22.8120   20.9870 O.2       1 UMP703      0.0000 
      9 C1'       -15.9680  -19.7490   18.3310 C.3       1 UMP703      0.0000 
     10 C2'       -15.3830  -18.6260   17.4890 C.3       1 UMP703      0.0000 
     11 C3'       -16.4910  -18.4450   16.4580 C.3       1 UMP703      0.0000 
     12 C4'       -17.0490  -19.8510   16.2470 C.3       1 UMP703      0.0000 
     13 O3'       -17.5090  -17.5870   16.9580 O.3       1 UMP703      0.0000 
     14 O4'       -16.7930  -20.5490   17.4640 O.3       1 UMP703      0.0000 
     15 C5'       -16.3840  -20.5870   15.0730 C.3       1 UMP703      0.0000 
     16 O5'       -16.9140  -20.0630   13.8540 O.3       1 UMP703      0.0000 
     17 P         -16.0750  -19.7060   12.5860 P.3       1 UMP703      0.0000 
     18 OP1       -17.0390  -19.0610   11.6180 O.co2     1 UMP703      0.0000 
     19 OP2       -15.0410  -18.6800   12.9870 O.co2     1 UMP703      0.0000 
     20 OP3       -15.4830  -21.0260   12.1930 O.co2     1 UMP703      0.0000 
@<TRIPOS>BOND
     1    1    2 1    
     2    1    6 1    
     3    1    9 1    
     4    2    3 1    
     5    2    7 2    
     6    3    4 1    
     7    4    5 1    
     8    4    8 2    
     9    5    6 2    
    10    9   10 1    
    11    9   14 1    
    12   10   11 1    
    13   11   12 1    
    14   11   13 1    
    15   12   14 1    
    16   12   15 1    
    17   15   16 1    
    18   16   17 1    
    19   17   18 ar   
    20   17   19 ar   
    21   17   20 ar   
@<TRIPOS>SUBSTRUCTURE
     1 UMP703      1 GROUP   
@<TRIPOS>SET
ATOM$ORANGE STATIC     ATOMS   COLORGROUP SYSTEM 
18 2 2 4 4 5 5 6 6 9 9 10 10 11 11 12 12 15 \
15 

