#    Name: 6a2m_2_UMP_CAVITY_N1_4
#    Modification time : Fri May 22 19:27:38 2020

@<TRIPOS>MOLECULE
6a2m_2_UMP_CAVITY_N1_4
   64     0     7     0     0
SMALL
NO_CHARGES


@<TRIPOS>ATOM
      1 OG        -19.4900  -19.1600   17.4800 O.3       1 SER1        0.0000 
      2 OG        -17.9700  -18.4100   16.2100 O.3       1 SER1        0.0000 
      3 OG        -18.0200  -19.4200   17.3100 O.3       1 SER1        0.0000 
      4 OG        -16.5000  -18.6700   16.0400 O.3       1 SER1        0.0000 
      5 O         -17.3400  -24.8800   18.4400 O.2       2 ALA2        0.0000 
      6 O         -15.9300  -26.1600   19.3700 O.2       2 ALA2        0.0000 
      7 N         -15.4000  -21.0200   15.9700 N.am      2 ALA2        0.0000 
      8 N         -15.0900  -19.9500   16.9700 N.am      2 ALA2        0.0000 
      9 N         -15.1400  -20.9700   18.0700 N.am      2 ALA2        0.0000 
     10 N         -13.7300  -22.2500   19.0100 N.am      2 ALA2        0.0000 
     11 N         -14.7800  -18.8800   17.9800 N.am      2 ALA2        0.0000 
     12 O         -15.0000  -22.9500   22.3800 O.2       2 ALA2        0.0000 
     13 N         -13.3700  -20.1600   18.9100 N.am      2 ALA2        0.0000 
     14 N         -13.4200  -21.1800   20.0100 N.am      2 ALA2        0.0000 
     15 O         -13.4800  -22.1900   21.1100 O.2       2 ALA2        0.0000 
     16 O         -13.5300  -23.2100   22.2100 O.2       2 ALA2        0.0000 
     17 O         -13.5900  -24.2300   23.3100 O.2       2 ALA2        0.0000 
     18 O         -11.9600  -21.4400   19.8400 O.2       2 ALA2        0.0000 
     19 O         -12.0100  -22.4600   20.9400 O.2       2 ALA2        0.0000 
     20 O         -12.1200  -24.4900   23.1400 O.2       2 ALA2        0.0000 
     21 O         -14.5200  -18.8300   20.0800 O.2       2 ALA2        0.0000 
     22 OD1       -17.1700  -21.8300   15.1400 O.co2     3 ASP3        0.0000 
     23 OD1       -18.2800  -19.4800   15.2100 O.co2     3 ASP3        0.0000 
     24 OD1       -18.3300  -20.4900   16.3100 O.co2     3 ASP3        0.0000 
     25 OD1       -16.8100  -19.7400   15.0400 O.co2     3 ASP3        0.0000 
     26 OD1       -16.8600  -20.7600   16.1400 O.co2     3 ASP3        0.0000 
     27 NZ        -19.5400  -20.1700   18.5900 N.4       4 LYS4        0.0000 
     28 NZ        -13.9000  -25.3000   22.3100 N.4       4 LYS4        0.0000 
     29 NZ        -17.7700  -19.3700   19.4200 N.4       4 LYS4        0.0000 
     30 NZ        -17.8200  -20.3800   20.5200 N.4       4 LYS4        0.0000 
     31 NZ        -17.8800  -21.4000   21.6200 N.4       4 LYS4        0.0000 
     32 CZ        -14.4600  -26.4200   19.2000 C.ar      5 PHE5        0.0000 
     33 CZ        -12.3200  -23.5300   19.9400 C.ar      5 PHE5        0.0000 
     34 CA        -15.8700  -25.1400   18.2700 C.3       6 GLY6        0.0000 
     35 CA        -12.2600  -22.5100   18.8400 C.3       6 GLY6        0.0000 
     36 CA        -17.7100  -18.3500   18.3200 C.3       6 GLY6        0.0000 
     37 CA        -16.2400  -18.6200   18.1500 C.3       6 GLY6        0.0000 
     38 CA        -16.3000  -19.6300   19.2500 C.3       6 GLY6        0.0000 
     39 CA        -16.3500  -20.6500   20.3500 C.3       6 GLY6        0.0000 
     40 CA        -16.4100  -21.6700   21.4500 C.3       6 GLY6        0.0000 
     41 CA        -14.8300  -19.9000   19.0800 C.3       6 GLY6        0.0000 
     42 CA        -14.9400  -21.9300   21.2800 C.3       6 GLY6        0.0000 
     43 CA        -16.0400  -19.5800   21.3500 C.3       6 GLY6        0.0000 
     44 CA        -14.5800  -19.8400   21.1800 C.3       6 GLY6        0.0000 
     45 CA        -14.6900  -21.8800   23.3900 C.3       6 GLY6        0.0000 
     46 DU        -18.3900  -21.5100   17.4100 H         7 CUB7        0.0000 
     47 DU        -16.9200  -21.7700   17.2400 H         7 CUB7        0.0000 
     48 DU        -16.9700  -22.7900   18.3400 H         7 CUB7        0.0000 
     49 DU        -17.0900  -24.8200   20.5500 H         7 CUB7        0.0000 
     50 DU        -15.6200  -25.0900   20.3800 H         7 CUB7        0.0000 
     51 DU        -14.1000  -24.3400   19.1000 H         7 CUB7        0.0000 
     52 DU        -14.1500  -25.3500   20.2100 H         7 CUB7        0.0000 
     53 DU        -18.0800  -20.4400   18.4200 H         7 CUB7        0.0000 
     54 DU        -18.1300  -21.4600   19.5200 H         7 CUB7        0.0000 
     55 DU        -18.1900  -22.4700   20.6200 H         7 CUB7        0.0000 
     56 DU        -16.5500  -19.6900   17.1400 H         7 CUB7        0.0000 
     57 DU        -16.6100  -20.7000   18.2500 H         7 CUB7        0.0000 
     58 DU        -16.7800  -23.7500   21.5500 H         7 CUB7        0.0000 
     59 DU        -15.2000  -21.9800   19.1800 H         7 CUB7        0.0000 
     60 DU        -15.3100  -24.0200   21.3800 H         7 CUB7        0.0000 
     61 DU        -13.7900  -23.2700   20.1100 H         7 CUB7        0.0000 
     62 DU        -13.8400  -24.2800   21.2100 H         7 CUB7        0.0000 
     63 DU        -14.8900  -20.9100   20.1800 H         7 CUB7        0.0000 
     64 DU        -15.0500  -23.9600   23.4900 H         7 CUB7        0.0000 
@<TRIPOS>BOND
@<TRIPOS>SUBSTRUCTURE
     1 SER1        1 GROUP   
     2 ALA2        5 GROUP   
     3 ASP3       22 GROUP   
     4 LYS4       27 GROUP   
     5 PHE5       32 GROUP   
     6 GLY6       34 GROUP   
     7 CUB7       46 GROUP   
@<TRIPOS>SET

