#    Name: 6a2m_4_UMP
#    Modification time : Fri May 22 19:27:50 2020

@<TRIPOS>MOLECULE
6a2m_4_UMP
   20    21     1     0     1
SMALL
NO_CHARGES


@<TRIPOS>ATOM
      1 N1         14.1960  -14.5020    9.2390 N.am      1 UMP703      0.0000 
      2 C2         13.4490  -13.2990    9.2930 C.2       1 UMP703      0.0000 
      3 N3         12.6380  -13.0010    8.2820 N.am      1 UMP703      0.0000 
      4 C4         12.5010  -13.7850    7.2000 C.2       1 UMP703      0.0000 
      5 C5         13.2330  -14.9700    7.0970 C.2       1 UMP703      0.0000 
      6 C6         14.0890  -15.2940    8.1360 C.2       1 UMP703      0.0000 
      7 O2         13.5110  -12.4990   10.2490 O.2       1 UMP703      0.0000 
      8 O4         11.7260  -13.4440    6.2720 O.2       1 UMP703      0.0000 
      9 C1'        15.1660  -14.8700   10.2920 C.3       1 UMP703      0.0000 
     10 C2'        14.6470  -15.3270   11.6460 C.3       1 UMP703      0.0000 
     11 C3'        15.8960  -16.0510   12.1470 C.3       1 UMP703      0.0000 
     12 C4'        16.4100  -16.7840   10.9110 C.3       1 UMP703      0.0000 
     13 O3'        16.8700  -15.0670   12.5720 O.3       1 UMP703      0.0000 
     14 O4'        16.0240  -15.9560    9.8380 O.3       1 UMP703      0.0000 
     15 C5'        15.7800  -18.1440   10.6260 C.3       1 UMP703      0.0000 
     16 O5'        16.1750  -19.0190   11.6660 O.3       1 UMP703      0.0000 
     17 P          15.2550  -20.0880   12.3560 P.3       1 UMP703      0.0000 
     18 OP1        16.2260  -20.8360   13.2300 O.co2     1 UMP703      0.0000 
     19 OP2        14.2750  -19.2930   13.2040 O.co2     1 UMP703      0.0000 
     20 OP3        14.6430  -20.8780   11.2530 O.co2     1 UMP703      0.0000 
@<TRIPOS>BOND
     1    1    2 1    
     2    1    6 1    
     3    1    9 1    
     4    2    3 1    
     5    2    7 2    
     6    3    4 1    
     7    4    5 1    
     8    4    8 2    
     9    5    6 2    
    10    9   10 1    
    11    9   14 1    
    12   10   11 1    
    13   11   12 1    
    14   11   13 1    
    15   12   14 1    
    16   12   15 1    
    17   15   16 1    
    18   16   17 1    
    19   17   18 ar   
    20   17   19 ar   
    21   17   20 ar   
@<TRIPOS>SUBSTRUCTURE
     1 UMP703      1 GROUP   
@<TRIPOS>SET
ATOM$ORANGE STATIC     ATOMS   COLORGROUP SYSTEM 
18 2 2 4 4 5 5 6 6 9 9 10 10 11 11 12 12 15 \
15 

