#    Name: 6a2m_4_UMP_CAVITY_N1_4
#    Modification time : Fri May 22 19:27:52 2020

@<TRIPOS>MOLECULE
6a2m_4_UMP_CAVITY_N1_4
   59     0     5     0     0
SMALL
NO_CHARGES


@<TRIPOS>ATOM
      1 OG         12.3700  -14.4400    7.1000 O.3       1 SER1        0.0000 
      2 OG         15.4500  -16.9500   11.0700 O.3       1 SER1        0.0000 
      3 OG         15.4000  -17.9700   12.1700 O.3       1 SER1        0.0000 
      4 OG         15.7600  -15.8800   12.0700 O.3       1 SER1        0.0000 
      5 OG         17.2800  -15.1300   10.8000 O.3       1 SER1        0.0000 
      6 OG         17.2300  -16.1500   11.9000 O.3       1 SER1        0.0000 
      7 O          14.6900  -17.1100    4.7500 O.2       2 ALA2        0.0000 
      8 O          12.4900  -12.4100    4.8900 O.2       2 ALA2        0.0000 
      9 O          12.4300  -13.4300    6.0000 O.2       2 ALA2        0.0000 
     10 N          13.7900  -15.7200    8.0300 N.am      2 ALA2        0.0000 
     11 N          15.2500  -15.9900    7.8600 N.am      2 ALA2        0.0000 
     12 N          15.1400  -18.0200   10.0600 N.am      2 ALA2        0.0000 
     13 O          12.7400  -12.3600    7.0000 O.2       2 ALA2        0.0000 
     14 N          12.6800  -13.3700    8.1000 N.am      2 ALA2        0.0000 
     15 N          12.6300  -14.3900    9.2000 N.am      2 ALA2        0.0000 
     16 N          14.1000  -14.6500    9.0300 N.am      2 ALA2        0.0000 
     17 N          14.0400  -15.6700   10.1300 N.am      2 ALA2        0.0000 
     18 N          13.9800  -16.6900   11.2400 N.am      2 ALA2        0.0000 
     19 N          15.5100  -15.9400    9.9600 N.am      2 ALA2        0.0000 
     20 N          12.9900  -12.3000    9.1000 N.am      2 ALA2        0.0000 
     21 O          12.9400  -13.3200   10.2100 O.2       2 ALA2        0.0000 
     22 N          14.3500  -14.6000   11.1400 N.am      2 ALA2        0.0000 
     23 OD1        15.0900  -19.0400   11.1600 O.co2     3 ASP3        0.0000 
     24 OD1        16.6100  -18.2900    9.8900 O.co2     3 ASP3        0.0000 
     25 OD1        18.1300  -17.5400    8.6200 O.co2     3 ASP3        0.0000 
     26 OD1        16.9200  -17.2200   10.8900 O.co2     3 ASP3        0.0000 
     27 OD1        16.8600  -18.2300   12.0000 O.co2     3 ASP3        0.0000 
     28 OD1        18.4400  -16.4600    9.6200 O.co2     3 ASP3        0.0000 
     29 OD1        18.3800  -17.4800   10.7200 O.co2     3 ASP3        0.0000 
     30 OD1        19.9100  -16.7300    9.4500 O.co2     3 ASP3        0.0000 
     31 CA         13.6400  -13.7500    3.7200 C.3       4 GLY6        0.0000 
     32 CA         16.4100  -17.3300    6.6800 C.3       4 GLY6        0.0000 
     33 CA         17.8200  -18.6100    7.6200 C.3       4 GLY6        0.0000 
     34 CA         14.0100  -11.6600    3.6200 C.3       4 GLY6        0.0000 
     35 CA         14.2600  -11.6000    5.7300 C.3       4 GLY6        0.0000 
     36 CA         14.2100  -12.6200    6.8300 C.3       4 GLY6        0.0000 
     37 CA         14.4600  -12.5700    8.9300 C.3       4 GLY6        0.0000 
     38 CA         14.4100  -13.5800   10.0400 C.3       4 GLY6        0.0000 
     39 CA         15.8200  -14.8600   10.9700 C.3       4 GLY6        0.0000 
     40 DU         14.7400  -16.1000    3.6500 H         5 CUB7        0.0000 
     41 DU         13.5900  -14.7600    4.8200 H         5 CUB7        0.0000 
     42 DU         13.5300  -15.7800    5.9200 H         5 CUB7        0.0000 
     43 DU         15.0500  -15.0300    4.6500 H         5 CUB7        0.0000 
     44 DU         15.0000  -16.0400    5.7500 H         5 CUB7        0.0000 
     45 DU         16.4600  -16.3100    5.5800 H         5 CUB7        0.0000 
     46 DU         13.9500  -12.6800    4.7200 H         5 CUB7        0.0000 
     47 DU         13.9000  -13.6900    5.8300 H         5 CUB7        0.0000 
     48 DU         13.8400  -14.7100    6.9300 H         5 CUB7        0.0000 
     49 DU         15.4200  -12.9400    4.5500 H         5 CUB7        0.0000 
     50 DU         15.3100  -14.9700    6.7600 H         5 CUB7        0.0000 
     51 DU         16.8300  -14.2200    5.4800 H         5 CUB7        0.0000 
     52 DU         16.7200  -16.2500    7.6900 H         5 CUB7        0.0000 
     53 DU         16.6600  -17.2700    8.7900 H         5 CUB7        0.0000 
     54 DU         18.1900  -16.5200    7.5200 H         5 CUB7        0.0000 
     55 DU         14.1500  -13.6400    7.9300 H         5 CUB7        0.0000 
     56 DU         15.5600  -14.9200    8.8600 H         5 CUB7        0.0000 
     57 DU         17.0300  -15.1800    8.6900 H         5 CUB7        0.0000 
     58 DU         16.9700  -16.2000    9.7900 H         5 CUB7        0.0000 
     59 DU         18.5500  -14.4300    7.4200 H         5 CUB7        0.0000 
@<TRIPOS>BOND
@<TRIPOS>SUBSTRUCTURE
     1 SER1        1 GROUP   
     2 ALA2        7 GROUP   
     3 ASP3       23 GROUP   
     4 GLY6       31 GROUP   
     5 CUB7       40 GROUP   
@<TRIPOS>SET

