#    Name: 6a2m_4_UMP_CAVITY_N1_6
#    Modification time : Fri May 22 19:27:52 2020

@<TRIPOS>MOLECULE
6a2m_4_UMP_CAVITY_N1_6
   82     0     6     0     0
SMALL
NO_CHARGES


@<TRIPOS>ATOM
      1 OG         12.3700  -14.4400    7.1000 O.3       1 SER1        0.0000 
      2 OG         15.4500  -16.9500   11.0700 O.3       1 SER1        0.0000 
      3 OG         15.4000  -17.9700   12.1700 O.3       1 SER1        0.0000 
      4 OG         15.7600  -15.8800   12.0700 O.3       1 SER1        0.0000 
      5 OG         17.2800  -15.1300   10.8000 O.3       1 SER1        0.0000 
      6 OG         17.2300  -16.1500   11.9000 O.3       1 SER1        0.0000 
      7 O          14.6900  -17.1100    4.7500 O.2       2 ALA2        0.0000 
      8 O          16.2100  -16.3600    3.4800 O.2       2 ALA2        0.0000 
      9 O          16.1500  -17.3800    4.5800 O.2       2 ALA2        0.0000 
     10 O          17.5700  -18.6600    5.5100 O.2       2 ALA2        0.0000 
     11 N          18.9800  -19.9400    6.4400 N.am      2 ALA2        0.0000 
     12 N          16.5200  -15.2900    4.4800 N.am      2 ALA2        0.0000 
     13 O          17.9300  -16.5700    5.4100 O.2       2 ALA2        0.0000 
     14 N          19.3400  -17.8500    6.3400 N.am      2 ALA2        0.0000 
     15 O          12.4900  -12.4100    4.8900 O.2       2 ALA2        0.0000 
     16 O          12.4300  -13.4300    6.0000 O.2       2 ALA2        0.0000 
     17 N          13.7900  -15.7200    8.0300 N.am      2 ALA2        0.0000 
     18 N          15.2500  -15.9900    7.8600 N.am      2 ALA2        0.0000 
     19 N          15.1400  -18.0200   10.0600 N.am      2 ALA2        0.0000 
     20 O          12.7400  -12.3600    7.0000 O.2       2 ALA2        0.0000 
     21 N          12.6800  -13.3700    8.1000 N.am      2 ALA2        0.0000 
     22 N          12.6300  -14.3900    9.2000 N.am      2 ALA2        0.0000 
     23 N          14.1000  -14.6500    9.0300 N.am      2 ALA2        0.0000 
     24 N          14.0400  -15.6700   10.1300 N.am      2 ALA2        0.0000 
     25 N          13.9800  -16.6900   11.2400 N.am      2 ALA2        0.0000 
     26 N          15.5100  -15.9400    9.9600 N.am      2 ALA2        0.0000 
     27 N          12.9900  -12.3000    9.1000 N.am      2 ALA2        0.0000 
     28 O          12.9400  -13.3200   10.2100 O.2       2 ALA2        0.0000 
     29 N          14.3500  -14.6000   11.1400 N.am      2 ALA2        0.0000 
     30 N          16.0900   -9.7800    5.4600 N.am      2 ALA2        0.0000 
     31 OD1        19.2900  -18.8700    7.4500 O.co2     3 ASP3        0.0000 
     32 OD1        15.0900  -19.0400   11.1600 O.co2     3 ASP3        0.0000 
     33 OD1        16.6100  -18.2900    9.8900 O.co2     3 ASP3        0.0000 
     34 OD1        18.1300  -17.5400    8.6200 O.co2     3 ASP3        0.0000 
     35 OD1        16.9200  -17.2200   10.8900 O.co2     3 ASP3        0.0000 
     36 OD1        16.8600  -18.2300   12.0000 O.co2     3 ASP3        0.0000 
     37 OD1        18.4400  -16.4600    9.6200 O.co2     3 ASP3        0.0000 
     38 OD1        18.3800  -17.4800   10.7200 O.co2     3 ASP3        0.0000 
     39 OD1        19.9100  -16.7300    9.4500 O.co2     3 ASP3        0.0000 
     40 CZ         15.7800  -10.8500    4.4500 C.ar      4 PHE5        0.0000 
     41 CA         14.8000  -15.0800    2.5500 C.3       5 GLY6        0.0000 
     42 CA         16.1000  -18.4000    5.6800 C.3       5 GLY6        0.0000 
     43 CA         13.7000  -12.7300    2.6200 C.3       5 GLY6        0.0000 
     44 CA         13.6400  -13.7500    3.7200 C.3       5 GLY6        0.0000 
     45 CA         15.1100  -14.0100    3.5500 C.3       5 GLY6        0.0000 
     46 CA         16.5700  -14.2800    3.3800 C.3       5 GLY6        0.0000 
     47 CA         16.4100  -17.3300    6.6800 C.3       5 GLY6        0.0000 
     48 CA         17.8800  -17.5900    6.5100 C.3       5 GLY6        0.0000 
     49 CA         17.8200  -18.6100    7.6200 C.3       5 GLY6        0.0000 
     50 CA         14.0600  -10.6400    2.5200 C.3       5 GLY6        0.0000 
     51 CA         14.0100  -11.6600    3.6200 C.3       5 GLY6        0.0000 
     52 CA         15.4700  -11.9200    3.4500 C.3       5 GLY6        0.0000 
     53 CA         14.3700   -9.5700    3.5200 C.3       5 GLY6        0.0000 
     54 CA         14.3200  -10.5900    4.6300 C.3       5 GLY6        0.0000 
     55 CA         14.2600  -11.6000    5.7300 C.3       5 GLY6        0.0000 
     56 CA         14.2100  -12.6200    6.8300 C.3       5 GLY6        0.0000 
     57 CA         15.7300  -11.8700    5.5600 C.3       5 GLY6        0.0000 
     58 CA         14.4600  -12.5700    8.9300 C.3       5 GLY6        0.0000 
     59 CA         14.4100  -13.5800   10.0400 C.3       5 GLY6        0.0000 
     60 CA         15.8200  -14.8600   10.9700 C.3       5 GLY6        0.0000 
     61 DU         14.7400  -16.1000    3.6500 H         6 CUB7        0.0000 
     62 DU         13.5900  -14.7600    4.8200 H         6 CUB7        0.0000 
     63 DU         13.5300  -15.7800    5.9200 H         6 CUB7        0.0000 
     64 DU         15.0500  -15.0300    4.6500 H         6 CUB7        0.0000 
     65 DU         15.0000  -16.0400    5.7500 H         6 CUB7        0.0000 
     66 DU         16.4600  -16.3100    5.5800 H         6 CUB7        0.0000 
     67 DU         13.9500  -12.6800    4.7200 H         6 CUB7        0.0000 
     68 DU         13.9000  -13.6900    5.8300 H         6 CUB7        0.0000 
     69 DU         13.8400  -14.7100    6.9300 H         6 CUB7        0.0000 
     70 DU         15.4200  -12.9400    4.5500 H         6 CUB7        0.0000 
     71 DU         15.3100  -14.9700    6.7600 H         6 CUB7        0.0000 
     72 DU         16.8800  -13.2000    4.3800 H         6 CUB7        0.0000 
     73 DU         16.8300  -14.2200    5.4800 H         6 CUB7        0.0000 
     74 DU         16.7200  -16.2500    7.6900 H         6 CUB7        0.0000 
     75 DU         16.6600  -17.2700    8.7900 H         6 CUB7        0.0000 
     76 DU         18.1900  -16.5200    7.5200 H         6 CUB7        0.0000 
     77 DU         14.1500  -13.6400    7.9300 H         6 CUB7        0.0000 
     78 DU         15.5600  -14.9200    8.8600 H         6 CUB7        0.0000 
     79 DU         17.1900  -12.1300    5.3900 H         6 CUB7        0.0000 
     80 DU         17.0300  -15.1800    8.6900 H         6 CUB7        0.0000 
     81 DU         16.9700  -16.2000    9.7900 H         6 CUB7        0.0000 
     82 DU         18.5500  -14.4300    7.4200 H         6 CUB7        0.0000 
@<TRIPOS>BOND
@<TRIPOS>SUBSTRUCTURE
     1 SER1        1 GROUP   
     2 ALA2        7 GROUP   
     3 ASP3       31 GROUP   
     4 PHE5       40 GROUP   
     5 GLY6       41 GROUP   
     6 CUB7       61 GROUP   
@<TRIPOS>SET

