#    Name: 6mwe_2_919
#    Modification time : Fri May 22 19:29:13 2020

@<TRIPOS>MOLECULE
6mwe_2_919
   41    45     1     0     0
SMALL
NO_CHARGES


@<TRIPOS>ATOM
      1 C1          4.8250   21.8980  153.5590 C.ar      1 9191203     0.0000 
      2 C2          4.8220   21.7860  154.9510 C.ar      1 9191203     0.0000 
      3 C3          4.3460   20.6350  155.5680 C.ar      1 9191203     0.0000 
      4 C4          3.8790   19.5870  154.7900 C.ar      1 9191203     0.0000 
      5 C5          3.8770   19.6990  153.3990 C.ar      1 9191203     0.0000 
      6 C6          4.3470   20.8540  152.7810 C.ar      1 9191203     0.0000 
      7 C9          2.9460   17.4320  154.6630 C.ar      1 9191203     0.0000 
      8 N10         3.4140   18.4700  155.3920 N.ar      1 9191203     0.0000 
      9 C13         3.3970   18.6470  152.6330 C.ar      1 9191203     0.0000 
     10 C14         2.9270   17.5030  153.2720 C.ar      1 9191203     0.0000 
     11 C22         0.3060   27.4250  143.4060 C.ar      1 9191203     0.0000 
     12 N23         0.1120   27.2280  142.0880 N.ar      1 9191203     0.0000 
     13 C24        -0.1400   25.9920  141.6060 C.ar      1 9191203     0.0000 
     14 C25        -0.2090   24.9030  142.4600 C.ar      1 9191203     0.0000 
     15 C26        -0.0050   25.0860  143.8170 C.ar      1 9191203     0.0000 
     16 C27         0.2450   26.3620  144.2990 C.ar      1 9191203     0.0000 
     17 C34         2.2850   24.2720  147.4440 C.ar      1 9191203     0.0000 
     18 C35         1.7390   24.3840  146.1660 C.ar      1 9191203     0.0000 
     19 C36         0.4510   23.9260  145.9020 C.ar      1 9191203     0.0000 
     20 C37        -0.2880   23.3440  146.9190 C.ar      1 9191203     0.0000 
     21 C38         0.2590   23.2330  148.1910 C.ar      1 9191203     0.0000 
     22 C39         1.5390   23.6900  148.4670 C.ar      1 9191203     0.0000 
     23 C46         6.5140   24.8490  152.7730 C.2       1 9191203     0.0000 
     24 C47         5.4720   24.9080  151.8440 C.2       1 9191203     0.0000 
     25 C48         4.7000   23.7600  152.0300 C.2       1 9191203     0.0000 
     26 N49         5.2740   23.0420  153.0280 N.pl3     1 9191203     0.0000 
     27 N50         6.3640   23.7240  153.4860 N.2       1 9191203     0.0000 
     28 N56         3.5780   23.3920  151.3720 N.am      1 9191203     0.0000 
     29 C58         3.2570   23.8260  150.1450 C.2       1 9191203     0.0000 
     30 N60         2.0010   23.5570  149.7450 N.am      1 9191203     0.0000 
     31 O63         4.0630   24.4140  149.4470 O.2       1 9191203     0.0000 
     32 O65        -0.0890   23.9970  144.6410 O.3       1 9191203     0.0000 
     33 F68        -0.4560   22.6700  149.1670 F         1 9191203     0.0000 
     34 C70        -0.3690   25.7700  140.1450 C.2       1 9191203     0.0000 
     35 O72        -0.7060   24.6570  139.7910 O.2       1 9191203     0.0000 
     36 N74        -0.1240   26.7550  139.2770 N.am      1 9191203     0.0000 
     37 C76        -0.3480   26.5850  137.8510 C.3       1 9191203     0.0000 
     38 C79         7.6090   25.8510  153.0010 C.3       1 9191203     0.0000 
     39 C81         8.2570   26.2190  151.6760 C.3       1 9191203     0.0000 
     40 C83         6.9790   27.0810  153.6520 C.3       1 9191203     0.0000 
     41 C85         8.6360   25.2700  153.9760 C.3       1 9191203     0.0000 
@<TRIPOS>BOND
     1    1    2 ar   
     2    1    6 ar   
     3    1   26 1    
     4    2    3 ar   
     5    3    4 ar   
     6    4    5 ar   
     7    4    8 ar   
     8    5    6 ar   
     9    5    9 ar   
    10    7    8 ar   
    11    7   10 ar   
    12    9   10 ar   
    13   11   12 ar   
    14   11   16 ar   
    15   12   13 ar   
    16   13   14 ar   
    17   13   34 1    
    18   14   15 ar   
    19   15   16 ar   
    20   15   32 1    
    21   17   18 ar   
    22   17   22 ar   
    23   18   19 ar   
    24   19   20 ar   
    25   19   32 1    
    26   20   21 ar   
    27   21   22 ar   
    28   21   33 1    
    29   22   30 1    
    30   23   24 1    
    31   23   27 2    
    32   23   38 1    
    33   24   25 2    
    34   25   26 1    
    35   25   28 1    
    36   26   27 1    
    37   28   29 am   
    38   29   30 am   
    39   29   31 2    
    40   34   35 2    
    41   34   36 am   
    42   36   37 1    
    43   38   39 1    
    44   38   40 1    
    45   38   41 1    
@<TRIPOS>SUBSTRUCTURE
     1 9191203     1 GROUP   
@<TRIPOS>SET

