#    Name: 6mwe_1_919
#    Modification time : Fri May 22 19:29:07 2020

@<TRIPOS>MOLECULE
6mwe_1_919
   41    45     1     0     0
SMALL
NO_CHARGES


@<TRIPOS>ATOM
      1 C1        -12.1270   34.4850  108.2580 C.ar      1 9191203     0.0000 
      2 C2        -12.3760   34.2590  106.9040 C.ar      1 9191203     0.0000 
      3 C3        -13.6490   33.8680  106.4830 C.ar      1 9191203     0.0000 
      4 C4        -14.6730   33.7000  107.4070 C.ar      1 9191203     0.0000 
      5 C5        -14.4270   33.9310  108.7580 C.ar      1 9191203     0.0000 
      6 C6        -13.1540   34.3280  109.1870 C.ar      1 9191203     0.0000 
      7 C9        -16.9220   33.1460  107.8650 C.ar      1 9191203     0.0000 
      8 N10       -15.9050   33.3140  106.9850 N.ar      1 9191203     0.0000 
      9 C13       -15.4570   33.7670  109.6780 C.ar      1 9191203     0.0000 
     10 C14       -16.7180   33.3630  109.2250 C.ar      1 9191203     0.0000 
     11 C22        -6.6010   30.6090  118.8030 C.ar      1 9191203     0.0000 
     12 N23        -6.7320   30.7880  120.1330 N.ar      1 9191203     0.0000 
     13 C24        -7.9680   30.8950  120.6880 C.ar      1 9191203     0.0000 
     14 C25        -9.1120   30.8530  119.9000 C.ar      1 9191203     0.0000 
     15 C26        -8.9990   30.6960  118.5330 C.ar      1 9191203     0.0000 
     16 C27        -7.7300   30.5650  117.9760 C.ar      1 9191203     0.0000 
     17 C34        -9.6430   32.6160  114.6670 C.ar      1 9191203     0.0000 
     18 C35        -9.5460   32.2220  116.0110 C.ar      1 9191203     0.0000 
     19 C36       -10.2160   31.0830  116.4680 C.ar      1 9191203     0.0000 
     20 C37       -10.9740   30.3490  115.5830 C.ar      1 9191203     0.0000 
     21 C38       -11.0670   30.7390  114.2500 C.ar      1 9191203     0.0000 
     22 C39       -10.4090   31.8720  113.7740 C.ar      1 9191203     0.0000 
     23 C46        -8.9690   35.9560  108.6040 C.2       1 9191203     0.0000 
     24 C47        -8.9760   35.1160  109.7180 C.2       1 9191203     0.0000 
     25 C48       -10.2070   34.4490  109.7310 C.2       1 9191203     0.0000 
     26 N49       -10.8970   34.8690  108.6410 N.pl3     1 9191203     0.0000 
     27 N50       -10.1400   35.7840  107.9650 N.2       1 9191203     0.0000 
     28 N56       -10.6670   33.5210  110.6240 N.am      1 9191203     0.0000 
     29 C58       -10.1580   33.3280  111.8510 C.2       1 9191203     0.0000 
     30 N60       -10.5490   32.1810  112.4420 N.am      1 9191203     0.0000 
     31 O63        -9.3870   34.1370  112.3730 O.2       1 9191203     0.0000 
     32 O65       -10.1570   30.6620  117.7750 O.3       1 9191203     0.0000 
     33 F68       -11.8110   29.9980  113.4210 F         1 9191203     0.0000 
     34 C70        -8.1490   31.0700  122.1560 C.2       1 9191203     0.0000 
     35 O72        -9.2870   30.9990  122.5970 O.2       1 9191203     0.0000 
     36 N74        -7.0950   31.3500  122.9140 N.am      1 9191203     0.0000 
     37 C76        -7.2080   31.5160  124.3540 C.3       1 9191203     0.0000 
     38 C79        -7.8610   36.8750  108.1460 C.3       1 9191203     0.0000 
     39 C81        -7.5880   37.9390  109.2040 C.3       1 9191203     0.0000 
     40 C83        -6.6150   36.0250  107.9280 C.3       1 9191203     0.0000 
     41 C85        -8.2510   37.5500  106.8290 C.3       1 9191203     0.0000 
@<TRIPOS>BOND
     1    1    2 ar   
     2    1    6 ar   
     3    1   26 1    
     4    2    3 ar   
     5    3    4 ar   
     6    4    5 ar   
     7    4    8 ar   
     8    5    6 ar   
     9    5    9 ar   
    10    7    8 ar   
    11    7   10 ar   
    12    9   10 ar   
    13   11   12 ar   
    14   11   16 ar   
    15   12   13 ar   
    16   13   14 ar   
    17   13   34 1    
    18   14   15 ar   
    19   15   16 ar   
    20   15   32 1    
    21   17   18 ar   
    22   17   22 ar   
    23   18   19 ar   
    24   19   20 ar   
    25   19   32 1    
    26   20   21 ar   
    27   21   22 ar   
    28   21   33 1    
    29   22   30 1    
    30   23   24 1    
    31   23   27 2    
    32   23   38 1    
    33   24   25 2    
    34   25   26 1    
    35   25   28 1    
    36   26   27 1    
    37   28   29 am   
    38   29   30 am   
    39   29   31 2    
    40   34   35 2    
    41   34   36 am   
    42   36   37 1    
    43   38   39 1    
    44   38   40 1    
    45   38   41 1    
@<TRIPOS>SUBSTRUCTURE
     1 9191203     1 GROUP   
@<TRIPOS>SET

