#    Name: 6cx6_1_SAH
#    Modification time : Fri May 22 19:23:19 2020

@<TRIPOS>MOLECULE
6cx6_1_SAH
   26    28     1     0     0
SMALL
NO_CHARGES


@<TRIPOS>ATOM
      1 N          25.1440   -4.1640  -18.4400 N.4       1 SAH401      0.0000 
      2 CA         25.5580   -3.0080  -19.3110 C.3       1 SAH401      0.0000 
      3 CB         26.5500   -2.0780  -18.6060 C.3       1 SAH401      0.0000 
      4 CG         27.7050   -2.8700  -18.0020 C.3       1 SAH401      0.0000 
      5 SD         28.9540   -1.7670  -17.4640 S.3       1 SAH401      0.0000 
      6 C          26.1930   -3.4260  -20.6150 C.2       1 SAH401      0.0000 
      7 O          26.4410   -2.5450  -21.4410 O.co2     1 SAH401      0.0000 
      8 OXT        26.4860   -4.5980  -20.8990 O.co2     1 SAH401      0.0000 
      9 C5'        28.7920   -1.7920  -15.7280 C.3       1 SAH401      0.0000 
     10 C4'        27.6340   -0.8640  -15.4240 C.3       1 SAH401      0.0000 
     11 O4'        27.3370   -0.9420  -14.0300 O.3       1 SAH401      0.0000 
     12 C3'        27.9070    0.6100  -15.7280 C.3       1 SAH401      0.0000 
     13 O3'        26.9930    1.0770  -16.7370 O.3       1 SAH401      0.0000 
     14 C2'        27.7180    1.2810  -14.3740 C.3       1 SAH401      0.0000 
     15 O2'        27.1310    2.5620  -14.5070 O.3       1 SAH401      0.0000 
     16 C1'        26.8440    0.3060  -13.5970 C.3       1 SAH401      0.0000 
     17 N9         27.0390    0.2680  -12.1410 N.pl3     1 SAH401      0.0000 
     18 C8         28.2040   -0.0860  -11.5590 C.2       1 SAH401      0.0000 
     19 N7         28.0870   -0.0530  -10.2030 N.2       1 SAH401      0.0000 
     20 C5         26.8350    0.3170   -9.9090 C.ar      1 SAH401      0.0000 
     21 C6         26.1050    0.5170   -8.6590 C.ar      1 SAH401      0.0000 
     22 N6         26.7850    0.3280   -7.4930 N.pl3     1 SAH401      0.0000 
     23 N1         24.8150    0.8960   -8.7280 N.ar      1 SAH401      0.0000 
     24 C2         24.2550    1.0450   -9.9290 C.ar      1 SAH401      0.0000 
     25 N3         24.8450    0.8520  -11.1140 N.ar      1 SAH401      0.0000 
     26 C4         26.1340    0.5090  -11.1730 C.ar      1 SAH401      0.0000 
@<TRIPOS>BOND
     1    1    2 1    
     2    2    3 1    
     3    2    6 1    
     4    3    4 1    
     5    4    5 1    
     6    5    9 1    
     7    6    7 ar   
     8    6    8 ar   
     9    9   10 1    
    10   10   11 1    
    11   10   12 1    
    12   11   16 1    
    13   12   13 1    
    14   12   14 1    
    15   14   15 1    
    16   14   16 1    
    17   16   17 1    
    18   17   18 1    
    19   17   26 1    
    20   18   19 2    
    21   19   20 1    
    22   20   21 ar   
    23   20   26 ar   
    24   21   22 1    
    25   21   23 ar   
    26   23   24 ar   
    27   24   25 ar   
    28   25   26 ar   
@<TRIPOS>SUBSTRUCTURE
     1 SAH401      1 GROUP   
@<TRIPOS>SET

