#    Name: 6cx6_2_SAH
#    Modification time : Fri May 22 19:23:22 2020

@<TRIPOS>MOLECULE
6cx6_2_SAH
   26    28     1     0     0
SMALL
NO_CHARGES


@<TRIPOS>ATOM
      1 N          22.8910  -45.3730   25.2740 N.4       1 SAH401      0.0000 
      2 CA         22.2800  -46.4210   26.1350 C.3       1 SAH401      0.0000 
      3 CB         20.9970  -46.9300   25.5350 C.3       1 SAH401      0.0000 
      4 CG         20.1170  -45.7440   25.2730 C.3       1 SAH401      0.0000 
      5 SD         18.4680  -46.3200   25.1730 S.3       1 SAH401      0.0000 
      6 C          23.1490  -47.6170   26.1860 C.2       1 SAH401      0.0000 
      7 O          23.8670  -47.8530   25.2120 O.co2     1 SAH401      0.0000 
      8 OXT        23.1340  -48.3890   27.1600 O.co2     1 SAH401      0.0000 
      9 C5'        17.6120  -44.7760   25.2450 C.3       1 SAH401      0.0000 
     10 C4'        17.8310  -44.1080   26.6150 C.3       1 SAH401      0.0000 
     11 O4'        17.7820  -42.6910   26.4700 O.3       1 SAH401      0.0000 
     12 C3'        16.7910  -44.4820   27.6740 C.3       1 SAH401      0.0000 
     13 O3'        17.4610  -44.8420   28.8870 O.3       1 SAH401      0.0000 
     14 C2'        15.9400  -43.2470   27.8610 C.3       1 SAH401      0.0000 
     15 O2'        15.5170  -43.0440   29.2130 O.3       1 SAH401      0.0000 
     16 C1'        16.8680  -42.1360   27.4210 C.3       1 SAH401      0.0000 
     17 N9         16.1000  -41.0520   26.7910 N.pl3     1 SAH401      0.0000 
     18 C8         15.2620  -41.1780   25.7420 C.2       1 SAH401      0.0000 
     19 N7         14.7340  -39.9720   25.4170 N.2       1 SAH401      0.0000 
     20 C5         15.2580  -39.0710   26.2750 C.ar      1 SAH401      0.0000 
     21 C6         15.1180  -37.6190   26.4970 C.ar      1 SAH401      0.0000 
     22 N6         14.2940  -36.8780   25.6990 N.pl3     1 SAH401      0.0000 
     23 N1         15.8480  -37.0830   27.5080 N.ar      1 SAH401      0.0000 
     24 C2         16.6690  -37.8130   28.2990 C.ar      1 SAH401      0.0000 
     25 N3         16.8360  -39.1350   28.1540 N.ar      1 SAH401      0.0000 
     26 C4         16.1650  -39.7910   27.1780 C.ar      1 SAH401      0.0000 
@<TRIPOS>BOND
     1    1    2 1    
     2    2    3 1    
     3    2    6 1    
     4    3    4 1    
     5    4    5 1    
     6    5    9 1    
     7    6    7 ar   
     8    6    8 ar   
     9    9   10 1    
    10   10   11 1    
    11   10   12 1    
    12   11   16 1    
    13   12   13 1    
    14   12   14 1    
    15   14   15 1    
    16   14   16 1    
    17   16   17 1    
    18   17   18 1    
    19   17   26 1    
    20   18   19 2    
    21   19   20 1    
    22   20   21 ar   
    23   20   26 ar   
    24   21   22 1    
    25   21   23 ar   
    26   23   24 ar   
    27   24   25 ar   
    28   25   26 ar   
@<TRIPOS>SUBSTRUCTURE
     1 SAH401      1 GROUP   
@<TRIPOS>SET

