#    Name: 5nun_1_Z80
#    Modification time : Fri May 22 19:13:46 2020

@<TRIPOS>MOLECULE
5nun_1_Z80
   21    23     1     0     0
SMALL
NO_CHARGES


@<TRIPOS>ATOM
      1 C1         -2.9390   -9.3620  -16.5170 C.ar      1 Z80201      0.0000 
      2 N1         -3.7070   -8.3000  -17.0100 N.pl3     1 Z80201      0.0000 
      3 S1         -4.0950   -8.8370  -14.1070 S.3       1 Z80201      0.0000 
      4 C2         -3.0270   -9.7140  -15.1730 C.ar      1 Z80201      0.0000 
      5 N2         -3.0950   -3.9210  -17.1500 N.4       1 Z80201      0.0000 
      6 C3         -5.3440   -8.3430  -15.2390 C.ar      1 Z80201      0.0000 
      7 C4         -5.0220   -8.1270  -16.5730 C.ar      1 Z80201      0.0000 
      8 C5         -1.3340  -11.1200  -16.8750 C.ar      1 Z80201      0.0000 
      9 C6         -1.4210  -11.4750  -15.5310 C.ar      1 Z80201      0.0000 
     10 C7         -2.2650  -10.7710  -14.6810 C.ar      1 Z80201      0.0000 
     11 C8         -6.6530   -8.1760  -14.8030 C.ar      1 Z80201      0.0000 
     12 C9         -7.6410   -7.7880  -15.7030 C.ar      1 Z80201      0.0000 
     13 C10        -7.3190   -7.5720  -17.0350 C.ar      1 Z80201      0.0000 
     14 C11        -6.0100   -7.7420  -17.4710 C.ar      1 Z80201      0.0000 
     15 C12        -3.2100   -7.5460  -18.1900 C.3       1 Z80201      0.0000 
     16 C13        -3.7090   -6.0960  -18.1550 C.3       1 Z80201      0.0000 
     17 C14        -3.2970   -5.3590  -16.8810 C.3       1 Z80201      0.0000 
     18 C15        -2.7190   -3.2440  -15.9020 C.3       1 Z80201      0.0000 
     19 C16        -4.3440   -3.3440  -17.6650 C.3       1 Z80201      0.0000 
     20 CL1        -8.5610   -7.0880  -18.1520 Cl        1 Z80201      0.0000 
     21 C17        -2.0940  -10.0640  -17.3650 C.ar      1 Z80201      0.0000 
@<TRIPOS>BOND
     1    1    2 1    
     2    1    4 ar   
     3    1   21 ar   
     4    2    7 1    
     5    2   15 1    
     6    3    4 1    
     7    3    6 1    
     8    4   10 ar   
     9    5   17 1    
    10    5   18 1    
    11    5   19 1    
    12    6    7 ar   
    13    6   11 ar   
    14    7   14 ar   
    15    8    9 ar   
    16    8   21 ar   
    17    9   10 ar   
    18   11   12 ar   
    19   12   13 ar   
    20   13   14 ar   
    21   13   20 1    
    22   15   16 1    
    23   16   17 1    
@<TRIPOS>SUBSTRUCTURE
     1 Z80201      1 GROUP   
@<TRIPOS>SET

