#    Name: 6b2f_1_HLN_CAVITY_N1_4
#    Modification time : Fri May 22 19:33:49 2020

@<TRIPOS>MOLECULE
6b2f_1_HLN_CAVITY_N1_4
   89     0     7     0     0
SMALL
NO_CHARGES


@<TRIPOS>ATOM
      1 OG         27.1800    6.6200    3.6300 O.3       1 SER1        0.0000 
      2 OG         28.9600    7.0700    4.6900 O.3       1 SER1        0.0000 
      3 OG         30.6300    5.7800    4.5400 O.3       1 SER1        0.0000 
      4 OG         29.1900    5.6000    4.9200 O.3       1 SER1        0.0000 
      5 OG         30.7400    7.5200    5.7500 O.3       1 SER1        0.0000 
      6 OG         29.3000    7.3400    6.1300 O.3       1 SER1        0.0000 
      7 OG         26.0500   11.6600    7.6400 O.3       1 SER1        0.0000 
      8 N          27.2000    9.2800   10.9600 N.am      2 ALA2        0.0000 
      9 N          27.4300    7.8100   11.1800 N.am      2 ALA2        0.0000 
     10 N          26.2200    6.1800   11.7800 N.am      2 ALA2        0.0000 
     11 OD1        24.4000    8.0200    5.5900 O.co2     3 ASP3        0.0000 
     12 OD1        24.5000    9.7500    6.8000 O.co2     3 ASP3        0.0000 
     13 OD1        24.7400    8.2900    7.0300 O.co2     3 ASP3        0.0000 
     14 NZ         27.2800    8.3600    4.8400 N.4       4 LYS4        0.0000 
     15 NZ         25.8400    8.1900    5.2200 N.4       4 LYS4        0.0000 
     16 NZ         27.1500   11.5600    5.8300 N.4       4 LYS4        0.0000 
     17 NZ         27.3900   10.1000    6.0600 N.4       4 LYS4        0.0000 
     18 NZ         25.9400    9.9300    6.4300 N.4       4 LYS4        0.0000 
     19 NZ         27.6200    8.6300    6.2800 N.4       4 LYS4        0.0000 
     20 NZ         24.6100   11.4900    8.0100 N.4       4 LYS4        0.0000 
     21 CZ         24.6300    6.5500    5.8100 C.ar      5 PHE5        0.0000 
     22 CZ         28.8300   10.2700    5.6800 C.ar      5 PHE5        0.0000 
     23 CZ         29.0600    8.8100    5.9000 C.ar      5 PHE5        0.0000 
     24 CZ         24.9700    6.8200    7.2500 C.ar      5 PHE5        0.0000 
     25 CZ         23.5300    6.6500    7.6200 C.ar      5 PHE5        0.0000 
     26 CZ         24.8400   10.0300    8.2400 C.ar      5 PHE5        0.0000 
     27 CZ         25.0800    8.5600    8.4600 C.ar      5 PHE5        0.0000 
     28 CZ         25.3100    7.1000    8.6800 C.ar      5 PHE5        0.0000 
     29 CZ         23.8700    6.9200    9.0600 C.ar      5 PHE5        0.0000 
     30 CZ         26.1600   13.4000    8.8500 C.ar      5 PHE5        0.0000 
     31 CZ         26.6200   10.4700    9.3000 C.ar      5 PHE5        0.0000 
     32 CZ         25.1800   10.3000    9.6700 C.ar      5 PHE5        0.0000 
     33 CZ         26.8600    9.0100    9.5200 C.ar      5 PHE5        0.0000 
     34 CZ         25.6500    7.3700   10.1200 C.ar      5 PHE5        0.0000 
     35 CZ         31.6500    6.6000    8.8500 C.ar      5 PHE5        0.0000 
     36 CZ         30.2100    6.4200    9.2200 C.ar      5 PHE5        0.0000 
     37 CZ         28.7700    6.2500    9.6000 C.ar      5 PHE5        0.0000 
     38 CZ         29.0000    4.7900    9.8200 C.ar      5 PHE5        0.0000 
     39 CZ         25.5200   10.5700   11.1100 C.ar      5 PHE5        0.0000 
     40 CZ         25.9900    7.6400   11.5600 C.ar      5 PHE5        0.0000 
     41 CZ         29.1100    6.5200   11.0300 C.ar      5 PHE5        0.0000 
     42 CZ         27.6600    6.3500   11.4000 C.ar      5 PHE5        0.0000 
     43 CZ         27.9000    4.8900   11.6300 C.ar      5 PHE5        0.0000 
     44 CA         32.1800    7.6900    5.3800 C.3       6 GLY6        0.0000 
     45 CA         28.9400   12.0100    6.8900 C.3       6 GLY6        0.0000 
     46 CA         27.4900   11.8400    7.2700 C.3       6 GLY6        0.0000 
     47 CA         30.6100   10.7200    6.7400 C.3       6 GLY6        0.0000 
     48 CA         29.1700   10.5400    7.1200 C.3       6 GLY6        0.0000 
     49 CA         30.8400    9.2500    6.9700 C.3       6 GLY6        0.0000 
     50 CA         31.0800    7.7900    7.1900 C.3       6 GLY6        0.0000 
     51 CA         27.8300   12.1100    8.7000 C.3       6 GLY6        0.0000 
     52 CA         26.3900   11.9400    9.0800 C.3       6 GLY6        0.0000 
     53 CA         24.9500   11.7600    9.4500 C.3       6 GLY6        0.0000 
     54 CA         29.5100   10.8200    8.5500 C.3       6 GLY6        0.0000 
     55 CA         28.0700   10.6400    8.9300 C.3       6 GLY6        0.0000 
     56 CA         31.1800    9.5300    8.4000 C.3       6 GLY6        0.0000 
     57 CA         29.7400    9.3500    8.7800 C.3       6 GLY6        0.0000 
     58 CA         28.3000    9.1800    9.1500 C.3       6 GLY6        0.0000 
     59 CA         31.4200    8.0600    8.6300 C.3       6 GLY6        0.0000 
     60 CA         29.9800    7.8900    9.0000 C.3       6 GLY6        0.0000 
     61 CA         28.5300    7.7100    9.3700 C.3       6 GLY6        0.0000 
     62 CA         28.1700   12.3800   10.1400 C.3       6 GLY6        0.0000 
     63 CA         26.7300   12.2100   10.5100 C.3       6 GLY6        0.0000 
     64 CA         28.4000   10.9200   10.3600 C.3       6 GLY6        0.0000 
     65 CA         26.9600   10.7400   10.7400 C.3       6 GLY6        0.0000 
     66 CA         28.6400    9.4500   10.5800 C.3       6 GLY6        0.0000 
     67 CA         28.8700    7.9900   10.8100 C.3       6 GLY6        0.0000 
     68 CA         24.7800    6.0000   12.1500 C.3       6 GLY6        0.0000 
     69 CA         27.3000   11.0200   12.1700 C.3       6 GLY6        0.0000 
     70 DU         25.7300    6.4500    4.0000 H         7 CUB7        0.0000 
     71 DU         27.5200    6.9000    5.0700 H         7 CUB7        0.0000 
     72 DU         26.0700    6.7200    5.4400 H         7 CUB7        0.0000 
     73 DU         26.1800    8.4600    6.6500 H         7 CUB7        0.0000 
     74 DU         27.8500    7.1700    6.5000 H         7 CUB7        0.0000 
     75 DU         26.4100    7.0000    6.8800 H         7 CUB7        0.0000 
     76 DU         29.5300    5.8800    6.3500 H         7 CUB7        0.0000 
     77 DU         27.7300   10.3700    7.4900 H         7 CUB7        0.0000 
     78 DU         26.2800   10.2000    7.8600 H         7 CUB7        0.0000 
     79 DU         29.4000    9.0800    7.3400 H         7 CUB7        0.0000 
     80 DU         27.9600    8.9100    7.7100 H         7 CUB7        0.0000 
     81 DU         26.5200    8.7300    8.0900 H         7 CUB7        0.0000 
     82 DU         29.6400    7.6200    7.5600 H         7 CUB7        0.0000 
     83 DU         26.7500    7.2700    8.3100 H         7 CUB7        0.0000 
     84 DU         31.3100    6.3200    7.4100 H         7 CUB7        0.0000 
     85 DU         29.8700    6.1500    7.7900 H         7 CUB7        0.0000 
     86 DU         28.4300    5.9800    8.1600 H         7 CUB7        0.0000 
     87 DU         27.0900    7.5400    9.7500 H         7 CUB7        0.0000 
     88 DU         27.3200    6.0800    9.9700 H         7 CUB7        0.0000 
     89 DU         25.8800    5.9000   10.3400 H         7 CUB7        0.0000 
@<TRIPOS>BOND
@<TRIPOS>SUBSTRUCTURE
     1 SER1        1 GROUP   
     2 ALA2        8 GROUP   
     3 ASP3       11 GROUP   
     4 LYS4       14 GROUP   
     5 PHE5       21 GROUP   
     6 GLY6       44 GROUP   
     7 CUB7       70 GROUP   
@<TRIPOS>SET

