#    Name: 6b2f_2_HLN_CAVITY_N1_ALL
#    Modification time : Fri May 22 19:33:55 2020

@<TRIPOS>MOLECULE
6b2f_2_HLN_CAVITY_N1_ALL
   87     0     7     0     0
SMALL
NO_CHARGES


@<TRIPOS>ATOM
      1 OG          3.5200    8.9900   33.8500 O.3       1 SER1        0.0000 
      2 OG          8.5300   10.0600   35.6000 O.3       1 SER1        0.0000 
      3 OG          8.6300   11.7900   36.8100 O.3       1 SER1        0.0000 
      4 OG          7.1900   11.6200   37.1800 O.3       1 SER1        0.0000 
      5 OG          8.8700   10.3300   37.0300 O.3       1 SER1        0.0000 
      6 OG         12.2200    7.7500   36.7300 O.3       1 SER1        0.0000 
      7 N          10.3900    9.5800   30.5400 N.am      2 ALA2        0.0000 
      8 OD1        13.0900    9.1100   34.7000 O.co2     3 ASP3        0.0000 
      9 OD1        12.9600   12.3100   35.6900 O.co2     3 ASP3        0.0000 
     10 OD1        13.1900   10.8500   35.9100 O.co2     3 ASP3        0.0000 
     11 NZ         11.5200   12.1400   36.0600 N.4       4 LYS4        0.0000 
     12 NZ         10.0700   11.9700   36.4400 N.4       4 LYS4        0.0000 
     13 NZ         11.7500   10.6800   36.2900 N.4       4 LYS4        0.0000 
     14 NZ         10.3100   10.5000   36.6600 N.4       4 LYS4        0.0000 
     15 NZ         11.9800    9.2100   36.5100 N.4       4 LYS4        0.0000 
     16 NZ         10.5400    9.0400   36.8800 N.4       4 LYS4        0.0000 
     17 CZ         11.8400    9.7600   30.1700 C.ar      5 PHE5        0.0000 
     18 CZ         11.9400   11.4900   31.3800 C.ar      5 PHE5        0.0000 
     19 CZ          7.6100   10.9800   32.5000 C.ar      5 PHE5        0.0000 
     20 CZ          6.1700   10.8000   32.8800 C.ar      5 PHE5        0.0000 
     21 CZ         12.1800   10.0300   31.6100 C.ar      5 PHE5        0.0000 
     22 CZ          9.2900    9.6800   32.3500 C.ar      5 PHE5        0.0000 
     23 CZ          7.8500    9.5100   32.7300 C.ar      5 PHE5        0.0000 
     24 CZ          6.4100    9.3400   33.1000 C.ar      5 PHE5        0.0000 
     25 CZ          4.9600    9.1600   33.4700 C.ar      5 PHE5        0.0000 
     26 CZ         10.9700    8.3900   32.2000 C.ar      5 PHE5        0.0000 
     27 CZ          9.5200    8.2200   32.5800 C.ar      5 PHE5        0.0000 
     28 CZ          8.0800    8.0500   32.9500 C.ar      5 PHE5        0.0000 
     29 CZ         12.6400    7.1000   32.0500 C.ar      5 PHE5        0.0000 
     30 CZ         12.2800   11.7700   32.8200 C.ar      5 PHE5        0.0000 
     31 CZ         12.5100   10.3000   33.0400 C.ar      5 PHE5        0.0000 
     32 CZ         12.7500    8.8400   33.2600 C.ar      5 PHE5        0.0000 
     33 CZ         11.3100    8.6700   33.6400 C.ar      5 PHE5        0.0000 
     34 CZ         12.9800    7.3700   33.4900 C.ar      5 PHE5        0.0000 
     35 CZ         11.5400    7.2000   33.8600 C.ar      5 PHE5        0.0000 
     36 CZ         12.8500   10.5800   34.4800 C.ar      5 PHE5        0.0000 
     37 CZ          7.0800    9.8800   35.9700 C.ar      5 PHE5        0.0000 
     38 CZ         11.8800    7.4700   35.3000 C.ar      5 PHE5        0.0000 
     39 CZ         12.7300   13.7800   35.4700 C.ar      5 PHE5        0.0000 
     40 CZ          9.1000    8.8600   37.2600 C.ar      5 PHE5        0.0000 
     41 CA         11.7100   12.9600   31.1600 C.3       6 GLY6        0.0000 
     42 CA         13.3800   11.6700   31.0100 C.3       6 GLY6        0.0000 
     43 CA         10.5000   11.3200   31.7600 C.3       6 GLY6        0.0000 
     44 CA          9.0600   11.1500   32.1300 C.3       6 GLY6        0.0000 
     45 CA          4.7300   10.6300   33.2500 C.3       6 GLY6        0.0000 
     46 CA         12.8800    5.6400   32.2800 C.3       6 GLY6        0.0000 
     47 CA         13.4900   13.4100   32.2200 C.3       6 GLY6        0.0000 
     48 CA         12.0500   13.2300   32.5900 C.3       6 GLY6        0.0000 
     49 CA         10.6000   13.0600   32.9700 C.3       6 GLY6        0.0000 
     50 CA          6.2800   12.5400   34.0900 C.3       6 GLY6        0.0000 
     51 CA         13.7200   11.9400   32.4400 C.3       6 GLY6        0.0000 
     52 CA         10.8400   11.5900   33.1900 C.3       6 GLY6        0.0000 
     53 CA          9.4000   11.4200   33.5700 C.3       6 GLY6        0.0000 
     54 CA          7.9500   11.2500   33.9400 C.3       6 GLY6        0.0000 
     55 CA          6.5100   11.0800   34.3100 C.3       6 GLY6        0.0000 
     56 CA          5.0700   10.9000   34.6900 C.3       6 GLY6        0.0000 
     57 CA         13.8300   13.6800   33.6600 C.3       6 GLY6        0.0000 
     58 CA         12.3900   13.5100   34.0300 C.3       6 GLY6        0.0000 
     59 CA         10.9400   13.3300   34.4000 C.3       6 GLY6        0.0000 
     60 CA          9.5000   13.1600   34.7800 C.3       6 GLY6        0.0000 
     61 CA          8.0600   12.9900   35.1500 C.3       6 GLY6        0.0000 
     62 CA         14.0600   12.2100   33.8800 C.3       6 GLY6        0.0000 
     63 CA          6.8500   11.3500   35.7500 C.3       6 GLY6        0.0000 
     64 CA         11.2800   13.6100   35.8400 C.3       6 GLY6        0.0000 
     65 DU         10.6300    8.1200   30.7700 H         7 CUB7        0.0000 
     66 DU         10.7300    9.8600   31.9800 H         7 CUB7        0.0000 
     67 DU         11.2000    6.9300   32.4300 H         7 CUB7        0.0000 
     68 DU         11.0700   10.1300   33.4100 H         7 CUB7        0.0000 
     69 DU          9.6300    9.9600   33.7900 H         7 CUB7        0.0000 
     70 DU          8.1900    9.7800   34.1600 H         7 CUB7        0.0000 
     71 DU          6.7400    9.6100   34.5400 H         7 CUB7        0.0000 
     72 DU          5.3000    9.4400   34.9100 H         7 CUB7        0.0000 
     73 DU          8.4200    8.3200   34.3900 H         7 CUB7        0.0000 
     74 DU          6.9800    8.1500   34.7600 H         7 CUB7        0.0000 
     75 DU         10.1000    7.0300   34.2300 H         7 CUB7        0.0000 
     76 DU         12.6200   12.0400   34.2500 H         7 CUB7        0.0000 
     77 DU         11.1800   11.8700   34.6300 H         7 CUB7        0.0000 
     78 DU          9.7300   11.6900   35.0000 H         7 CUB7        0.0000 
     79 DU          8.2900   11.5200   35.3700 H         7 CUB7        0.0000 
     80 DU         11.4100   10.4000   34.8500 H         7 CUB7        0.0000 
     81 DU          9.9700   10.2300   35.2200 H         7 CUB7        0.0000 
     82 DU         11.6400    8.9400   35.0700 H         7 CUB7        0.0000 
     83 DU         10.2000    8.7600   35.4500 H         7 CUB7        0.0000 
     84 DU          8.7600    8.5900   35.8200 H         7 CUB7        0.0000 
     85 DU         10.4400    7.3000   35.6700 H         7 CUB7        0.0000 
     86 DU          8.9900    7.1300   36.0400 H         7 CUB7        0.0000 
     87 DU         10.7700    7.5700   37.1100 H         7 CUB7        0.0000 
@<TRIPOS>BOND
@<TRIPOS>SUBSTRUCTURE
     1 SER1        1 GROUP   
     2 ALA2        7 GROUP   
     3 ASP3        8 GROUP   
     4 LYS4       11 GROUP   
     5 PHE5       17 GROUP   
     6 GLY6       41 GROUP   
     7 CUB7       65 GROUP   
@<TRIPOS>SET

