#    Name: 6b2f_1_HLN
#    Modification time : Fri May 22 19:33:48 2020

@<TRIPOS>MOLECULE
6b2f_1_HLN
   20    21     1     0     0
SMALL
NO_CHARGES


@<TRIPOS>ATOM
      1 CAA        26.8080    7.7170   11.2460 C.3       1 HLN2404     0.0000 
      2 CAB        27.8090    8.6210   10.5260 C.3       1 HLN2404     0.0000 
      3 CAC        27.5350   10.0870   10.8720 C.3       1 HLN2404     0.0000 
      4 CAD        27.2690   10.8970    9.6020 C.3       1 HLN2404     0.0000 
      5 CAE        26.0340   10.3110    8.9200 C.3       1 HLN2404     0.0000 
      6 CAF        25.5890   11.2550    7.8130 C.3       1 HLN2404     0.0000 
      7 PAG        24.9100   10.2530    6.3910 P.3       1 HLN2404     0.0000 
      8 OAH        23.6160    9.5490    6.7560 O.co2     1 HLN2404     0.0000 
      9 OAI        24.6120   11.1990    5.2600 O.co2     1 HLN2404     0.0000 
     10 OAJ        25.9400    9.1580    5.6920 O.3       1 HLN2404     0.0000 
     11 CAR        27.1680    8.7190    6.1950 C.ar      1 HLN2404     0.0000 
     12 CAQ        27.4280    7.3970    6.5180 C.ar      1 HLN2404     0.0000 
     13 CAK        28.6950    7.0280    6.9990 C.ar      1 HLN2404     0.0000 
     14 CAP        28.9430    5.6860    7.3350 C.ar      1 HLN2404     0.0000 
     15 CAO        30.1900    5.3120    7.8100 C.ar      1 HLN2404     0.0000 
     16 CAN        31.1930    6.2630    7.9550 C.ar      1 HLN2404     0.0000 
     17 CAM        30.9490    7.5880    7.6220 C.ar      1 HLN2404     0.0000 
     18 CAL        29.6840    7.9720    7.1390 C.ar      1 HLN2404     0.0000 
     19 CAT        29.4230    9.3150    6.7980 C.ar      1 HLN2404     0.0000 
     20 CAS        28.1720    9.6820    6.3140 C.ar      1 HLN2404     0.0000 
@<TRIPOS>BOND
     1    1    2 1    
     2    2    3 1    
     3    3    4 1    
     4    4    5 1    
     5    5    6 1    
     6    6    7 1    
     7    7    8 ar   
     8    7    9 ar   
     9    7   10 1    
    10   10   11 1    
    11   11   12 ar   
    12   11   20 ar   
    13   12   13 ar   
    14   13   14 ar   
    15   13   18 ar   
    16   14   15 ar   
    17   15   16 ar   
    18   16   17 ar   
    19   17   18 ar   
    20   18   19 ar   
    21   19   20 ar   
@<TRIPOS>SUBSTRUCTURE
     1 HLN2404     1 GROUP   
@<TRIPOS>SET

