#    Name: 6b2f_2_HLN
#    Modification time : Fri May 22 19:33:54 2020

@<TRIPOS>MOLECULE
6b2f_2_HLN
   20    21     1     0     0
SMALL
NO_CHARGES


@<TRIPOS>ATOM
      1 CAA        10.8760    9.6390   31.3660 C.3       1 HLN2404     0.0000 
      2 CAB        10.7870   11.1630   31.2780 C.3       1 HLN2404     0.0000 
      3 CAC        10.9230   11.7890   32.6670 C.3       1 HLN2404     0.0000 
      4 CAD        12.3400   12.3330   32.8190 C.3       1 HLN2404     0.0000 
      5 CAE        13.1490   11.3200   33.6260 C.3       1 HLN2404     0.0000 
      6 CAF        13.0000   11.7200   35.0870 C.3       1 HLN2404     0.0000 
      7 PAG        13.2810   10.2330   36.1730 P.3       1 HLN2404     0.0000 
      8 OAH        14.4030   10.5770   37.1100 O.co2     1 HLN2404     0.0000 
      9 OAI        13.6680    9.0350   35.3360 O.co2     1 HLN2404     0.0000 
     10 OAJ        11.9280    9.8870   37.0770 O.3       1 HLN2404     0.0000 
     11 CAR        10.6840   10.2220   36.5120 C.ar      1 HLN2404     0.0000 
     12 CAQ         9.9530    9.4100   35.6530 C.ar      1 HLN2404     0.0000 
     13 CAK         8.7120    9.8480   35.1520 C.ar      1 HLN2404     0.0000 
     14 CAP         7.9760    9.0200   34.2850 C.ar      1 HLN2404     0.0000 
     15 CAO         6.7500    9.4440   33.7850 C.ar      1 HLN2404     0.0000 
     16 CAN         6.2470   10.6920   34.1380 C.ar      1 HLN2404     0.0000 
     17 CAM         6.9740   11.5130   34.9940 C.ar      1 HLN2404     0.0000 
     18 CAL         8.2170   11.0820   35.5010 C.ar      1 HLN2404     0.0000 
     19 CAT         8.9570   11.9090   36.3650 C.ar      1 HLN2404     0.0000 
     20 CAS        10.1780   11.4770   36.8630 C.ar      1 HLN2404     0.0000 
@<TRIPOS>BOND
     1    1    2 1    
     2    2    3 1    
     3    3    4 1    
     4    4    5 1    
     5    5    6 1    
     6    6    7 1    
     7    7    8 ar   
     8    7    9 ar   
     9    7   10 1    
    10   10   11 1    
    11   11   12 ar   
    12   11   20 ar   
    13   12   13 ar   
    14   13   14 ar   
    15   13   18 ar   
    16   14   15 ar   
    17   15   16 ar   
    18   16   17 ar   
    19   17   18 ar   
    20   18   19 ar   
    21   19   20 ar   
@<TRIPOS>SUBSTRUCTURE
     1 HLN2404     1 GROUP   
@<TRIPOS>SET

