#    Name: 6bxt_2_APR
#    Modification time : Fri May 22 19:36:30 2020

@<TRIPOS>MOLECULE
6bxt_2_APR
   36    39     1     0     0
SMALL
NO_CHARGES


@<TRIPOS>ATOM
      1 N1         97.5190   -8.8520   22.5380 N.ar      1 APR501      0.0000 
      2 C2         98.0720   -8.2040   21.4890 C.ar      1 APR501      0.0000 
      3 N3         97.9480   -6.8440   21.3810 N.ar      1 APR501      0.0000 
      4 C4         97.2670   -6.1410   22.3300 C.ar      1 APR501      0.0000 
      5 C5         96.7130   -6.7890   23.3790 C.ar      1 APR501      0.0000 
      6 C6         96.8390   -8.1590   23.4850 C.ar      1 APR501      0.0000 
      7 N6         96.4050   -9.1450   24.4160 N.pl3     1 APR501      0.0000 
      8 N7         96.0970   -5.8610   24.1720 N.2       1 APR501      0.0000 
      9 C8         96.2770   -4.6400   23.6040 C.2       1 APR501      0.0000 
     10 N9         97.0050   -4.8000   22.4530 N.pl3     1 APR501      0.0000 
     11 C1'        97.4070   -3.8320   21.5600 C.3       1 APR501      0.0000 
     12 C2'        96.8400   -2.6210   21.6920 C.3       1 APR501      0.0000 
     13 O2'        96.2830   -2.2090   20.3940 O.3       1 APR501      0.0000 
     14 C3'        97.9590   -1.6390   22.0720 C.3       1 APR501      0.0000 
     15 O3'        98.1750   -0.8040   21.0530 O.3       1 APR501      0.0000 
     16 O4'        99.0490   -3.6250   21.6840 O.3       1 APR501      0.0000 
     17 C4'        99.2520   -2.5430   22.3540 C.3       1 APR501      0.0000 
     18 C5'        99.4400   -2.9130   23.8120 C.3       1 APR501      0.0000 
     19 O5'        98.7490   -2.0050   24.6910 O.3       1 APR501      0.0000 
     20 PA         98.9870   -2.1240   26.2320 P.3       1 APR501      0.0000 
     21 O1A        98.9260   -3.5860   26.6370 O.co2     1 APR501      0.0000 
     22 O2A        97.9290   -1.3770   26.9400 O.co2     1 APR501      0.0000 
     23 O3A       100.4340   -1.5060   26.5980 O.3       1 APR501      0.0000 
     24 PB        100.6300   -0.2330   27.5300 P.3       1 APR501      0.0000 
     25 O1B        99.9110    0.9710   26.9170 O.co2     1 APR501      0.0000 
     26 O2B       102.1240    0.0740   27.6830 O.co2     1 APR501      0.0000 
     27 O5D       100.0110   -0.5370   28.9630 O.3       1 APR501      0.0000 
     28 C5D       100.9240   -0.8280   29.9940 C.3       1 APR501      0.0000 
     29 O4D        99.0730   -1.8690   30.9560 O.3       1 APR501      0.0000 
     30 O1D        98.6460   -4.2550   30.7810 O.3       1 APR501      0.0000 
     31 C1D        99.0710   -3.3110   31.6820 C.3       1 APR501      0.0000 
     32 O2D       100.3290   -4.2080   33.4220 O.3       1 APR501      0.0000 
     33 C2D       100.3180   -3.5810   32.0570 C.3       1 APR501      0.0000 
     34 O3D       101.1340   -1.8350   33.4020 O.3       1 APR501      0.0000 
     35 C3D       101.0320   -2.2640   32.1100 C.3       1 APR501      0.0000 
     36 C4D       100.1500   -1.2570   31.2790 C.3       1 APR501      0.0000 
@<TRIPOS>BOND
     1    1    2 ar   
     2    1    6 ar   
     3    2    3 ar   
     4    3    4 ar   
     5    4    5 ar   
     6    4   10 1    
     7    5    6 ar   
     8    5    8 1    
     9    6    7 1    
    10    8    9 2    
    11    9   10 1    
    12   10   11 1    
    13   11   12 1    
    14   11   16 1    
    15   12   13 1    
    16   12   14 1    
    17   14   15 1    
    18   14   17 1    
    19   16   17 1    
    20   17   18 1    
    21   18   19 1    
    22   19   20 1    
    23   20   21 ar   
    24   20   22 ar   
    25   20   23 1    
    26   23   24 1    
    27   24   25 ar   
    28   24   26 ar   
    29   24   27 1    
    30   27   28 1    
    31   28   36 1    
    32   29   31 1    
    33   29   36 1    
    34   30   31 1    
    35   31   33 1    
    36   32   33 1    
    37   33   35 1    
    38   34   35 1    
    39   35   36 1    
@<TRIPOS>SUBSTRUCTURE
     1 APR501      1 GROUP   
@<TRIPOS>SET

