#    Name: 6bxt_1_APR
#    Modification time : Fri May 22 19:36:25 2020

@<TRIPOS>MOLECULE
6bxt_1_APR
   36    39     1     0     0
SMALL
NO_CHARGES


@<TRIPOS>ATOM
      1 N1         83.7000    2.4740   63.1590 N.ar      1 APR501      0.0000 
      2 C2         84.9520    2.9790   63.2150 C.ar      1 APR501      0.0000 
      3 N3         86.0270    2.1750   62.9440 N.ar      1 APR501      0.0000 
      4 C4         85.8400    0.8660   62.6160 C.ar      1 APR501      0.0000 
      5 C5         84.5870    0.3610   62.5600 C.ar      1 APR501      0.0000 
      6 C6         83.5050    1.1700   62.8350 C.ar      1 APR501      0.0000 
      7 N6         82.0940    0.9830   62.8670 N.pl3     1 APR501      0.0000 
      8 N7         84.6780   -0.9590   62.2140 N.2       1 APR501      0.0000 
      9 C8         85.9940   -1.2590   62.0570 C.2       1 APR501      0.0000 
     10 N9         86.7310   -0.1310   62.3060 N.pl3     1 APR501      0.0000 
     11 C1'        88.0990    0.0160   62.2690 C.3       1 APR501      0.0000 
     12 C2'        88.8220   -1.1100   62.1610 C.3       1 APR501      0.0000 
     13 O2'        89.3940   -1.4500   63.4730 O.3       1 APR501      0.0000 
     14 C3'        89.9560   -0.7850   61.1730 C.3       1 APR501      0.0000 
     15 O3'        91.0690   -0.4320   61.8240 O.3       1 APR501      0.0000 
     16 O4'        88.4650    0.9810   60.9710 O.3       1 APR501      0.0000 
     17 C4'        89.4040    0.4250   60.2880 C.3       1 APR501      0.0000 
     18 C5'        88.8370   -0.0870   58.9870 C.3       1 APR501      0.0000 
     19 O5'        87.6840   -0.9070   59.2570 O.3       1 APR501      0.0000 
     20 PA         87.1190   -1.7800   58.0880 P.3       1 APR501      0.0000 
     21 O1A        86.3460   -0.9050   57.1150 O.co2     1 APR501      0.0000 
     22 O2A        86.2400   -2.8450   58.6100 O.co2     1 APR501      0.0000 
     23 O3A        88.3830   -2.4520   57.3460 O.3       1 APR501      0.0000 
     24 PB         88.7380   -2.3100   55.8050 P.3       1 APR501      0.0000 
     25 O1B        89.4290   -0.9740   55.5310 O.co2     1 APR501      0.0000 
     26 O2B        89.6780   -3.4610   55.4450 O.co2     1 APR501      0.0000 
     27 O5D        87.4170   -2.4310   54.9310 O.3       1 APR501      0.0000 
     28 C5D        87.0400   -3.7470   54.6140 C.3       1 APR501      0.0000 
     29 O4D        84.8870   -3.3030   55.3470 O.3       1 APR501      0.0000 
     30 O1D        84.0720   -1.0140   55.5060 O.3       1 APR501      0.0000 
     31 C1D        83.8800   -2.1720   54.7860 C.3       1 APR501      0.0000 
     32 O2D        82.8650   -2.1030   52.7070 O.3       1 APR501      0.0000 
     33 C2D        84.1370   -1.9680   53.4950 C.3       1 APR501      0.0000 
     34 O3D        84.4880   -3.8710   52.1750 O.3       1 APR501      0.0000 
     35 C3D        85.1040   -3.0310   53.0620 C.3       1 APR501      0.0000 
     36 C4D        85.5020   -3.8330   54.3600 C.3       1 APR501      0.0000 
@<TRIPOS>BOND
     1    1    2 ar   
     2    1    6 ar   
     3    2    3 ar   
     4    3    4 ar   
     5    4    5 ar   
     6    4   10 1    
     7    5    6 ar   
     8    5    8 1    
     9    6    7 1    
    10    8    9 2    
    11    9   10 1    
    12   10   11 1    
    13   11   12 1    
    14   11   16 1    
    15   12   13 1    
    16   12   14 1    
    17   14   15 1    
    18   14   17 1    
    19   16   17 1    
    20   17   18 1    
    21   18   19 1    
    22   19   20 1    
    23   20   21 ar   
    24   20   22 ar   
    25   20   23 1    
    26   23   24 1    
    27   24   25 ar   
    28   24   26 ar   
    29   24   27 1    
    30   27   28 1    
    31   28   36 1    
    32   29   31 1    
    33   29   36 1    
    34   30   31 1    
    35   31   33 1    
    36   32   33 1    
    37   33   35 1    
    38   34   35 1    
    39   35   36 1    
@<TRIPOS>SUBSTRUCTURE
     1 APR501      1 GROUP   
@<TRIPOS>SET

