#    Name: 6p1l_4_ANP
#    Modification time : Fri May 22 19:30:12 2020

@<TRIPOS>MOLECULE
6p1l_4_ANP
   31    33     1     0     1
SMALL
NO_CHARGES


@<TRIPOS>ATOM
      1 PG         37.2920   30.8740   39.5940 P.3       1 ANP1102     0.0000 
      2 O1G        38.0450   30.7300   38.3080 O.co2     1 ANP1102     0.0000 
      3 O2G        37.2600   32.4070   39.9660 O.co2     1 ANP1102     0.0000 
      4 O3G        38.0460   30.1010   40.7500 O.co2     1 ANP1102     0.0000 
      5 PB         35.4220   29.0660   38.3580 P.3       1 ANP1102     0.0000 
      6 O1B        36.6830   28.5260   37.7640 O.co2     1 ANP1102     0.0000 
      7 O2B        34.6990   27.8800   39.0560 O.co2     1 ANP1102     0.0000 
      8 N3B        35.6970   30.2960   39.4740 N.3       1 ANP1102     0.0000 
      9 PA         34.9860   30.2900   35.9060 P.3       1 ANP1102     0.0000 
     10 O1A        34.6040   31.7190   35.8900 O.co2     1 ANP1102     0.0000 
     11 O2A        36.4920   30.0500   35.7560 O.co2     1 ANP1102     0.0000 
     12 O3A        34.4750   29.5850   37.2350 O.3       1 ANP1102     0.0000 
     13 O5'        34.1810   29.5410   34.7770 O.3       1 ANP1102     0.0000 
     14 C5'        32.8550   29.0290   35.0090 C.3       1 ANP1102     0.0000 
     15 C4'        32.8460   27.5560   34.6920 C.3       1 ANP1102     0.0000 
     16 O4'        32.8170   27.3700   33.2620 O.3       1 ANP1102     0.0000 
     17 C3'        34.0710   26.7760   35.1510 C.3       1 ANP1102     0.0000 
     18 O3'        33.9730   26.3940   36.5190 O.3       1 ANP1102     0.0000 
     19 C2'        34.0490   25.5680   34.2150 C.3       1 ANP1102     0.0000 
     20 O2'        33.1660   24.5570   34.6880 O.3       1 ANP1102     0.0000 
     21 C1'        33.5000   26.1760   32.9180 C.3       1 ANP1102     0.0000 
     22 N9         34.5310   26.4930   31.9350 N.pl3     1 ANP1102     0.0000 
     23 C8         35.5310   27.4230   32.0500 C.2       1 ANP1102     0.0000 
     24 N7         36.3220   27.4900   31.0060 N.2       1 ANP1102     0.0000 
     25 C5         35.8040   26.5360   30.1430 C.ar      1 ANP1102     0.0000 
     26 C6         36.1890   26.1140   28.8540 C.ar      1 ANP1102     0.0000 
     27 N6         37.2310   26.6180   28.1890 N.pl3     1 ANP1102     0.0000 
     28 N1         35.4550   25.1400   28.2680 N.ar      1 ANP1102     0.0000 
     29 C2         34.4150   24.6290   28.9320 C.ar      1 ANP1102     0.0000 
     30 N3         33.9580   24.9470   30.1470 N.ar      1 ANP1102     0.0000 
     31 C4         34.7010   25.9130   30.7010 C.ar      1 ANP1102     0.0000 
@<TRIPOS>BOND
     1    1    2 ar   
     2    1    3 ar   
     3    1    4 ar   
     4    1    8 1    
     5    5    6 ar   
     6    5    7 ar   
     7    5    8 1    
     8    5   12 1    
     9    9   10 ar   
    10    9   11 ar   
    11    9   12 1    
    12    9   13 1    
    13   13   14 1    
    14   14   15 1    
    15   15   16 1    
    16   15   17 1    
    17   16   21 1    
    18   17   18 1    
    19   17   19 1    
    20   19   20 1    
    21   19   21 1    
    22   21   22 1    
    23   22   23 1    
    24   22   31 1    
    25   23   24 2    
    26   24   25 1    
    27   25   26 ar   
    28   25   31 ar   
    29   26   27 1    
    30   26   28 ar   
    31   28   29 ar   
    32   29   30 ar   
    33   30   31 ar   
@<TRIPOS>SUBSTRUCTURE
     1 ANP1102     1 GROUP   
@<TRIPOS>SET
ATOM$ORANGE STATIC     ATOMS   COLORGROUP SYSTEM 
20 14 14 15 15 17 17 19 19 21 21 23 23 25 25 26 26 29 \
29 31 31 

