#    Name: 6p1l_1_ANP
#    Modification time : Fri May 22 19:29:44 2020

@<TRIPOS>MOLECULE
6p1l_1_ANP
   31    33     1     0     1
SMALL
NO_CHARGES


@<TRIPOS>ATOM
      1 PG         -0.8330   28.3270   37.9660 P.3       1 ANP1102     0.0000 
      2 O1G        -1.5040   29.6560   37.8090 O.co2     1 ANP1102     0.0000 
      3 O2G         0.0040   28.3250   39.3040 O.co2     1 ANP1102     0.0000 
      4 O3G         0.1290   28.0690   36.7330 O.co2     1 ANP1102     0.0000 
      5 PB         -2.1470   26.2120   36.6720 P.3       1 ANP1102     0.0000 
      6 O1B        -0.8210   26.0890   36.0080 O.co2     1 ANP1102     0.0000 
      7 O2B        -2.6420   24.7820   37.0320 O.co2     1 ANP1102     0.0000 
      8 N3B        -2.0100   27.1130   38.0810 N.3       1 ANP1102     0.0000 
      9 PA         -2.8410   27.4160   34.2530 P.3       1 ANP1102     0.0000 
     10 O1A        -3.6360   28.6330   33.9810 O.co2     1 ANP1102     0.0000 
     11 O2A        -1.3290   27.6030   34.1140 O.co2     1 ANP1102     0.0000 
     12 O3A        -3.1820   26.8800   35.7170 O.3       1 ANP1102     0.0000 
     13 O5'        -3.3580   26.2630   33.3090 O.3       1 ANP1102     0.0000 
     14 C5'        -4.4520   25.4370   33.7400 C.3       1 ANP1102     0.0000 
     15 C4'        -4.2410   24.0320   33.2410 C.3       1 ANP1102     0.0000 
     16 O4'        -4.1100   24.0410   31.8070 O.3       1 ANP1102     0.0000 
     17 C3'        -2.9760   23.3340   33.7170 C.3       1 ANP1102     0.0000 
     18 O3'        -3.1250   22.8010   35.0290 O.3       1 ANP1102     0.0000 
     19 C2'        -2.8130   22.2350   32.6670 C.3       1 ANP1102     0.0000 
     20 O2'        -3.6140   21.1030   32.9880 O.3       1 ANP1102     0.0000 
     21 C1'        -3.3580   22.9100   31.3980 C.3       1 ANP1102     0.0000 
     22 N9         -2.3260   23.3430   30.4590 N.pl3     1 ANP1102     0.0000 
     23 C8         -1.5260   24.4510   30.5610 C.2       1 ANP1102     0.0000 
     24 N7         -0.6780   24.5900   29.5700 N.2       1 ANP1102     0.0000 
     25 C5         -0.9400   23.4980   28.7580 C.ar      1 ANP1102     0.0000 
     26 C6         -0.3810   23.0670   27.5390 C.ar      1 ANP1102     0.0000 
     27 N6          0.6010   23.7110   26.9030 N.pl3     1 ANP1102     0.0000 
     28 N1         -0.8710   21.9320   26.9910 N.ar      1 ANP1102     0.0000 
     29 C2         -1.8510   21.2820   27.6250 C.ar      1 ANP1102     0.0000 
     30 N3         -2.4550   21.5930   28.7740 N.ar      1 ANP1102     0.0000 
     31 C4         -1.9510   22.7190   29.2940 C.ar      1 ANP1102     0.0000 
@<TRIPOS>BOND
     1    1    2 ar   
     2    1    3 ar   
     3    1    4 ar   
     4    1    8 1    
     5    5    6 ar   
     6    5    7 ar   
     7    5    8 1    
     8    5   12 1    
     9    9   10 ar   
    10    9   11 ar   
    11    9   12 1    
    12    9   13 1    
    13   13   14 1    
    14   14   15 1    
    15   15   16 1    
    16   15   17 1    
    17   16   21 1    
    18   17   18 1    
    19   17   19 1    
    20   19   20 1    
    21   19   21 1    
    22   21   22 1    
    23   22   23 1    
    24   22   31 1    
    25   23   24 2    
    26   24   25 1    
    27   25   26 ar   
    28   25   31 ar   
    29   26   27 1    
    30   26   28 ar   
    31   28   29 ar   
    32   29   30 ar   
    33   30   31 ar   
@<TRIPOS>SUBSTRUCTURE
     1 ANP1102     1 GROUP   
@<TRIPOS>SET
ATOM$ORANGE STATIC     ATOMS   COLORGROUP SYSTEM 
20 14 14 15 15 17 17 19 19 21 21 23 23 25 25 26 26 29 \
29 31 31 

