#    Name: 6p1l_3_ANP
#    Modification time : Fri May 22 19:30:01 2020

@<TRIPOS>MOLECULE
6p1l_3_ANP
   31    33     1     0     1
SMALL
NO_CHARGES


@<TRIPOS>ATOM
      1 PG         -0.7590    5.9470   -5.7590 P.3       1 ANP1102     0.0000 
      2 O1G        -0.7510    5.2900   -4.4150 O.co2     1 ANP1102     0.0000 
      3 O2G         0.6830    6.4800   -6.1010 O.co2     1 ANP1102     0.0000 
      4 O3G        -1.1820    4.8960   -6.8560 O.co2     1 ANP1102     0.0000 
      5 PB         -1.9560    7.9990   -4.3080 P.3       1 ANP1102     0.0000 
      6 O1B        -0.6120    8.0740   -3.6630 O.co2     1 ANP1102     0.0000 
      7 O2B        -2.4830    9.4470   -4.5260 O.co2     1 ANP1102     0.0000 
      8 N3B        -1.8580    7.2330   -5.7940 N.3       1 ANP1102     0.0000 
      9 PA         -2.5730    6.8070   -1.8970 P.3       1 ANP1102     0.0000 
     10 O1A        -3.1430    5.4810   -1.5550 O.co2     1 ANP1102     0.0000 
     11 O2A        -1.0470    6.8660   -1.7800 O.co2     1 ANP1102     0.0000 
     12 O3A        -2.9480    7.2160   -3.3910 O.3       1 ANP1102     0.0000 
     13 O5'        -3.2700    7.9070   -0.9880 O.3       1 ANP1102     0.0000 
     14 C5'        -4.2770    8.7710   -1.5430 C.3       1 ANP1102     0.0000 
     15 C4'        -4.1590   10.1480   -0.9380 C.3       1 ANP1102     0.0000 
     16 O4'        -4.0710   10.0480    0.4950 O.3       1 ANP1102     0.0000 
     17 C3'        -2.9250   10.9470   -1.3320 C.3       1 ANP1102     0.0000 
     18 O3'        -3.0890   11.5840   -2.5950 O.3       1 ANP1102     0.0000 
     19 C2'        -2.8240   11.9630   -0.1910 C.3       1 ANP1102     0.0000 
     20 O2'        -3.6150   13.1210   -0.4360 O.3       1 ANP1102     0.0000 
     21 C1'        -3.3860   11.1790    1.0050 C.3       1 ANP1102     0.0000 
     22 N9         -2.3680   10.7220    1.9440 N.pl3     1 ANP1102     0.0000 
     23 C8         -1.5440    9.6340    1.8150 C.2       1 ANP1102     0.0000 
     24 N7         -0.7220    9.4640    2.8210 N.2       1 ANP1102     0.0000 
     25 C5         -1.0250   10.5160    3.6740 C.ar      1 ANP1102     0.0000 
     26 C6         -0.5050   10.9030    4.9240 C.ar      1 ANP1102     0.0000 
     27 N6          0.4710   10.2500    5.5580 N.pl3     1 ANP1102     0.0000 
     28 N1         -1.0320   12.0040    5.5080 N.ar      1 ANP1102     0.0000 
     29 C2         -2.0080   12.6620    4.8770 C.ar      1 ANP1102     0.0000 
     30 N3         -2.5770   12.3910    3.7000 N.ar      1 ANP1102     0.0000 
     31 C4         -2.0360   11.2980    3.1450 C.ar      1 ANP1102     0.0000 
@<TRIPOS>BOND
     1    1    2 ar   
     2    1    3 ar   
     3    1    4 ar   
     4    1    8 1    
     5    5    6 ar   
     6    5    7 ar   
     7    5    8 1    
     8    5   12 1    
     9    9   10 ar   
    10    9   11 ar   
    11    9   12 1    
    12    9   13 1    
    13   13   14 1    
    14   14   15 1    
    15   15   16 1    
    16   15   17 1    
    17   16   21 1    
    18   17   18 1    
    19   17   19 1    
    20   19   20 1    
    21   19   21 1    
    22   21   22 1    
    23   22   23 1    
    24   22   31 1    
    25   23   24 2    
    26   24   25 1    
    27   25   26 ar   
    28   25   31 ar   
    29   26   27 1    
    30   26   28 ar   
    31   28   29 ar   
    32   29   30 ar   
    33   30   31 ar   
@<TRIPOS>SUBSTRUCTURE
     1 ANP1102     1 GROUP   
@<TRIPOS>SET
ATOM$ORANGE STATIC     ATOMS   COLORGROUP SYSTEM 
20 14 14 15 15 17 17 19 19 21 21 23 23 25 25 26 26 29 \
29 31 31 

