#    Name: 6p1l_2_ANP
#    Modification time : Fri May 22 19:29:56 2020

@<TRIPOS>MOLECULE
6p1l_2_ANP
   31    33     1     0     1
SMALL
NO_CHARGES


@<TRIPOS>ATOM
      1 PG         33.9860   10.7840   -4.6680 P.3       1 ANP1102     0.0000 
      2 O1G        35.0190   10.7820   -3.5870 O.co2     1 ANP1102     0.0000 
      3 O2G        32.8530    9.7490   -4.3000 O.co2     1 ANP1102     0.0000 
      4 O3G        34.6670   10.3630   -6.0340 O.co2     1 ANP1102     0.0000 
      5 PB         32.9710   13.0280   -3.3410 P.3       1 ANP1102     0.0000 
      6 O1B        34.2270   13.3260   -2.5930 O.co2     1 ANP1102     0.0000 
      7 O2B        32.1810   14.3540   -3.5530 O.co2     1 ANP1102     0.0000 
      8 N3B        33.3200   12.3350   -4.8310 N.3       1 ANP1102     0.0000 
      9 PA         31.9850   12.2700   -0.9370 P.3       1 ANP1102     0.0000 
     10 O1A        31.1450   11.2180   -0.3140 O.co2     1 ANP1102     0.0000 
     11 O2A        33.4080   12.3450   -0.3770 O.co2     1 ANP1102     0.0000 
     12 O3A        32.1170   12.0350   -2.4990 O.3       1 ANP1102     0.0000 
     13 O5'        31.2520   13.6660   -0.8240 O.3       1 ANP1102     0.0000 
     14 C5'        30.8030   14.1760    0.4380 C.3       1 ANP1102     0.0000 
     15 C4'        31.2530   15.6060    0.6040 C.3       1 ANP1102     0.0000 
     16 O4'        31.2040   15.9570    2.0040 O.3       1 ANP1102     0.0000 
     17 C3'        32.6820   15.9030    0.1570 C.3       1 ANP1102     0.0000 
     18 O3'        32.7290   16.2760   -1.2160 O.3       1 ANP1102     0.0000 
     19 C2'        33.0860   17.0500    1.0850 C.3       1 ANP1102     0.0000 
     20 O2'        32.5960   18.3050    0.6260 O.3       1 ANP1102     0.0000 
     21 C1'        32.3680   16.6670    2.3800 C.3       1 ANP1102     0.0000 
     22 N9         33.1590   15.8280    3.2790 N.pl3     1 ANP1102     0.0000 
     23 C8         33.6700   14.5840    3.0160 C.2       1 ANP1102     0.0000 
     24 N7         34.3490   14.0640    4.0100 N.2       1 ANP1102     0.0000 
     25 C5         34.2780   15.0340    4.9970 C.ar      1 ANP1102     0.0000 
     26 C6         34.7990   15.0940    6.3050 C.ar      1 ANP1102     0.0000 
     27 N6         35.5230   14.1200    6.8610 N.pl3     1 ANP1102     0.0000 
     28 N1         34.5460   16.2070    7.0280 N.ar      1 ANP1102     0.0000 
     29 C2         33.8220   17.1840    6.4760 C.ar      1 ANP1102     0.0000 
     30 N3         33.2820   17.2410    5.2560 N.ar      1 ANP1102     0.0000 
     31 C4         33.5490   16.1270    4.5630 C.ar      1 ANP1102     0.0000 
@<TRIPOS>BOND
     1    1    2 ar   
     2    1    3 ar   
     3    1    4 ar   
     4    1    8 1    
     5    5    6 ar   
     6    5    7 ar   
     7    5    8 1    
     8    5   12 1    
     9    9   10 ar   
    10    9   11 ar   
    11    9   12 1    
    12    9   13 1    
    13   13   14 1    
    14   14   15 1    
    15   15   16 1    
    16   15   17 1    
    17   16   21 1    
    18   17   18 1    
    19   17   19 1    
    20   19   20 1    
    21   19   21 1    
    22   21   22 1    
    23   22   23 1    
    24   22   31 1    
    25   23   24 2    
    26   24   25 1    
    27   25   26 ar   
    28   25   31 ar   
    29   26   27 1    
    30   26   28 ar   
    31   28   29 ar   
    32   29   30 ar   
    33   30   31 ar   
@<TRIPOS>SUBSTRUCTURE
     1 ANP1102     1 GROUP   
@<TRIPOS>SET
ATOM$ORANGE STATIC     ATOMS   COLORGROUP SYSTEM 
20 14 14 15 15 17 17 19 19 21 21 23 23 25 25 26 26 29 \
29 31 31 

