#    Name: 6jnk_2_NAP
#    Modification time : Fri May 22 19:34:25 2020

@<TRIPOS>MOLECULE
6jnk_2_NAP
   48    52     1     0     1
SMALL
NO_CHARGES


@<TRIPOS>ATOM
      1 PA        -12.7770  -16.5600   11.4040 P.3       1 NAP401      0.0000 
      2 O1A       -13.5700  -17.3950   10.4950 O.co2     1 NAP401      0.0000 
      3 O2A       -12.4880  -17.3520   12.7080 O.co2     1 NAP401      0.0000 
      4 O5B       -11.3410  -16.1500   10.6800 O.3       1 NAP401      0.0000 
      5 C5B       -11.2240  -16.1940    9.2560 C.3       1 NAP401      0.0000 
      6 C4B       -10.0930  -17.1420    8.8090 C.3       1 NAP401      0.0000 
      7 O4B        -8.6990  -16.5570    9.1780 O.3       1 NAP401      0.0000 
      8 C3B       -10.1410  -18.2720    9.4040 C.3       1 NAP401      0.0000 
      9 O3B       -10.9690  -19.2020    8.6470 O.3       1 NAP401      0.0000 
     10 C2B        -8.6100  -18.8290    9.2230 C.3       1 NAP401      0.0000 
     11 O2B        -8.6180  -19.4670    7.9000 O.3       1 NAP401      0.0000 
     12 C1B        -7.8060  -17.8200    9.2910 C.3       1 NAP401      0.0000 
     13 N9A        -7.1420  -17.8780   10.6290 N.pl3     1 NAP401      0.0000 
     14 C8A        -7.4860  -18.0750   11.9070 C.2       1 NAP401      0.0000 
     15 N7A        -6.3490  -18.0300   12.6120 N.2       1 NAP401      0.0000 
     16 C5A        -5.3170  -17.8050   11.7410 C.ar      1 NAP401      0.0000 
     17 C6A        -3.9590  -17.6970   11.9700 C.ar      1 NAP401      0.0000 
     18 N6A        -3.0340  -17.7270   13.0910 N.pl3     1 NAP401      0.0000 
     19 N1A        -3.1220  -17.4910   10.9480 N.ar      1 NAP401      0.0000 
     20 C2A        -3.6190  -17.3880    9.6850 C.ar      1 NAP401      0.0000 
     21 N3A        -4.9420  -17.4930    9.4550 N.ar      1 NAP401      0.0000 
     22 C4A        -5.7960  -17.7200   10.5040 C.ar      1 NAP401      0.0000 
     23 O3        -13.7030  -15.2450   11.7960 O.3       1 NAP401      0.0000 
     24 PN        -14.1930  -14.1470   10.7440 P.3       1 NAP401      0.0000 
     25 O1N       -15.2620  -14.4870    9.8420 O.co2     1 NAP401      0.0000 
     26 O2N       -13.0770  -13.9040    9.7450 O.co2     1 NAP401      0.0000 
     27 O5D       -14.2490  -12.6910   11.4780 O.3       1 NAP401      0.0000 
     28 C5D       -12.8200  -12.3980   11.5790 C.3       1 NAP401      0.0000 
     29 C4D       -12.3870  -10.9540   11.3250 C.3       1 NAP401      0.0000 
     30 O4D       -13.4250  -10.1590   10.4020 O.3       1 NAP401      0.0000 
     31 C3D       -12.3800  -10.3670   12.4990 C.3       1 NAP401      0.0000 
     32 O3D       -11.3290   -9.2810   12.5180 O.3       1 NAP401      0.0000 
     33 C2D       -13.8210   -9.8300   12.6320 C.3       1 NAP401      0.0000 
     34 O2D       -13.9280   -8.8870   13.6180 O.3       1 NAP401      0.0000 
     35 C1D       -14.0700   -9.3200   11.1910 C.3       1 NAP401      0.0000 
     36 N1N       -15.5300   -9.2800   10.8690 N.pl3     1 NAP401      0.0000 
     37 C2N       -16.3110  -10.3470   11.1080 C.ar      1 NAP401      0.0000 
     38 C3N       -17.6850  -10.2820   10.8250 C.ar      1 NAP401      0.0000 
     39 C7N       -18.5870  -11.4980   11.1050 C.2       1 NAP401      0.0000 
     40 O7N       -18.1300  -12.5660   11.2390 O.2       1 NAP401      0.0000 
     41 N7N       -20.0000  -11.2880   11.1890 N.am      1 NAP401      0.0000 
     42 C4N       -18.2360   -9.1500   10.2900 C.ar      1 NAP401      0.0000 
     43 C5N       -17.4580   -8.0860   10.0340 C.ar      1 NAP401      0.0000 
     44 C6N       -16.0850   -8.1480   10.3280 C.ar      1 NAP401      0.0000 
     45 P2B        -7.5030  -20.7200    7.6390 P.3       1 NAP401      0.0000 
     46 O1X        -7.8340  -21.3830    6.3150 O.co2     1 NAP401      0.0000 
     47 O2X        -6.1480  -20.0920    7.5970 O.co2     1 NAP401      0.0000 
     48 O3X        -7.5640  -21.6970    8.7970 O.co2     1 NAP401      0.0000 
@<TRIPOS>BOND
     1    1    2 ar   
     2    1    3 ar   
     3    1    4 1    
     4    1   23 1    
     5    4    5 1    
     6    5    6 1    
     7    6    7 1    
     8    6    8 1    
     9    7   12 1    
    10    8    9 1    
    11    8   10 1    
    12   10   11 1    
    13   10   12 1    
    14   11   45 1    
    15   12   13 1    
    16   13   14 1    
    17   13   22 1    
    18   14   15 2    
    19   15   16 1    
    20   16   17 ar   
    21   16   22 ar   
    22   17   18 1    
    23   17   19 ar   
    24   19   20 ar   
    25   20   21 ar   
    26   21   22 ar   
    27   23   24 1    
    28   24   25 ar   
    29   24   26 ar   
    30   24   27 1    
    31   27   28 1    
    32   28   29 1    
    33   29   30 1    
    34   29   31 1    
    35   30   35 1    
    36   31   32 1    
    37   31   33 1    
    38   33   34 1    
    39   33   35 1    
    40   35   36 1    
    41   36   37 ar   
    42   36   44 ar   
    43   37   38 ar   
    44   38   39 1    
    45   38   42 ar   
    46   39   40 2    
    47   39   41 am   
    48   42   43 ar   
    49   43   44 ar   
    50   45   46 ar   
    51   45   47 ar   
    52   45   48 ar   
@<TRIPOS>SUBSTRUCTURE
     1 NAP401      1 GROUP   
@<TRIPOS>SET
ATOM$ORANGE STATIC     ATOMS   COLORGROUP SYSTEM 
42 5 5 6 6 8 8 10 10 12 12 14 14 16 16 17 17 20 \
20 22 22 28 28 29 29 31 31 33 33 35 35 37 37 38 38 39 \
39 42 42 43 43 44 44 

