#    Name: 6jnk_1_NAP
#    Modification time : Fri May 22 19:34:21 2020

@<TRIPOS>MOLECULE
6jnk_1_NAP
   48    52     1     0     1
SMALL
NO_CHARGES


@<TRIPOS>ATOM
      1 PA          0.7800   12.0820   45.9960 P.3       1 NAP401      0.0000 
      2 O1A         1.7520   11.9580   47.0910 O.co2     1 NAP401      0.0000 
      3 O2A        -0.5720   11.3570   46.2630 O.co2     1 NAP401      0.0000 
      4 O5B         0.5450   13.6860   45.8330 O.3       1 NAP401      0.0000 
      5 C5B        -0.3880   14.1520   44.8920 C.3       1 NAP401      0.0000 
      6 C4B        -1.1470   15.3120   45.5760 C.3       1 NAP401      0.0000 
      7 O4B        -2.3200   15.6730   44.6190 O.3       1 NAP401      0.0000 
      8 C3B        -1.6960   14.9240   46.6680 C.3       1 NAP401      0.0000 
      9 O3B        -0.9600   15.4100   47.8300 O.3       1 NAP401      0.0000 
     10 C2B        -3.1430   15.7050   46.7160 C.3       1 NAP401      0.0000 
     11 O2B        -2.8480   16.9660   47.3790 O.3       1 NAP401      0.0000 
     12 C1B        -3.5510   15.9130   45.5160 C.3       1 NAP401      0.0000 
     13 N9A        -4.5890   14.8850   45.2690 N.pl3     1 NAP401      0.0000 
     14 C8A        -4.8030   13.5920   45.5190 C.2       1 NAP401      0.0000 
     15 N7A        -6.0210   13.3100   45.0270 N.2       1 NAP401      0.0000 
     16 C5A        -6.5300   14.4490   44.4920 C.ar      1 NAP401      0.0000 
     17 C6A        -7.7440   14.6600   43.8780 C.ar      1 NAP401      0.0000 
     18 N6A        -8.9360   13.8930   43.5330 N.pl3     1 NAP401      0.0000 
     19 N1A        -8.0410   15.8840   43.4180 N.ar      1 NAP401      0.0000 
     20 C2A        -7.1360   16.9020   43.5670 C.ar      1 NAP401      0.0000 
     21 N3A        -5.9300   16.6940   44.1720 N.ar      1 NAP401      0.0000 
     22 C4A        -5.6460   15.4420   44.6380 C.ar      1 NAP401      0.0000 
     23 O3          1.4800   11.4790   44.5990 O.3       1 NAP401      0.0000 
     24 PN          2.8790   11.9700   43.9680 P.3       1 NAP401      0.0000 
     25 O1N         3.9330   11.0090   44.3380 O.co2     1 NAP401      0.0000 
     26 O2N         3.2800   13.3680   44.4530 O.co2     1 NAP401      0.0000 
     27 O5D         2.7010   11.9170   42.3140 O.3       1 NAP401      0.0000 
     28 C5D         1.8650   12.8260   41.5490 C.3       1 NAP401      0.0000 
     29 C4D         2.2580   12.5740   40.0850 C.3       1 NAP401      0.0000 
     30 O4D         3.8580   12.7330   39.9350 O.3       1 NAP401      0.0000 
     31 C3D         1.9540   11.3330   39.7330 C.3       1 NAP401      0.0000 
     32 O3D         1.3720   11.3560   38.3440 O.3       1 NAP401      0.0000 
     33 C2D         3.2720   10.5210   39.6870 C.3       1 NAP401      0.0000 
     34 O2D         3.2420    9.5540   38.7180 O.3       1 NAP401      0.0000 
     35 C1D         4.3240   11.6170   39.3960 C.3       1 NAP401      0.0000 
     36 N1N         5.6510   11.3070   39.9970 N.pl3     1 NAP401      0.0000 
     37 C2N         5.7410   10.6210   41.1580 C.ar      1 NAP401      0.0000 
     38 C3N         7.0110   10.3460   41.7040 C.ar      1 NAP401      0.0000 
     39 C7N         7.1530    9.5610   43.0390 C.2       1 NAP401      0.0000 
     40 O7N         7.8390    8.6120   43.1360 O.2       1 NAP401      0.0000 
     41 N7N         6.4290   10.0380   44.1800 N.am      1 NAP401      0.0000 
     42 C4N         8.1330   10.7890   41.0740 C.ar      1 NAP401      0.0000 
     43 C5N         8.0440   11.4750   39.9180 C.ar      1 NAP401      0.0000 
     44 C6N         6.7920   11.7510   39.3590 C.ar      1 NAP401      0.0000 
     45 P2B        -4.0740   17.5630   48.3700 P.3       1 NAP401      0.0000 
     46 O1X        -4.6400   16.3970   49.1610 O.co2     1 NAP401      0.0000 
     47 O2X        -3.5240   18.6150   49.2650 O.co2     1 NAP401      0.0000 
     48 O3X        -5.1250   18.1570   47.4440 O.co2     1 NAP401      0.0000 
@<TRIPOS>BOND
     1    1    2 ar   
     2    1    3 ar   
     3    1    4 1    
     4    1   23 1    
     5    4    5 1    
     6    5    6 1    
     7    6    7 1    
     8    6    8 1    
     9    7   12 1    
    10    8    9 1    
    11    8   10 1    
    12   10   11 1    
    13   10   12 1    
    14   11   45 1    
    15   12   13 1    
    16   13   14 1    
    17   13   22 1    
    18   14   15 2    
    19   15   16 1    
    20   16   17 ar   
    21   16   22 ar   
    22   17   18 1    
    23   17   19 ar   
    24   19   20 ar   
    25   20   21 ar   
    26   21   22 ar   
    27   23   24 1    
    28   24   25 ar   
    29   24   26 ar   
    30   24   27 1    
    31   27   28 1    
    32   28   29 1    
    33   29   30 1    
    34   29   31 1    
    35   30   35 1    
    36   31   32 1    
    37   31   33 1    
    38   33   34 1    
    39   33   35 1    
    40   35   36 1    
    41   36   37 ar   
    42   36   44 ar   
    43   37   38 ar   
    44   38   39 1    
    45   38   42 ar   
    46   39   40 2    
    47   39   41 am   
    48   42   43 ar   
    49   43   44 ar   
    50   45   46 ar   
    51   45   47 ar   
    52   45   48 ar   
@<TRIPOS>SUBSTRUCTURE
     1 NAP401      1 GROUP   
@<TRIPOS>SET
ATOM$ORANGE STATIC     ATOMS   COLORGROUP SYSTEM 
42 5 5 6 6 8 8 10 10 12 12 14 14 16 16 17 17 20 \
20 22 22 28 28 29 29 31 31 33 33 35 35 37 37 38 38 39 \
39 42 42 43 43 44 44 

