#    Name: 6jnk_3_NAP
#    Modification time : Fri May 22 19:34:29 2020

@<TRIPOS>MOLECULE
6jnk_3_NAP
   48    52     1     0     1
SMALL
NO_CHARGES


@<TRIPOS>ATOM
      1 PA         27.1520   21.8240   57.2430 P.3       1 NAP401      0.0000 
      2 O1A        25.8520   22.4970   57.1780 O.co2     1 NAP401      0.0000 
      3 O2A        27.0190   20.2830   57.2880 O.co2     1 NAP401      0.0000 
      4 O5B        27.9580   22.2840   55.8920 O.3       1 NAP401      0.0000 
      5 C5B        27.4740   21.7130   54.6790 C.3       1 NAP401      0.0000 
      6 C4B        28.0650   20.2860   54.5430 C.3       1 NAP401      0.0000 
      7 O4B        27.1180   19.1750   55.1110 O.3       1 NAP401      0.0000 
      8 C3B        28.1500   20.0910   53.2940 C.3       1 NAP401      0.0000 
      9 O3B        29.5490   20.0150   52.9170 O.3       1 NAP401      0.0000 
     10 C2B        27.3830   18.6630   52.9460 C.3       1 NAP401      0.0000 
     11 O2B        28.4110   17.8330   52.3320 O.3       1 NAP401      0.0000 
     12 C1B        26.9090   18.1100   54.0000 C.3       1 NAP401      0.0000 
     13 N9A        25.4500   17.8510   53.7440 N.pl3     1 NAP401      0.0000 
     14 C8A        24.2750   18.5020   53.7120 C.2       1 NAP401      0.0000 
     15 N7A        23.3480   17.5880   53.3630 N.2       1 NAP401      0.0000 
     16 C5A        23.9690   16.3800   53.1790 C.ar      1 NAP401      0.0000 
     17 C6A        23.4790   15.1270   52.8150 C.ar      1 NAP401      0.0000 
     18 N6A        22.2270   14.4590   52.4750 N.pl3     1 NAP401      0.0000 
     19 N1A        24.3190   14.0840   52.6990 N.ar      1 NAP401      0.0000 
     20 C2A        25.6550   14.2560   52.9330 C.ar      1 NAP401      0.0000 
     21 N3A        26.1370   15.4740   53.2840 N.ar      1 NAP401      0.0000 
     22 C4A        25.2790   16.5400   53.4090 C.ar      1 NAP401      0.0000 
     23 O3         28.0750   22.2270   58.5960 O.3       1 NAP401      0.0000 
     24 PN         27.4120   22.0140   60.0370 P.3       1 NAP401      0.0000 
     25 O1N        26.0750   21.5560   59.6720 O.co2     1 NAP401      0.0000 
     26 O2N        27.2800   23.3320   60.8080 O.co2     1 NAP401      0.0000 
     27 O5D        27.9640   20.7300   60.9400 O.3       1 NAP401      0.0000 
     28 C5D        27.1670   19.5110   60.7910 C.3       1 NAP401      0.0000 
     29 C4D        26.8740   18.7180   62.0820 C.3       1 NAP401      0.0000 
     30 O4D        27.8700   19.0270   63.3040 O.3       1 NAP401      0.0000 
     31 C3D        25.6610   18.9800   62.5150 C.3       1 NAP401      0.0000 
     32 O3D        25.0730   17.7440   63.1560 O.3       1 NAP401      0.0000 
     33 C2D        25.8770   20.0550   63.5770 C.3       1 NAP401      0.0000 
     34 O2D        24.8640   20.0230   64.4600 O.3       1 NAP401      0.0000 
     35 C1D        27.1730   19.5940   64.2580 C.3       1 NAP401      0.0000 
     36 N1N        27.9260   20.7580   64.7880 N.pl3     1 NAP401      0.0000 
     37 C2N        27.7820   21.9610   64.2160 C.ar      1 NAP401      0.0000 
     38 C3N        28.4980   23.0600   64.7100 C.ar      1 NAP401      0.0000 
     39 C7N        28.3100   24.4470   64.0440 C.2       1 NAP401      0.0000 
     40 O7N        28.3430   25.4280   64.6750 O.2       1 NAP401      0.0000 
     41 N7N        28.0740   24.5200   62.6290 N.am      1 NAP401      0.0000 
     42 C4N        29.3430   22.9110   65.7720 C.ar      1 NAP401      0.0000 
     43 C5N        29.4930   21.7030   66.3440 C.ar      1 NAP401      0.0000 
     44 C6N        28.7810   20.6070   65.8500 C.ar      1 NAP401      0.0000 
     45 P2B        28.5000   17.9800   50.6490 P.3       1 NAP401      0.0000 
     46 O1X        27.3480   18.8320   50.1250 O.co2     1 NAP401      0.0000 
     47 O2X        29.7950   18.5880   50.2190 O.co2     1 NAP401      0.0000 
     48 O3X        28.3980   16.5290   50.2350 O.co2     1 NAP401      0.0000 
@<TRIPOS>BOND
     1    1    2 ar   
     2    1    3 ar   
     3    1    4 1    
     4    1   23 1    
     5    4    5 1    
     6    5    6 1    
     7    6    7 1    
     8    6    8 1    
     9    7   12 1    
    10    8    9 1    
    11    8   10 1    
    12   10   11 1    
    13   10   12 1    
    14   11   45 1    
    15   12   13 1    
    16   13   14 1    
    17   13   22 1    
    18   14   15 2    
    19   15   16 1    
    20   16   17 ar   
    21   16   22 ar   
    22   17   18 1    
    23   17   19 ar   
    24   19   20 ar   
    25   20   21 ar   
    26   21   22 ar   
    27   23   24 1    
    28   24   25 ar   
    29   24   26 ar   
    30   24   27 1    
    31   27   28 1    
    32   28   29 1    
    33   29   30 1    
    34   29   31 1    
    35   30   35 1    
    36   31   32 1    
    37   31   33 1    
    38   33   34 1    
    39   33   35 1    
    40   35   36 1    
    41   36   37 ar   
    42   36   44 ar   
    43   37   38 ar   
    44   38   39 1    
    45   38   42 ar   
    46   39   40 2    
    47   39   41 am   
    48   42   43 ar   
    49   43   44 ar   
    50   45   46 ar   
    51   45   47 ar   
    52   45   48 ar   
@<TRIPOS>SUBSTRUCTURE
     1 NAP401      1 GROUP   
@<TRIPOS>SET
ATOM$ORANGE STATIC     ATOMS   COLORGROUP SYSTEM 
42 5 5 6 6 8 8 10 10 12 12 14 14 16 16 17 17 20 \
20 22 22 28 28 29 29 31 31 33 33 35 35 37 37 38 38 39 \
39 42 42 43 43 44 44 

