#    Name: 6jnk_4_NAP
#    Modification time : Fri May 22 19:34:32 2020

@<TRIPOS>MOLECULE
6jnk_4_NAP
   48    52     1     0     1
SMALL
NO_CHARGES


@<TRIPOS>ATOM
      1 PA        -11.2190   10.1510   81.4950 P.3       1 NAP401      0.0000 
      2 O1A       -12.4590    9.4790   81.8670 O.co2     1 NAP401      0.0000 
      3 O2A       -11.4470   11.6180   81.0650 O.co2     1 NAP401      0.0000 
      4 O5B       -10.1900   10.1950   82.7590 O.3       1 NAP401      0.0000 
      5 C5B       -10.5490    9.4370   83.9050 C.3       1 NAP401      0.0000 
      6 C4B       -10.7570   10.4050   85.0970 C.3       1 NAP401      0.0000 
      7 O4B        -9.4020   11.0410   85.4820 O.3       1 NAP401      0.0000 
      8 C3B       -11.5170   11.3990   84.8210 C.3       1 NAP401      0.0000 
      9 O3B       -12.8970   11.0470   85.1140 O.3       1 NAP401      0.0000 
     10 C2B       -11.0910   12.4930   85.9650 C.3       1 NAP401      0.0000 
     11 O2B       -11.9300   12.1110   87.1080 O.3       1 NAP401      0.0000 
     12 C1B        -9.8120   12.3600   86.1870 C.3       1 NAP401      0.0000 
     13 N9A        -9.1240   13.5440   85.5710 N.pl3     1 NAP401      0.0000 
     14 C8A        -9.1590   14.2500   84.4380 C.2       1 NAP401      0.0000 
     15 N7A        -8.2700   15.2480   84.5910 N.2       1 NAP401      0.0000 
     16 C5A        -7.7210   15.1480   85.8270 C.ar      1 NAP401      0.0000 
     17 C6A        -6.7750   15.9370   86.4600 C.ar      1 NAP401      0.0000 
     18 N6A        -5.9590   17.1220   86.2060 N.pl3     1 NAP401      0.0000 
     19 N1A        -6.3920   15.6330   87.7110 N.ar      1 NAP401      0.0000 
     20 C2A        -6.9290   14.5480   88.3520 C.ar      1 NAP401      0.0000 
     21 N3A        -7.8580   13.7730   87.7260 N.ar      1 NAP401      0.0000 
     22 C4A        -8.2480   14.0910   86.4510 C.ar      1 NAP401      0.0000 
     23 O3        -10.4960    9.3560   80.2420 O.3       1 NAP401      0.0000 
     24 PN        -10.3280    7.7670   80.1110 P.3       1 NAP401      0.0000 
     25 O1N       -10.9960    7.3250   78.8880 O.co2     1 NAP401      0.0000 
     26 O2N       -10.7900    7.0310   81.3600 O.co2     1 NAP401      0.0000 
     27 O5D        -8.6880    7.5040   79.9460 O.3       1 NAP401      0.0000 
     28 C5D        -7.8120    7.5800   81.1190 C.3       1 NAP401      0.0000 
     29 C4D        -6.5230    6.7910   80.8060 C.3       1 NAP401      0.0000 
     30 O4D        -6.8570    5.2730   80.4110 O.3       1 NAP401      0.0000 
     31 C3D        -5.8900    7.3110   79.7640 C.3       1 NAP401      0.0000 
     32 O3D        -4.4030    7.2820   80.0250 O.3       1 NAP401      0.0000 
     33 C2D        -6.2660    6.4130   78.5570 C.3       1 NAP401      0.0000 
     34 O2D        -5.3560    6.4600   77.5550 O.3       1 NAP401      0.0000 
     35 C1D        -6.3700    5.0230   79.2030 C.3       1 NAP401      0.0000 
     36 N1N        -7.2970    4.1240   78.4620 N.pl3     1 NAP401      0.0000 
     37 C2N        -8.4510    4.6060   77.9220 C.ar      1 NAP401      0.0000 
     38 C3N        -9.3190    3.7440   77.2260 C.ar      1 NAP401      0.0000 
     39 C7N       -10.6360    4.2810   76.5930 C.2       1 NAP401      0.0000 
     40 O7N       -11.3340    3.5640   76.0050 O.2       1 NAP401      0.0000 
     41 N7N       -10.9900    5.6660   76.7190 N.am      1 NAP401      0.0000 
     42 C4N        -9.0190    2.4170   77.1220 C.ar      1 NAP401      0.0000 
     43 C5N        -7.8860    1.9330   77.6830 C.ar      1 NAP401      0.0000 
     44 C6N        -7.0020    2.7860   78.3590 C.ar      1 NAP401      0.0000 
     45 P2B       -12.3260   13.2710   88.2710 P.3       1 NAP401      0.0000 
     46 O1X       -11.0980   13.6250   89.0920 O.co2     1 NAP401      0.0000 
     47 O2X       -12.8480   14.4990   87.6140 O.co2     1 NAP401      0.0000 
     48 O3X       -13.3780   12.6530   89.1710 O.co2     1 NAP401      0.0000 
@<TRIPOS>BOND
     1    1    2 ar   
     2    1    3 ar   
     3    1    4 1    
     4    1   23 1    
     5    4    5 1    
     6    5    6 1    
     7    6    7 1    
     8    6    8 1    
     9    7   12 1    
    10    8    9 1    
    11    8   10 1    
    12   10   11 1    
    13   10   12 1    
    14   11   45 1    
    15   12   13 1    
    16   13   14 1    
    17   13   22 1    
    18   14   15 2    
    19   15   16 1    
    20   16   17 ar   
    21   16   22 ar   
    22   17   18 1    
    23   17   19 ar   
    24   19   20 ar   
    25   20   21 ar   
    26   21   22 ar   
    27   23   24 1    
    28   24   25 ar   
    29   24   26 ar   
    30   24   27 1    
    31   27   28 1    
    32   28   29 1    
    33   29   30 1    
    34   29   31 1    
    35   30   35 1    
    36   31   32 1    
    37   31   33 1    
    38   33   34 1    
    39   33   35 1    
    40   35   36 1    
    41   36   37 ar   
    42   36   44 ar   
    43   37   38 ar   
    44   38   39 1    
    45   38   42 ar   
    46   39   40 2    
    47   39   41 am   
    48   42   43 ar   
    49   43   44 ar   
    50   45   46 ar   
    51   45   47 ar   
    52   45   48 ar   
@<TRIPOS>SUBSTRUCTURE
     1 NAP401      1 GROUP   
@<TRIPOS>SET
ATOM$ORANGE STATIC     ATOMS   COLORGROUP SYSTEM 
42 5 5 6 6 8 8 10 10 12 12 14 14 16 16 17 17 20 \
20 22 22 28 28 29 29 31 31 33 33 35 35 37 37 38 38 39 \
39 42 42 43 43 44 44 

