#    Name: 6bxl_1_SAM
#    Modification time : Fri May 22 19:36:00 2020

@<TRIPOS>MOLECULE
6bxl_1_SAM
   27    29     1     0     0
SMALL
NO_CHARGES


@<TRIPOS>ATOM
      1 N          25.0100   29.4790   27.0830 N.4       1 SAM401      0.0000 
      2 CA         26.0730   28.4880   26.9630 C.3       1 SAM401      0.0000 
      3 C          27.3740   29.0150   27.5600 C.2       1 SAM401      0.0000 
      4 O          27.3690   30.0170   28.2710 O.co2     1 SAM401      0.0000 
      5 OXT        28.4540   28.4600   27.3520 O.co2     1 SAM401      0.0000 
      6 CB         26.2730   28.0970   25.4980 C.3       1 SAM401      0.0000 
      7 CG         26.8270   29.2010   24.6050 C.3       1 SAM401      0.0000 
      8 SD         26.5870   28.8790   22.8360 S.3       1 SAM401      0.0000 
      9 CE         26.8400   27.0900   22.7360 C.3       1 SAM401      0.0000 
     10 C5'        28.1590   29.5090   22.1940 C.3       1 SAM401      0.0000 
     11 C4'        28.1150   30.0200   20.7550 C.3       1 SAM401      0.0000 
     12 O4'        26.8120   30.3940   20.3370 O.3       1 SAM401      0.0000 
     13 C3'        28.9840   31.2620   20.6020 C.3       1 SAM401      0.0000 
     14 O3'        30.2820   30.9200   20.1620 O.3       1 SAM401      0.0000 
     15 C2'        28.2410   32.1330   19.6040 C.3       1 SAM401      0.0000 
     16 O2'        28.9470   32.2220   18.3850 O.3       1 SAM401      0.0000 
     17 C1'        26.9060   31.4340   19.3820 C.3       1 SAM401      0.0000 
     18 N9         25.8130   32.4120   19.5360 N.pl3     1 SAM401      0.0000 
     19 C8         25.2730   32.8600   20.7170 C.2       1 SAM401      0.0000 
     20 N7         24.3090   33.7680   20.4360 N.2       1 SAM401      0.0000 
     21 C5         24.2300   33.9180   19.0930 C.ar      1 SAM401      0.0000 
     22 C6         23.4270   34.7110   18.2750 C.ar      1 SAM401      0.0000 
     23 N6         22.5200   35.5270   18.8030 N.pl3     1 SAM401      0.0000 
     24 N1         23.5760   34.6420   16.9030 N.ar      1 SAM401      0.0000 
     25 C2         24.5160   33.7980   16.3490 C.ar      1 SAM401      0.0000 
     26 N3         25.3120   33.0180   17.1630 N.ar      1 SAM401      0.0000 
     27 C4         25.1710   33.0690   18.5140 C.ar      1 SAM401      0.0000 
@<TRIPOS>BOND
     1    1    2 1    
     2    2    3 1    
     3    2    6 1    
     4    3    4 ar   
     5    3    5 ar   
     6    6    7 1    
     7    7    8 1    
     8    8    9 1    
     9    8   10 1    
    10   10   11 1    
    11   11   12 1    
    12   11   13 1    
    13   12   17 1    
    14   13   14 1    
    15   13   15 1    
    16   15   16 1    
    17   15   17 1    
    18   17   18 1    
    19   18   19 1    
    20   18   27 1    
    21   19   20 2    
    22   20   21 1    
    23   21   22 ar   
    24   21   27 ar   
    25   22   23 1    
    26   22   24 ar   
    27   24   25 ar   
    28   25   26 ar   
    29   26   27 ar   
@<TRIPOS>SUBSTRUCTURE
     1 SAM401      1 GROUP   
@<TRIPOS>SET

