#    Name: 6bxl_2_SAM
#    Modification time : Fri May 22 19:36:03 2020

@<TRIPOS>MOLECULE
6bxl_2_SAM
   27    29     1     0     0
SMALL
NO_CHARGES


@<TRIPOS>ATOM
      1 N           9.3060   37.2500   -3.4990 N.4       1 SAM401      0.0000 
      2 CA          9.9320   37.4250   -4.8040 C.3       1 SAM401      0.0000 
      3 C           9.3340   36.4350   -5.8040 C.2       1 SAM401      0.0000 
      4 O           8.1320   36.1760   -5.7730 O.co2     1 SAM401      0.0000 
      5 OXT        10.0070   35.8760   -6.6700 O.co2     1 SAM401      0.0000 
      6 CB         11.4510   37.2740   -4.6940 C.3       1 SAM401      0.0000 
      7 CG         12.0120   35.8600   -4.5220 C.3       1 SAM401      0.0000 
      8 SD         12.6070   35.4380   -2.8610 S.3       1 SAM401      0.0000 
      9 CE         14.3800   35.7940   -3.0360 C.3       1 SAM401      0.0000 
     10 C5'        12.5500   33.6260   -2.9190 C.3       1 SAM401      0.0000 
     11 C4'        13.8150   32.9790   -2.3600 C.3       1 SAM401      0.0000 
     12 O4'        14.0250   33.3690   -1.0060 O.3       1 SAM401      0.0000 
     13 C3'        13.7290   31.4590   -2.3900 C.3       1 SAM401      0.0000 
     14 O3'        14.4220   30.9230   -3.4920 O.3       1 SAM401      0.0000 
     15 C2'        14.3940   31.0260   -1.1070 C.3       1 SAM401      0.0000 
     16 O2'        15.7260   30.6860   -1.4090 O.3       1 SAM401      0.0000 
     17 C1'        14.3790   32.2580   -0.2160 C.3       1 SAM401      0.0000 
     18 N9         13.3640   32.0690    0.8340 N.pl3     1 SAM401      0.0000 
     19 C8         12.0510   32.4800    0.8220 C.2       1 SAM401      0.0000 
     20 N7         11.4610   32.0940    1.9860 N.2       1 SAM401      0.0000 
     21 C5         12.3800   31.4290    2.7330 C.ar      1 SAM401      0.0000 
     22 C6         12.3400   30.8110    3.9910 C.ar      1 SAM401      0.0000 
     23 N6         11.2350   30.7830    4.7360 N.pl3     1 SAM401      0.0000 
     24 N1         13.4780   30.2070    4.4720 N.ar      1 SAM401      0.0000 
     25 C2         14.6500   30.2000    3.7440 C.ar      1 SAM401      0.0000 
     26 N3         14.6830   30.8110    2.5080 N.ar      1 SAM401      0.0000 
     27 C4         13.5740   31.4130    2.0140 C.ar      1 SAM401      0.0000 
@<TRIPOS>BOND
     1    1    2 1    
     2    2    3 1    
     3    2    6 1    
     4    3    4 ar   
     5    3    5 ar   
     6    6    7 1    
     7    7    8 1    
     8    8    9 1    
     9    8   10 1    
    10   10   11 1    
    11   11   12 1    
    12   11   13 1    
    13   12   17 1    
    14   13   14 1    
    15   13   15 1    
    16   15   16 1    
    17   15   17 1    
    18   17   18 1    
    19   18   19 1    
    20   18   27 1    
    21   19   20 2    
    22   20   21 1    
    23   21   22 ar   
    24   21   27 ar   
    25   22   23 1    
    26   22   24 ar   
    27   24   25 ar   
    28   25   26 ar   
    29   26   27 ar   
@<TRIPOS>SUBSTRUCTURE
     1 SAM401      1 GROUP   
@<TRIPOS>SET

