#    Name: 6p8v_4_ATP
#    Modification time : Fri May 22 19:28:37 2020

@<TRIPOS>MOLECULE
6p8v_4_ATP
   31    33     1     0     1
SMALL
NO_CHARGES


@<TRIPOS>ATOM
      1 PG        -17.1580  -37.5370  -20.3960 P.3       1 ATP401      0.0000 
      2 O1G       -15.8310  -38.0440  -19.8870 O.co2     1 ATP401      0.0000 
      3 O2G       -17.0430  -36.6690  -21.6290 O.co2     1 ATP401      0.0000 
      4 O3G       -18.0650  -36.9810  -19.3280 O.co2     1 ATP401      0.0000 
      5 PB        -17.7630  -39.4800  -22.3570 P.3       1 ATP401      0.0000 
      6 O1B       -19.1530  -39.6520  -22.9140 O.co2     1 ATP401      0.0000 
      7 O2B       -16.7300  -38.6630  -23.0920 O.co2     1 ATP401      0.0000 
      8 O3B       -17.9250  -38.8740  -20.8740 O.3       1 ATP401      0.0000 
      9 PA        -16.4200  -41.8400  -23.1760 P.3       1 ATP401      0.0000 
     10 O1A       -15.7890  -43.0150  -22.4720 O.co2     1 ATP401      0.0000 
     11 O2A       -15.5790  -40.9260  -24.0340 O.co2     1 ATP401      0.0000 
     12 O3A       -17.2150  -40.9700  -22.0770 O.3       1 ATP401      0.0000 
     13 O5'       -17.6480  -42.3530  -24.0810 O.3       1 ATP401      0.0000 
     14 C5'       -17.9600  -41.6240  -25.2650 C.3       1 ATP401      0.0000 
     15 C4'       -18.3660  -42.5480  -26.4080 C.3       1 ATP401      0.0000 
     16 O4'       -17.2220  -43.2150  -26.9430 O.3       1 ATP401      0.0000 
     17 C3'       -19.3680  -43.6150  -25.9960 C.3       1 ATP401      0.0000 
     18 O3'       -20.6890  -43.2490  -26.4090 O.3       1 ATP401      0.0000 
     19 C2'       -18.9150  -44.8690  -26.7150 C.3       1 ATP401      0.0000 
     20 O2'       -19.8030  -45.1420  -27.8020 O.3       1 ATP401      0.0000 
     21 C1'       -17.5310  -44.5700  -27.2640 C.3       1 ATP401      0.0000 
     22 N9        -16.5290  -45.4310  -26.5960 N.pl3     1 ATP401      0.0000 
     23 C8        -15.6910  -45.0200  -25.6280 C.2       1 ATP401      0.0000 
     24 N7        -14.8860  -46.0290  -25.2160 N.2       1 ATP401      0.0000 
     25 C5        -15.2070  -47.1210  -25.9310 C.ar      1 ATP401      0.0000 
     26 C6        -14.7410  -48.5250  -25.9960 C.ar      1 ATP401      0.0000 
     27 N6        -13.7480  -48.9710  -25.1910 N.pl3     1 ATP401      0.0000 
     28 N1        -15.3410  -49.3450  -26.8860 N.ar      1 ATP401      0.0000 
     29 C2        -16.3300  -48.9100  -27.6920 C.ar      1 ATP401      0.0000 
     30 N3        -16.8020  -47.6510  -27.6870 N.ar      1 ATP401      0.0000 
     31 C4        -16.2900  -46.7220  -26.8440 C.ar      1 ATP401      0.0000 
@<TRIPOS>BOND
     1    1    2 ar   
     2    1    3 ar   
     3    1    4 ar   
     4    1    8 1    
     5    5    6 ar   
     6    5    7 ar   
     7    5    8 1    
     8    5   12 1    
     9    9   10 ar   
    10    9   11 ar   
    11    9   12 1    
    12    9   13 1    
    13   13   14 1    
    14   14   15 1    
    15   15   16 1    
    16   15   17 1    
    17   16   21 1    
    18   17   18 1    
    19   17   19 1    
    20   19   20 1    
    21   19   21 1    
    22   21   22 1    
    23   22   23 1    
    24   22   31 1    
    25   23   24 2    
    26   24   25 1    
    27   25   26 ar   
    28   25   31 ar   
    29   26   27 1    
    30   26   28 ar   
    31   28   29 ar   
    32   29   30 ar   
    33   30   31 ar   
@<TRIPOS>SUBSTRUCTURE
     1 ATP401      1 GROUP   
@<TRIPOS>SET
ATOM$ORANGE STATIC     ATOMS   COLORGROUP SYSTEM 
20 14 14 15 15 17 17 19 19 21 21 23 23 25 25 26 26 29 \
29 31 31 

