#    Name: 6p8v_1_ATP
#    Modification time : Fri May 22 19:28:09 2020

@<TRIPOS>MOLECULE
6p8v_1_ATP
   31    33     1     0     1
SMALL
NO_CHARGES


@<TRIPOS>ATOM
      1 PG          9.7160   -6.5100   47.0910 P.3       1 ATP402      0.0000 
      2 O1G        10.0630   -7.9330   47.4490 O.co2     1 ATP402      0.0000 
      3 O2G        10.8410   -5.7750   46.3980 O.co2     1 ATP402      0.0000 
      4 O3G         8.3630   -6.3570   46.4410 O.co2     1 ATP402      0.0000 
      5 PB         10.7000   -4.7970   49.0610 P.3       1 ATP402      0.0000 
      6 O1B        12.0140   -5.3530   48.5780 O.co2     1 ATP402      0.0000 
      7 O2B        10.2810   -3.3930   48.7020 O.co2     1 ATP402      0.0000 
      8 O3B         9.5420   -5.7790   48.5230 O.3       1 ATP402      0.0000 
      9 PA         11.4220   -6.0600   51.4850 P.3       1 ATP402      0.0000 
     10 O1A        11.4750   -7.2960   50.6180 O.co2     1 ATP402      0.0000 
     11 O2A        10.7330   -6.1600   52.8190 O.co2     1 ATP402      0.0000 
     12 O3A        10.6660   -4.8920   50.6690 O.3       1 ATP402      0.0000 
     13 O5'        12.9450   -5.5780   51.7160 O.3       1 ATP402      0.0000 
     14 C5'        13.9750   -6.5680   51.6440 C.3       1 ATP402      0.0000 
     15 C4'        15.0710   -6.4070   52.7020 C.3       1 ATP402      0.0000 
     16 O4'        15.7200   -5.1340   52.6050 O.3       1 ATP402      0.0000 
     17 C3'        14.5640   -6.5390   54.1330 C.3       1 ATP402      0.0000 
     18 O3'        14.7790   -7.8610   54.6340 O.3       1 ATP402      0.0000 
     19 C2'        15.3830   -5.5420   54.9270 C.3       1 ATP402      0.0000 
     20 O2'        16.4050   -6.2260   55.6610 O.3       1 ATP402      0.0000 
     21 C1'        16.0150   -4.6150   53.9040 C.3       1 ATP402      0.0000 
     22 N9         15.3440   -3.3050   54.0240 N.pl3     1 ATP402      0.0000 
     23 C8         14.3880   -2.8720   53.1870 C.2       1 ATP402      0.0000 
     24 N7         13.9570   -1.6400   53.5450 N.2       1 ATP402      0.0000 
     25 C5         14.6410   -1.2670   54.6350 C.ar      1 ATP402      0.0000 
     26 C6         14.6630   -0.0780   55.5130 C.ar      1 ATP402      0.0000 
     27 N6         13.8460    0.9770   55.2800 N.pl3     1 ATP402      0.0000 
     28 N1         15.5300   -0.0870   56.5470 N.ar      1 ATP402      0.0000 
     29 C2         16.3440   -1.1350   56.7780 C.ar      1 ATP402      0.0000 
     30 N3         16.3750   -2.2460   56.0220 N.ar      1 ATP402      0.0000 
     31 C4         15.5590   -2.3700   54.9520 C.ar      1 ATP402      0.0000 
@<TRIPOS>BOND
     1    1    2 ar   
     2    1    3 ar   
     3    1    4 ar   
     4    1    8 1    
     5    5    6 ar   
     6    5    7 ar   
     7    5    8 1    
     8    5   12 1    
     9    9   10 ar   
    10    9   11 ar   
    11    9   12 1    
    12    9   13 1    
    13   13   14 1    
    14   14   15 1    
    15   15   16 1    
    16   15   17 1    
    17   16   21 1    
    18   17   18 1    
    19   17   19 1    
    20   19   20 1    
    21   19   21 1    
    22   21   22 1    
    23   22   23 1    
    24   22   31 1    
    25   23   24 2    
    26   24   25 1    
    27   25   26 ar   
    28   25   31 ar   
    29   26   27 1    
    30   26   28 ar   
    31   28   29 ar   
    32   29   30 ar   
    33   30   31 ar   
@<TRIPOS>SUBSTRUCTURE
     1 ATP402      1 GROUP   
@<TRIPOS>SET
ATOM$ORANGE STATIC     ATOMS   COLORGROUP SYSTEM 
20 14 14 15 15 17 17 19 19 21 21 23 23 25 25 26 26 29 \
29 31 31 

