#    Name: 6p8v_2_ATP
#    Modification time : Fri May 22 19:28:20 2020

@<TRIPOS>MOLECULE
6p8v_2_ATP
   31    33     1     0     1
SMALL
NO_CHARGES


@<TRIPOS>ATOM
      1 PG         25.3230  -21.9110   28.6780 P.3       1 ATP401      0.0000 
      2 O1G        25.5710  -21.0160   27.4820 O.co2     1 ATP401      0.0000 
      3 O2G        24.9130  -21.1970   29.9410 O.co2     1 ATP401      0.0000 
      4 O3G        24.4660  -23.1240   28.4150 O.co2     1 ATP401      0.0000 
      5 PB         28.0520  -21.5910   29.2330 P.3       1 ATP401      0.0000 
      6 O1B        28.0470  -20.5530   28.1350 O.co2     1 ATP401      0.0000 
      7 O2B        28.0670  -21.1860   30.6800 O.co2     1 ATP401      0.0000 
      8 O3B        26.7770  -22.5400   28.9810 O.3       1 ATP401      0.0000 
      9 PA         29.2830  -24.0750   29.6510 P.3       1 ATP401      0.0000 
     10 O1A        28.1070  -24.8500   29.1060 O.co2     1 ATP401      0.0000 
     11 O2A        29.4780  -24.0240   31.1480 O.co2     1 ATP401      0.0000 
     12 O3A        29.2830  -22.5980   29.0060 O.3       1 ATP401      0.0000 
     13 O5'        30.6150  -24.6600   28.9750 O.3       1 ATP401      0.0000 
     14 C5'        30.5130  -25.6990   28.0100 C.3       1 ATP401      0.0000 
     15 C4'        31.9150  -26.1690   27.6580 C.3       1 ATP401      0.0000 
     16 O4'        32.8080  -25.0550   27.5670 O.3       1 ATP401      0.0000 
     17 C3'        32.4780  -27.0690   28.7410 C.3       1 ATP401      0.0000 
     18 O3'        32.2450  -28.4450   28.4350 O.3       1 ATP401      0.0000 
     19 C2'        33.9570  -26.7600   28.7550 C.3       1 ATP401      0.0000 
     20 O2'        34.6590  -27.7050   27.9440 O.3       1 ATP401      0.0000 
     21 C1'        34.0820  -25.3840   28.1290 C.3       1 ATP401      0.0000 
     22 N9         34.4370  -24.4280   29.2080 N.pl3     1 ATP401      0.0000 
     23 C8         33.6660  -23.4310   29.6810 C.2       1 ATP401      0.0000 
     24 N7         34.3040  -22.7500   30.6680 N.2       1 ATP401      0.0000 
     25 C5         35.5110  -23.3140   30.8450 C.ar      1 ATP401      0.0000 
     26 C6         36.6840  -23.0860   31.7240 C.ar      1 ATP401      0.0000 
     27 N6         36.6980  -22.0910   32.6430 N.pl3     1 ATP401      0.0000 
     28 N1         37.7460  -23.9090   31.5780 N.ar      1 ATP401      0.0000 
     29 C2         37.7520  -24.9050   30.6700 C.ar      1 ATP401      0.0000 
     30 N3         36.7240  -25.1670   29.8410 N.ar      1 ATP401      0.0000 
     31 C4         35.5940  -24.4190   29.8770 C.ar      1 ATP401      0.0000 
@<TRIPOS>BOND
     1    1    2 ar   
     2    1    3 ar   
     3    1    4 ar   
     4    1    8 1    
     5    5    6 ar   
     6    5    7 ar   
     7    5    8 1    
     8    5   12 1    
     9    9   10 ar   
    10    9   11 ar   
    11    9   12 1    
    12    9   13 1    
    13   13   14 1    
    14   14   15 1    
    15   15   16 1    
    16   15   17 1    
    17   16   21 1    
    18   17   18 1    
    19   17   19 1    
    20   19   20 1    
    21   19   21 1    
    22   21   22 1    
    23   22   23 1    
    24   22   31 1    
    25   23   24 2    
    26   24   25 1    
    27   25   26 ar   
    28   25   31 ar   
    29   26   27 1    
    30   26   28 ar   
    31   28   29 ar   
    32   29   30 ar   
    33   30   31 ar   
@<TRIPOS>SUBSTRUCTURE
     1 ATP401      1 GROUP   
@<TRIPOS>SET
ATOM$ORANGE STATIC     ATOMS   COLORGROUP SYSTEM 
20 14 14 15 15 17 17 19 19 21 21 23 23 25 25 26 26 29 \
29 31 31 

