#    Name: 6p8v_3_ATP
#    Modification time : Fri May 22 19:28:31 2020

@<TRIPOS>MOLECULE
6p8v_3_ATP
   31    33     1     0     1
SMALL
NO_CHARGES


@<TRIPOS>ATOM
      1 PG         18.6540  -22.9070    0.4710 P.3       1 ATP401      0.0000 
      2 O1G        17.6940  -23.7010   -0.3800 O.co2     1 ATP401      0.0000 
      3 O2G        18.7310  -21.4380    0.0830 O.co2     1 ATP401      0.0000 
      4 O3G        18.5090  -23.1560    1.9500 O.co2     1 ATP401      0.0000 
      5 PB         20.9900  -22.7250   -1.0290 P.3       1 ATP401      0.0000 
      6 O1B        20.0860  -21.7330   -1.7150 O.co2     1 ATP401      0.0000 
      7 O2B        22.2470  -22.2290   -0.3540 O.co2     1 ATP401      0.0000 
      8 O3B        20.1040  -23.4890    0.0790 O.3       1 ATP401      0.0000 
      9 PA         20.4930  -25.0130   -2.6540 P.3       1 ATP401      0.0000 
     10 O1A        19.0570  -24.5680   -2.5210 O.co2     1 ATP401      0.0000 
     11 O2A        20.8860  -26.3270   -2.0260 O.co2     1 ATP401      0.0000 
     12 O3A        21.4620  -23.8530   -2.0880 O.3       1 ATP401      0.0000 
     13 O5'        20.8380  -25.0690   -4.2290 O.3       1 ATP401      0.0000 
     14 C5'        19.7730  -25.0380   -5.1790 C.3       1 ATP401      0.0000 
     15 C4'        20.0930  -25.8900   -6.4020 C.3       1 ATP401      0.0000 
     16 O4'        21.2550  -25.4220   -7.0900 O.3       1 ATP401      0.0000 
     17 C3'        20.3660  -27.3320   -6.0150 C.3       1 ATP401      0.0000 
     18 O3'        19.1810  -28.1180   -6.1560 O.3       1 ATP401      0.0000 
     19 C2'        21.4450  -27.7930   -6.9680 C.3       1 ATP401      0.0000 
     20 O2'        20.8550  -28.5000   -8.0600 O.3       1 ATP401      0.0000 
     21 C1'        22.0760  -26.5200   -7.4970 C.3       1 ATP401      0.0000 
     22 N9         23.4000  -26.3700   -6.8580 N.pl3     1 ATP401      0.0000 
     23 C8         23.6650  -25.5410   -5.8340 C.2       1 ATP401      0.0000 
     24 N7         24.9650  -25.6250   -5.4610 N.2       1 ATP401      0.0000 
     25 C5         25.5570  -26.5290   -6.2610 C.ar      1 ATP401      0.0000 
     26 C6         26.9190  -27.0920   -6.4050 C.ar      1 ATP401      0.0000 
     27 N6         27.9330  -26.6950   -5.5990 N.pl3     1 ATP401      0.0000 
     28 N1         27.1130  -28.0160   -7.3710 N.ar      1 ATP401      0.0000 
     29 C2         26.1140  -28.4210   -8.1780 C.ar      1 ATP401      0.0000 
     30 N3         24.8560  -27.9530   -8.1040 N.ar      1 ATP401      0.0000 
     31 C4         24.5200  -27.0200   -7.1830 C.ar      1 ATP401      0.0000 
@<TRIPOS>BOND
     1    1    2 ar   
     2    1    3 ar   
     3    1    4 ar   
     4    1    8 1    
     5    5    6 ar   
     6    5    7 ar   
     7    5    8 1    
     8    5   12 1    
     9    9   10 ar   
    10    9   11 ar   
    11    9   12 1    
    12    9   13 1    
    13   13   14 1    
    14   14   15 1    
    15   15   16 1    
    16   15   17 1    
    17   16   21 1    
    18   17   18 1    
    19   17   19 1    
    20   19   20 1    
    21   19   21 1    
    22   21   22 1    
    23   22   23 1    
    24   22   31 1    
    25   23   24 2    
    26   24   25 1    
    27   25   26 ar   
    28   25   31 ar   
    29   26   27 1    
    30   26   28 ar   
    31   28   29 ar   
    32   29   30 ar   
    33   30   31 ar   
@<TRIPOS>SUBSTRUCTURE
     1 ATP401      1 GROUP   
@<TRIPOS>SET
ATOM$ORANGE STATIC     ATOMS   COLORGROUP SYSTEM 
20 14 14 15 15 17 17 19 19 21 21 23 23 25 25 26 26 29 \
29 31 31 

