#    Name: 6bag_2_NAD
#    Modification time : Fri May 22 19:24:16 2020

@<TRIPOS>MOLECULE
6bag_2_NAD
   44    48     1     0     1
SMALL
NO_CHARGES


@<TRIPOS>ATOM
      1 PA         44.1390   -8.2080   19.8330 P.3       1 NAD402      0.0000 
      2 O1A        45.5620   -8.6960   19.6150 O.co2     1 NAD402      0.0000 
      3 O2A        44.0100   -6.7530   19.4770 O.co2     1 NAD402      0.0000 
      4 O5B        43.7360   -8.4410   21.3340 O.3       1 NAD402      0.0000 
      5 C5B        44.1400   -9.5390   22.0760 C.3       1 NAD402      0.0000 
      6 C4B        44.3820   -9.2960   23.4820 C.3       1 NAD402      0.0000 
      7 O4B        44.7270  -10.4800   24.1320 O.3       1 NAD402      0.0000 
      8 C3B        45.5150   -8.3490   23.6730 C.3       1 NAD402      0.0000 
      9 O3B        45.0660   -7.2580   24.4000 O.3       1 NAD402      0.0000 
     10 C2B        46.4900   -9.0940   24.3630 C.3       1 NAD402      0.0000 
     11 O2B        47.2930   -8.3680   25.2380 O.3       1 NAD402      0.0000 
     12 C1B        45.6730  -10.1190   25.0760 C.3       1 NAD402      0.0000 
     13 N9A        46.4060  -11.2450   25.6190 N.pl3     1 NAD402      0.0000 
     14 C8A        47.4540  -11.8810   25.0610 C.2       1 NAD402      0.0000 
     15 N7A        47.9200  -12.8230   25.9090 N.2       1 NAD402      0.0000 
     16 C5A        47.1490  -12.8050   27.0110 C.ar      1 NAD402      0.0000 
     17 C6A        47.1150  -13.5260   28.2170 C.ar      1 NAD402      0.0000 
     18 N6A        48.0730  -14.5930   28.4640 N.pl3     1 NAD402      0.0000 
     19 N1A        46.1800  -13.2340   29.1550 N.ar      1 NAD402      0.0000 
     20 C2A        45.2780  -12.2400   28.9450 C.ar      1 NAD402      0.0000 
     21 N3A        45.2820  -11.5290   27.8070 N.ar      1 NAD402      0.0000 
     22 C4A        46.1900  -11.7870   26.8320 C.ar      1 NAD402      0.0000 
     23 O3         43.2480   -9.1780   18.9010 O.3       1 NAD402      0.0000 
     24 PN         41.6960   -8.9640   18.5600 P.3       1 NAD402      0.0000 
     25 O1N        40.9740   -8.3180   19.7710 O.co2     1 NAD402      0.0000 
     26 O2N        41.4600   -8.2020   17.2660 O.co2     1 NAD402      0.0000 
     27 O5D        41.1150  -10.4150   18.3630 O.3       1 NAD402      0.0000 
     28 C5D        41.2660  -11.4330   19.2870 C.3       1 NAD402      0.0000 
     29 C4D        40.9340  -12.7540   18.8460 C.3       1 NAD402      0.0000 
     30 O4D        39.5320  -12.8250   18.3950 O.3       1 NAD402      0.0000 
     31 C3D        41.7760  -13.2020   17.7030 C.3       1 NAD402      0.0000 
     32 O3D        42.2350  -14.4790   17.9700 O.3       1 NAD402      0.0000 
     33 C2D        40.8690  -13.1470   16.5290 C.3       1 NAD402      0.0000 
     34 O2D        41.2300  -13.9550   15.5040 O.3       1 NAD402      0.0000 
     35 C1D        39.5360  -13.4640   17.1450 C.3       1 NAD402      0.0000 
     36 N1N        38.3560  -13.1980   16.3160 N.pl3     1 NAD402      0.0000 
     37 C2N        37.4110  -14.1850   16.2950 C.ar      1 NAD402      0.0000 
     38 C3N        36.2090  -14.0330   15.5710 C.ar      1 NAD402      0.0000 
     39 C7N        35.1970  -15.1580   15.5540 C.2       1 NAD402      0.0000 
     40 O7N        34.1690  -15.0680   14.8480 O.2       1 NAD402      0.0000 
     41 N7N        35.4090  -16.3310   16.3420 N.am      1 NAD402      0.0000 
     42 C4N        35.9790  -12.8160   14.8830 C.ar      1 NAD402      0.0000 
     43 C5N        36.9530  -11.7910   14.9250 C.ar      1 NAD402      0.0000 
     44 C6N        38.1300  -11.9920   15.6770 C.ar      1 NAD402      0.0000 
@<TRIPOS>BOND
     1    1    2 ar   
     2    1    3 ar   
     3    1    4 1    
     4    1   23 1    
     5    4    5 1    
     6    5    6 1    
     7    6    7 1    
     8    6    8 1    
     9    7   12 1    
    10    8    9 1    
    11    8   10 1    
    12   10   11 1    
    13   10   12 1    
    14   12   13 1    
    15   13   14 1    
    16   13   22 1    
    17   14   15 2    
    18   15   16 1    
    19   16   17 ar   
    20   16   22 ar   
    21   17   18 1    
    22   17   19 ar   
    23   19   20 ar   
    24   20   21 ar   
    25   21   22 ar   
    26   23   24 1    
    27   24   25 ar   
    28   24   26 ar   
    29   24   27 1    
    30   27   28 1    
    31   28   29 1    
    32   29   30 1    
    33   29   31 1    
    34   30   35 1    
    35   31   32 1    
    36   31   33 1    
    37   33   34 1    
    38   33   35 1    
    39   35   36 1    
    40   36   37 ar   
    41   36   44 ar   
    42   37   38 ar   
    43   38   39 1    
    44   38   42 ar   
    45   39   40 2    
    46   39   41 am   
    47   42   43 ar   
    48   43   44 ar   
@<TRIPOS>SUBSTRUCTURE
     1 NAD402      1 GROUP   
@<TRIPOS>SET
ATOM$ORANGE STATIC     ATOMS   COLORGROUP SYSTEM 
42 5 5 6 6 8 8 10 10 12 12 14 14 16 16 17 17 20 \
20 22 22 28 28 29 29 31 31 33 33 35 35 37 37 38 38 39 \
39 42 42 43 43 44 44 

