#    Name: 5u84_7_I3C
#    Modification time : Fri May 22 19:12:59 2020

@<TRIPOS>MOLECULE
5u84_7_I3C
   18    18     1     0     0
SMALL
NO_CHARGES


@<TRIPOS>ATOM
      1 I3        -14.8590  -18.3940   22.2740 I         1 I3C412      0.0000 
      2 I2        -16.0050  -16.3170   16.6470 I         1 I3C412      0.0000 
      3 I1        -19.1190  -20.9620   18.9970 I         1 I3C412      0.0000 
      4 O8        -16.7870  -21.5400   21.5150 O.co2     1 I3C412      0.0000 
      5 O9        -17.6750  -19.8640   22.5600 O.co2     1 I3C412      0.0000 
      6 C10       -18.1520  -18.6650   16.8080 C.2       1 I3C412      0.0000 
      7 N13       -14.6240  -16.5530   19.5310 N.pl3     1 I3C412      0.0000 
      8 C1        -16.8950  -19.4020   20.3290 C.ar      1 I3C412      0.0000 
      9 C6        -15.9150  -18.4430   20.4540 C.ar      1 I3C412      0.0000 
     10 C5        -15.6530  -17.5640   19.4150 C.ar      1 I3C412      0.0000 
     11 C4        -16.3820  -17.6450   18.2440 C.ar      1 I3C412      0.0000 
     12 C3        -17.3670  -18.6030   18.1140 C.ar      1 I3C412      0.0000 
     13 C2        -17.6290  -19.4820   19.1560 C.ar      1 I3C412      0.0000 
     14 C7        -17.1330  -20.3310   21.5250 C.2       1 I3C412      0.0000 
     15 O11       -19.0850  -17.8450   16.6000 O.co2     1 I3C412      0.0000 
     16 O12       -17.8610  -19.5250   15.9370 O.co2     1 I3C412      0.0000 
     17 HN13      -13.8240  -16.7780   19.7540 H         1 I3C412      0.0000 
     18 HN1A      -14.8120  -15.7280   19.3770 H         1 I3C412      0.0000 
@<TRIPOS>BOND
     1    1    9 1    
     2    2   11 1    
     3    3   13 1    
     4    4   14 ar   
     5    5   14 ar   
     6    6   12 1    
     7    6   15 ar   
     8    6   16 ar   
     9    7   10 1    
    10    8    9 ar   
    11    7   17 1    
    12    7   18 1    
    13    8   13 ar   
    14    8   14 1    
    15    9   10 ar   
    16   10   11 ar   
    17   11   12 ar   
    18   12   13 ar   
@<TRIPOS>SUBSTRUCTURE
     1 I3C412      1 GROUP   
@<TRIPOS>SET

