#    Name: 5u84_7_I3C_CAVITY_N1_4
#    Modification time : Fri May 22 19:13:00 2020

@<TRIPOS>MOLECULE
5u84_7_I3C_CAVITY_N1_4
   81     0     6     0     0
SMALL
NO_CHARGES


@<TRIPOS>ATOM
      1 OG        -14.5500  -18.1000   16.3600 O.3       1 SER1        0.0000 
      2 OG        -15.6000  -17.2500   15.6900 O.3       1 SER1        0.0000 
      3 OG        -13.7800  -16.8600   16.7000 O.3       1 SER1        0.0000 
      4 N         -18.1700  -17.5400   15.9800 N.am      2 ALA2        0.0000 
      5 N         -18.4700  -16.7900   14.0200 N.am      2 ALA2        0.0000 
      6 O         -17.5200  -17.6800   21.5600 O.2       2 ALA2        0.0000 
      7 N         -16.6500  -16.4100   15.0300 N.am      2 ALA2        0.0000 
      8 N         -17.6900  -15.5600   14.3700 N.am      2 ALA2        0.0000 
      9 O         -14.2100  -17.5000   19.9600 O.2       2 ALA2        0.0000 
     10 O         -16.7400  -16.4500   21.9000 O.2       2 ALA2        0.0000 
     11 O         -16.0000  -16.5500   20.6000 O.2       2 ALA2        0.0000 
     12 O         -15.2600  -16.6500   19.3000 O.2       2 ALA2        0.0000 
     13 O         -14.5200  -16.7600   18.0000 O.2       2 ALA2        0.0000 
     14 O         -17.0400  -15.7000   19.9400 O.2       2 ALA2        0.0000 
     15 O         -16.3000  -15.8100   18.6400 O.2       2 ALA2        0.0000 
     16 O         -15.5600  -15.9100   17.3400 O.2       2 ALA2        0.0000 
     17 O         -15.1300  -15.2800   14.0700 O.2       2 ALA2        0.0000 
     18 O         -13.0000  -15.6300   17.0400 O.2       2 ALA2        0.0000 
     19 O         -16.2600  -14.4700   20.2800 O.2       2 ALA2        0.0000 
     20 O         -15.5200  -14.5700   18.9800 O.2       2 ALA2        0.0000 
     21 O         -14.7800  -14.6800   17.6800 O.2       2 ALA2        0.0000 
     22 O         -14.0400  -14.7800   16.3800 O.2       2 ALA2        0.0000 
     23 O         -16.5700  -13.7300   18.3200 O.2       2 ALA2        0.0000 
     24 O         -15.0500  -12.6000   17.3600 O.2       2 ALA2        0.0000 
     25 NZ        -17.2500  -19.7600   21.8800 N.4       3 LYS4        0.0000 
     26 NZ        -16.5100  -19.8700   20.5800 N.4       3 LYS4        0.0000 
     27 NZ        -17.5500  -19.0200   19.9100 N.4       3 LYS4        0.0000 
     28 NZ        -17.8600  -18.2800   17.9500 N.4       3 LYS4        0.0000 
     29 NZ        -17.1200  -18.3800   16.6500 N.4       3 LYS4        0.0000 
     30 NZ        -15.7300  -18.6300   20.9200 N.4       3 LYS4        0.0000 
     31 NZ        -16.7800  -17.7900   20.2600 N.4       3 LYS4        0.0000 
     32 NZ        -16.0400  -17.8900   18.9600 N.4       3 LYS4        0.0000 
     33 NZ        -15.2900  -17.9900   17.6600 N.4       3 LYS4        0.0000 
     34 NZ        -16.3400  -17.1500   16.9900 N.4       3 LYS4        0.0000 
     35 NZ        -13.4700  -17.6100   18.6600 N.4       3 LYS4        0.0000 
     36 CZ        -14.8600  -17.3600   14.3900 C.ar      4 PHE5        0.0000 
     37 CZ        -18.4300  -15.4600   15.6700 C.ar      4 PHE5        0.0000 
     38 CZ        -20.2200  -14.5100   16.3000 C.ar      4 PHE5        0.0000 
     39 CZ        -17.6500  -14.2200   16.0100 C.ar      4 PHE5        0.0000 
     40 CZ        -16.1300  -13.0900   15.0500 C.ar      4 PHE5        0.0000 
     41 CA        -18.3000  -18.9200   21.2100 C.3       5 GLY6        0.0000 
     42 CA        -18.6000  -18.1700   19.2500 C.3       5 GLY6        0.0000 
     43 CA        -18.9100  -17.4300   17.2800 C.3       5 GLY6        0.0000 
     44 CA        -19.9500  -16.5900   16.6200 C.3       5 GLY6        0.0000 
     45 CA        -19.2100  -16.6900   15.3200 C.3       5 GLY6        0.0000 
     46 CA        -20.2600  -15.8400   14.6600 C.3       5 GLY6        0.0000 
     47 CA        -19.5200  -15.9500   13.3600 C.3       5 GLY6        0.0000 
     48 CA        -15.4200  -19.3700   22.8800 C.3       5 GLY6        0.0000 
     49 CA        -14.6800  -19.4800   21.5800 C.3       5 GLY6        0.0000 
     50 CA        -16.4700  -18.5300   22.2200 C.3       5 GLY6        0.0000 
     51 CA        -18.5600  -16.8300   20.8900 C.3       5 GLY6        0.0000 
     52 CA        -17.8200  -16.9400   19.5900 C.3       5 GLY6        0.0000 
     53 CA        -18.1300  -16.2000   17.6300 C.3       5 GLY6        0.0000 
     54 CA        -19.1700  -15.3500   16.9700 C.3       5 GLY6        0.0000 
     55 CA        -16.9500  -15.6600   13.0600 C.3       5 GLY6        0.0000 
     56 CA        -15.6900  -17.2900   22.5600 C.3       5 GLY6        0.0000 
     57 CA        -14.9500  -17.4000   21.2600 C.3       5 GLY6        0.0000 
     58 CA        -17.4800  -16.3400   23.2000 C.3       5 GLY6        0.0000 
     59 CA        -17.7800  -15.6000   21.2400 C.3       5 GLY6        0.0000 
     60 CA        -14.8200  -16.0200   16.0400 C.3       5 GLY6        0.0000 
     61 CA        -14.0800  -16.1200   14.7400 C.3       5 GLY6        0.0000 
     62 CA        -18.0900  -14.8600   19.2700 C.3       5 GLY6        0.0000 
     63 CA        -16.1700  -14.4300   13.4100 C.3       5 GLY6        0.0000 
     64 CA        -16.7000  -15.1100   23.5500 C.3       5 GLY6        0.0000 
     65 CA        -15.9600  -15.2100   22.2500 C.3       5 GLY6        0.0000 
     66 CA        -17.0000  -14.3700   21.5800 C.3       5 GLY6        0.0000 
     67 CA        -13.3000  -14.8900   15.0800 C.3       5 GLY6        0.0000 
     68 CA        -14.3500  -14.0400   14.4200 C.3       5 GLY6        0.0000 
     69 CA        -13.2600  -13.5500   16.7300 C.3       5 GLY6        0.0000 
     70 DU        -17.0800  -17.0400   18.2900 H         6 CUB7        0.0000 
     71 DU        -17.3900  -16.3000   16.3300 H         6 CUB7        0.0000 
     72 DU        -17.3500  -14.9600   17.9700 H         6 CUB7        0.0000 
     73 DU        -16.6100  -15.0700   16.6700 H         6 CUB7        0.0000 
     74 DU        -15.8700  -15.1700   15.3700 H         6 CUB7        0.0000 
     75 DU        -18.3900  -14.1200   17.3100 H         6 CUB7        0.0000 
     76 DU        -16.9100  -14.3300   14.7100 H         6 CUB7        0.0000 
     77 DU        -17.3100  -13.6200   19.6200 H         6 CUB7        0.0000 
     78 DU        -15.8300  -13.8300   17.0200 H         6 CUB7        0.0000 
     79 DU        -15.0900  -13.9400   15.7200 H         6 CUB7        0.0000 
     80 DU        -17.6100  -12.8800   17.6600 H         6 CUB7        0.0000 
     81 DU        -16.8700  -12.9900   16.3500 H         6 CUB7        0.0000 
@<TRIPOS>BOND
@<TRIPOS>SUBSTRUCTURE
     1 SER1        1 GROUP   
     2 ALA2        4 GROUP   
     3 LYS4       25 GROUP   
     4 PHE5       36 GROUP   
     5 GLY6       41 GROUP   
     6 CUB7       70 GROUP   
@<TRIPOS>SET

