#    Name: 6ruz_4_FAD
#    Modification time : Fri May 22 19:27:02 2020

@<TRIPOS>MOLECULE
6ruz_4_FAD
   53    58     1     0     1
SMALL
NO_CHARGES


@<TRIPOS>ATOM
      1 PA         31.8560  -49.8020   12.6600 P.3       1 FAD501      0.0000 
      2 O1A        31.5870  -48.5680   13.6440 O.co2     1 FAD501      0.0000 
      3 O2A        33.0420  -50.7940   12.9150 O.co2     1 FAD501      0.0000 
      4 O5B        32.1030  -49.1650   11.1470 O.3       1 FAD501      0.0000 
      5 C5B        31.1290  -48.6710   10.1970 C.3       1 FAD501      0.0000 
      6 C4B        31.8790  -47.8800    9.1260 C.3       1 FAD501      0.0000 
      7 O4B        30.8480  -47.4540    8.2090 O.3       1 FAD501      0.0000 
      8 C3B        32.6760  -46.6730    9.7330 C.3       1 FAD501      0.0000 
      9 O3B        34.1410  -46.7470    9.5890 O.3       1 FAD501      0.0000 
     10 C2B        31.9680  -45.4290    9.1220 C.3       1 FAD501      0.0000 
     11 O2B        32.8220  -44.2510    8.8100 O.3       1 FAD501      0.0000 
     12 C1B        31.0100  -46.0280    7.9750 C.3       1 FAD501      0.0000 
     13 N9A        29.8190  -45.0870    7.7570 N.pl3     1 FAD501      0.0000 
     14 C8A        29.1570  -44.4050    8.7920 C.2       1 FAD501      0.0000 
     15 N7A        28.2040  -43.5150    8.3560 N.2       1 FAD501      0.0000 
     16 C5A        28.2470  -43.5760    6.9540 C.ar      1 FAD501      0.0000 
     17 C6A        27.4710  -42.8220    5.8380 C.ar      1 FAD501      0.0000 
     18 N6A        26.5160  -41.9050    6.2260 N.pl3     1 FAD501      0.0000 
     19 N1A        27.8610  -43.1620    4.4960 N.ar      1 FAD501      0.0000 
     20 C2A        28.8690  -44.1600    4.1820 C.ar      1 FAD501      0.0000 
     21 N3A        29.6290  -44.8900    5.1330 N.ar      1 FAD501      0.0000 
     22 C4A        29.3520  -44.6270    6.5280 C.ar      1 FAD501      0.0000 
     23 N1         34.9020  -56.1370   19.5100 N.2       1 FAD501      0.0000 
     24 C2         35.0800  -57.4200   20.0270 C.2       1 FAD501      0.0000 
     25 O2         34.1610  -58.2830   19.8190 O.2       1 FAD501      0.0000 
     26 N3         36.2320  -57.8040   20.7580 N.am      1 FAD501      0.0000 
     27 C4         37.3220  -56.9940   21.0110 C.2       1 FAD501      0.0000 
     28 O4         38.3330  -57.4060   21.6910 O.2       1 FAD501      0.0000 
     29 C4X        37.2150  -55.5730   20.4350 C.2       1 FAD501      0.0000 
     30 N5         38.2380  -54.6430   20.6220 N.2       1 FAD501      0.0000 
     31 C5X        38.1580  -53.3460   20.1510 C.ar      1 FAD501      0.0000 
     32 C6         39.2380  -52.4260   20.3460 C.ar      1 FAD501      0.0000 
     33 C7         39.1490  -51.0910   19.8450 C.ar      1 FAD501      0.0000 
     34 C7M        40.2900  -50.1160   20.0260 C.3       1 FAD501      0.0000 
     35 C8         37.9170  -50.6390   19.0940 C.ar      1 FAD501      0.0000 
     36 C8M        37.8230  -49.2310   18.5100 C.3       1 FAD501      0.0000 
     37 C9         36.8610  -51.5760   18.9050 C.ar      1 FAD501      0.0000 
     38 C9A        36.8980  -52.9130   19.3900 C.ar      1 FAD501      0.0000 
     39 N10        35.8020  -53.8580   19.1300 N.pl3     1 FAD501      0.0000 
     40 C10        35.9180  -55.1980   19.6710 C.2       1 FAD501      0.0000 
     41 C1'        34.5320  -53.4770   18.4160 C.3       1 FAD501      0.0000 
     42 C2'        34.4850  -53.0990   16.9320 C.3       1 FAD501      0.0000 
     43 O2'        34.9030  -51.7520   16.5790 O.3       1 FAD501      0.0000 
     44 C3'        33.0130  -53.1830   16.4930 C.3       1 FAD501      0.0000 
     45 O3'        32.1830  -53.5910   17.5940 O.3       1 FAD501      0.0000 
     46 C4'        32.7720  -53.9830   15.1720 C.3       1 FAD501      0.0000 
     47 O4'        33.7970  -53.7280   14.1560 O.3       1 FAD501      0.0000 
     48 C5'        31.3760  -53.6800   14.5710 C.3       1 FAD501      0.0000 
     49 O5'        31.3270  -52.6970   13.5010 O.3       1 FAD501      0.0000 
     50 P          30.1590  -52.3620   12.3590 P.3       1 FAD501      0.0000 
     51 O1P        30.4830  -52.8440   10.9690 O.co2     1 FAD501      0.0000 
     52 O2P        28.6630  -52.3610   12.7710 O.co2     1 FAD501      0.0000 
     53 O3P        30.5220  -50.7510   12.2740 O.3       1 FAD501      0.0000 
@<TRIPOS>BOND
     1    1    2 ar   
     2    1    3 ar   
     3    1    4 1    
     4    1   53 1    
     5    4    5 1    
     6    5    6 1    
     7    6    7 1    
     8    6    8 1    
     9    7   12 1    
    10    8    9 1    
    11    8   10 1    
    12   10   11 1    
    13   10   12 1    
    14   12   13 1    
    15   13   14 1    
    16   13   22 1    
    17   14   15 2    
    18   15   16 1    
    19   16   17 ar   
    20   16   22 ar   
    21   17   18 1    
    22   17   19 ar   
    23   19   20 ar   
    24   20   21 ar   
    25   21   22 ar   
    26   23   24 1    
    27   23   40 2    
    28   24   25 2    
    29   24   26 am   
    30   26   27 am   
    31   27   28 2    
    32   27   29 1    
    33   29   30 2    
    34   29   40 1    
    35   30   31 1    
    36   31   32 ar   
    37   31   38 ar   
    38   32   33 ar   
    39   33   34 1    
    40   33   35 ar   
    41   35   36 1    
    42   35   37 ar   
    43   37   38 ar   
    44   38   39 1    
    45   39   40 1    
    46   39   41 1    
    47   41   42 1    
    48   42   43 1    
    49   42   44 1    
    50   44   45 1    
    51   44   46 1    
    52   46   47 1    
    53   46   48 1    
    54   48   49 1    
    55   49   50 1    
    56   50   51 ar   
    57   50   52 ar   
    58   50   53 1    
@<TRIPOS>SUBSTRUCTURE
     1 FAD501      1 GROUP   
@<TRIPOS>SET
ATOM$ORANGE STATIC     ATOMS   COLORGROUP SYSTEM 
54 5 5 6 6 8 8 10 10 12 12 14 14 16 16 17 17 20 \
20 22 22 24 24 27 27 29 29 31 31 32 32 33 33 34 34 35 \
35 36 36 37 37 38 38 40 40 41 41 42 42 44 44 46 46 48 \
48 

