#    Name: 6ruz_2_FAD
#    Modification time : Fri May 22 19:26:48 2020

@<TRIPOS>MOLECULE
6ruz_2_FAD
   53    58     1     0     1
SMALL
NO_CHARGES


@<TRIPOS>ATOM
      1 PA        113.5840   -4.7510   26.8910 P.3       1 FAD501      0.0000 
      2 O1A       114.4170   -4.1930   28.1410 O.co2     1 FAD501      0.0000 
      3 O2A       113.0460   -6.2460   26.9540 O.co2     1 FAD501      0.0000 
      4 O5B       114.5480   -4.6590   25.5330 O.3       1 FAD501      0.0000 
      5 C5B       114.7430   -3.5570   24.6210 C.3       1 FAD501      0.0000 
      6 C4B       116.0350   -3.9120   23.8550 C.3       1 FAD501      0.0000 
      7 O4B       116.2920   -2.7400   23.0420 O.3       1 FAD501      0.0000 
      8 C3B       117.3100   -4.3170   24.7290 C.3       1 FAD501      0.0000 
      9 O3B       117.7850   -5.7600   24.7550 O.3       1 FAD501      0.0000 
     10 C2B       118.3360   -3.2000   24.3480 C.3       1 FAD501      0.0000 
     11 O2B       119.7100   -3.6470   24.1500 O.3       1 FAD501      0.0000 
     12 C1B       117.7300   -2.4050   23.1160 C.3       1 FAD501      0.0000 
     13 N9A       118.2490   -0.9250   23.0700 N.pl3     1 FAD501      0.0000 
     14 C8A       118.4450   -0.1570   24.2310 C.2       1 FAD501      0.0000 
     15 N7A       118.9850    1.0800   23.9480 N.2       1 FAD501      0.0000 
     16 C5A       119.1960    1.1690   22.5640 C.ar      1 FAD501      0.0000 
     17 C6A       119.7960    2.2730   21.6340 C.ar      1 FAD501      0.0000 
     18 N6A       120.1570    3.4580   22.2730 N.pl3     1 FAD501      0.0000 
     19 N1A       119.8780    1.9550   20.2210 N.ar      1 FAD501      0.0000 
     20 C2A       119.4070    0.6980   19.7040 C.ar      1 FAD501      0.0000 
     21 N3A       118.8450   -0.3530   20.4870 N.ar      1 FAD501      0.0000 
     22 C4A       118.7110   -0.1830   21.9360 C.ar      1 FAD501      0.0000 
     23 N1        107.5630  -10.3030   32.4510 N.2       1 FAD501      0.0000 
     24 C2        106.3370  -10.9060   32.7140 C.2       1 FAD501      0.0000 
     25 O2        105.3100  -10.2250   32.3800 O.2       1 FAD501      0.0000 
     26 N3        106.2380  -12.1850   33.3210 N.am      1 FAD501      0.0000 
     27 C4        107.3550  -12.9630   33.7170 C.2       1 FAD501      0.0000 
     28 O4        107.3150  -14.1330   34.3080 O.2       1 FAD501      0.0000 
     29 C4X       108.7370  -12.3660   33.4110 C.2       1 FAD501      0.0000 
     30 N5        109.8910  -13.0900   33.7530 N.2       1 FAD501      0.0000 
     31 C5X       111.1310  -12.5380   33.5020 C.ar      1 FAD501      0.0000 
     32 C6        112.3260  -13.2660   33.8400 C.ar      1 FAD501      0.0000 
     33 C7        113.6320  -12.7150   33.5670 C.ar      1 FAD501      0.0000 
     34 C7M       114.9160  -13.4630   33.9250 C.3       1 FAD501      0.0000 
     35 C8        113.7160  -11.3370   32.8930 C.ar      1 FAD501      0.0000 
     36 C8M       115.0190  -10.6340   32.5500 C.3       1 FAD501      0.0000 
     37 C9        112.5290  -10.6190   32.5750 C.ar      1 FAD501      0.0000 
     38 C9A       111.2260  -11.1290   32.8290 C.ar      1 FAD501      0.0000 
     39 N10       110.0510  -10.3460   32.4290 N.pl3     1 FAD501      0.0000 
     40 C10       108.7680  -10.9570   32.7390 C.2       1 FAD501      0.0000 
     41 C1'       110.1160   -8.9660   31.8310 C.3       1 FAD501      0.0000 
     42 C2'       110.6010   -8.7240   30.4100 C.3       1 FAD501      0.0000 
     43 O2'       112.0430   -8.7210   30.2810 O.3       1 FAD501      0.0000 
     44 C3'       110.1780   -7.3170   30.0000 C.3       1 FAD501      0.0000 
     45 O3'       109.3870   -6.7340   31.0550 O.3       1 FAD501      0.0000 
     46 C4'       109.6160   -7.2790   28.5360 C.3       1 FAD501      0.0000 
     47 O4'       110.3820   -8.1170   27.5890 O.3       1 FAD501      0.0000 
     48 C5'       109.4620   -5.8140   27.9990 C.3       1 FAD501      0.0000 
     49 O5'       110.4890   -5.3760   27.0490 O.3       1 FAD501      0.0000 
     50 P         110.6860   -4.0010   26.1280 P.3       1 FAD501      0.0000 
     51 O1P       110.5730   -4.3320   24.6130 O.co2     1 FAD501      0.0000 
     52 O2P       110.1580   -2.6880   26.7130 O.co2     1 FAD501      0.0000 
     53 O3P       112.3230   -3.7540   26.3300 O.3       1 FAD501      0.0000 
@<TRIPOS>BOND
     1    1    2 ar   
     2    1    3 ar   
     3    1    4 1    
     4    1   53 1    
     5    4    5 1    
     6    5    6 1    
     7    6    7 1    
     8    6    8 1    
     9    7   12 1    
    10    8    9 1    
    11    8   10 1    
    12   10   11 1    
    13   10   12 1    
    14   12   13 1    
    15   13   14 1    
    16   13   22 1    
    17   14   15 2    
    18   15   16 1    
    19   16   17 ar   
    20   16   22 ar   
    21   17   18 1    
    22   17   19 ar   
    23   19   20 ar   
    24   20   21 ar   
    25   21   22 ar   
    26   23   24 1    
    27   23   40 2    
    28   24   25 2    
    29   24   26 am   
    30   26   27 am   
    31   27   28 2    
    32   27   29 1    
    33   29   30 2    
    34   29   40 1    
    35   30   31 1    
    36   31   32 ar   
    37   31   38 ar   
    38   32   33 ar   
    39   33   34 1    
    40   33   35 ar   
    41   35   36 1    
    42   35   37 ar   
    43   37   38 ar   
    44   38   39 1    
    45   39   40 1    
    46   39   41 1    
    47   41   42 1    
    48   42   43 1    
    49   42   44 1    
    50   44   45 1    
    51   44   46 1    
    52   46   47 1    
    53   46   48 1    
    54   48   49 1    
    55   49   50 1    
    56   50   51 ar   
    57   50   52 ar   
    58   50   53 1    
@<TRIPOS>SUBSTRUCTURE
     1 FAD501      1 GROUP   
@<TRIPOS>SET
ATOM$ORANGE STATIC     ATOMS   COLORGROUP SYSTEM 
54 5 5 6 6 8 8 10 10 12 12 14 14 16 16 17 17 20 \
20 22 22 24 24 27 27 29 29 31 31 32 32 33 33 34 34 35 \
35 36 36 37 37 38 38 40 40 41 41 42 42 44 44 46 46 48 \
48 

