#    Name: 6ruz_1_FAD
#    Modification time : Fri May 22 19:26:40 2020

@<TRIPOS>MOLECULE
6ruz_1_FAD
   53    58     1     0     1
SMALL
NO_CHARGES


@<TRIPOS>ATOM
      1 PA         69.7520  -32.8770   46.1550 P.3       1 FAD501      0.0000 
      2 O1A        68.9040  -33.2610   44.8150 O.co2     1 FAD501      0.0000 
      3 O2A        71.3090  -33.0780   46.2320 O.co2     1 FAD501      0.0000 
      4 O5B        69.1970  -33.7160   47.4990 O.3       1 FAD501      0.0000 
      5 C5B        68.0060  -33.5070   48.3410 C.3       1 FAD501      0.0000 
      6 C4B        67.7850  -34.7510   49.2380 C.3       1 FAD501      0.0000 
      7 O4B        66.6360  -34.4650   50.0790 O.3       1 FAD501      0.0000 
      8 C3B        67.6190  -36.0680   48.3930 C.3       1 FAD501      0.0000 
      9 O3B        68.6720  -37.1170   48.4890 O.3       1 FAD501      0.0000 
     10 C2B        66.1690  -36.4730   48.7240 C.3       1 FAD501      0.0000 
     11 O2B        66.0030  -37.9280   48.7800 O.3       1 FAD501      0.0000 
     12 C1B        65.7060  -35.5610   49.9720 C.3       1 FAD501      0.0000 
     13 N9A        64.1750  -35.4090   49.9660 N.pl3     1 FAD501      0.0000 
     14 C8A        63.4190  -35.3560   48.7810 C.2       1 FAD501      0.0000 
     15 N7A        62.0570  -35.3530   48.9970 N.2       1 FAD501      0.0000 
     16 C5A        61.8850  -35.4740   50.3990 C.ar      1 FAD501      0.0000 
     17 C6A        60.6170  -35.5880   51.3030 C.ar      1 FAD501      0.0000 
     18 N6A        59.3850  -35.5440   50.6020 N.pl3     1 FAD501      0.0000 
     19 N1A        60.8640  -35.7120   52.7100 N.ar      1 FAD501      0.0000 
     20 C2A        62.1920  -35.7210   53.2160 C.ar      1 FAD501      0.0000 
     21 N3A        63.4090  -35.6370   52.4770 N.ar      1 FAD501      0.0000 
     22 C4A        63.3100  -35.5140   51.0600 C.ar      1 FAD501      0.0000 
     23 N1         77.3110  -29.6180   40.8800 N.2       1 FAD501      0.0000 
     24 C2         78.3800  -28.7220   40.6620 C.2       1 FAD501      0.0000 
     25 O2         78.2460  -27.4780   41.0390 O.2       1 FAD501      0.0000 
     26 N3         79.5620  -29.2120   40.0660 N.am      1 FAD501      0.0000 
     27 C4         79.7880  -30.5420   39.6870 C.2       1 FAD501      0.0000 
     28 O4         80.8830  -30.9480   39.1330 O.2       1 FAD501      0.0000 
     29 C4X        78.6630  -31.5420   39.9570 C.2       1 FAD501      0.0000 
     30 N5         78.7920  -32.8810   39.6360 N.2       1 FAD501      0.0000 
     31 C5X        77.7550  -33.7550   39.8610 C.ar      1 FAD501      0.0000 
     32 C6         77.8990  -35.1210   39.5220 C.ar      1 FAD501      0.0000 
     33 C7         76.8510  -36.0590   39.7740 C.ar      1 FAD501      0.0000 
     34 C7M        77.0740  -37.5210   39.3950 C.3       1 FAD501      0.0000 
     35 C8         75.5440  -35.5860   40.4030 C.ar      1 FAD501      0.0000 
     36 C8M        74.3780  -36.4730   40.6810 C.3       1 FAD501      0.0000 
     37 C9         75.3920  -34.2420   40.7200 C.ar      1 FAD501      0.0000 
     38 C9A        76.4390  -33.2870   40.4960 C.ar      1 FAD501      0.0000 
     39 N10        76.2680  -31.8830   40.8720 N.pl3     1 FAD501      0.0000 
     40 C10        77.3740  -30.9900   40.5890 C.2       1 FAD501      0.0000 
     41 C1'        74.9940  -31.3300   41.4450 C.3       1 FAD501      0.0000 
     42 C2'        74.5830  -31.7190   42.8570 C.3       1 FAD501      0.0000 
     43 O2'        73.9750  -33.0160   42.9500 O.3       1 FAD501      0.0000 
     44 C3'        73.4960  -30.7430   43.2640 C.3       1 FAD501      0.0000 
     45 O3'        73.3410  -29.7300   42.2570 O.3       1 FAD501      0.0000 
     46 C4'        73.6590  -30.2570   44.7230 C.3       1 FAD501      0.0000 
     47 O4'        74.0600  -31.3790   45.5960 O.3       1 FAD501      0.0000 
     48 C5'        72.3720  -29.5460   45.2650 C.3       1 FAD501      0.0000 
     49 O5'        71.4900  -30.3440   46.1380 O.3       1 FAD501      0.0000 
     50 P          70.1880  -29.9430   47.0220 P.3       1 FAD501      0.0000 
     51 O1P        70.3770  -29.9030   48.5480 O.co2     1 FAD501      0.0000 
     52 O2P        69.2000  -28.9370   46.4790 O.co2     1 FAD501      0.0000 
     53 O3P        69.3780  -31.3490   46.7710 O.3       1 FAD501      0.0000 
@<TRIPOS>BOND
     1    1    2 ar   
     2    1    3 ar   
     3    1    4 1    
     4    1   53 1    
     5    4    5 1    
     6    5    6 1    
     7    6    7 1    
     8    6    8 1    
     9    7   12 1    
    10    8    9 1    
    11    8   10 1    
    12   10   11 1    
    13   10   12 1    
    14   12   13 1    
    15   13   14 1    
    16   13   22 1    
    17   14   15 2    
    18   15   16 1    
    19   16   17 ar   
    20   16   22 ar   
    21   17   18 1    
    22   17   19 ar   
    23   19   20 ar   
    24   20   21 ar   
    25   21   22 ar   
    26   23   24 1    
    27   23   40 2    
    28   24   25 2    
    29   24   26 am   
    30   26   27 am   
    31   27   28 2    
    32   27   29 1    
    33   29   30 2    
    34   29   40 1    
    35   30   31 1    
    36   31   32 ar   
    37   31   38 ar   
    38   32   33 ar   
    39   33   34 1    
    40   33   35 ar   
    41   35   36 1    
    42   35   37 ar   
    43   37   38 ar   
    44   38   39 1    
    45   39   40 1    
    46   39   41 1    
    47   41   42 1    
    48   42   43 1    
    49   42   44 1    
    50   44   45 1    
    51   44   46 1    
    52   46   47 1    
    53   46   48 1    
    54   48   49 1    
    55   49   50 1    
    56   50   51 ar   
    57   50   52 ar   
    58   50   53 1    
@<TRIPOS>SUBSTRUCTURE
     1 FAD501      1 GROUP   
@<TRIPOS>SET
ATOM$ORANGE STATIC     ATOMS   COLORGROUP SYSTEM 
54 5 5 6 6 8 8 10 10 12 12 14 14 16 16 17 17 20 \
20 22 22 24 24 27 27 29 29 31 31 32 32 33 33 34 34 35 \
35 36 36 37 37 38 38 40 40 41 41 42 42 44 44 46 46 48 \
48 

