#    Name: 6ruz_3_FAD
#    Modification time : Fri May 22 19:26:56 2020

@<TRIPOS>MOLECULE
6ruz_3_FAD
   53    58     1     0     1
SMALL
NO_CHARGES


@<TRIPOS>ATOM
      1 PA        117.3230  -64.3500   42.1380 P.3       1 FAD501      0.0000 
      2 O1A       117.1790  -63.1300   41.1230 O.co2     1 FAD501      0.0000 
      3 O2A       116.6190  -65.7350   41.9180 O.co2     1 FAD501      0.0000 
      4 O5B       116.7660  -63.8490   43.6200 O.3       1 FAD501      0.0000 
      5 C5B       117.4360  -63.1080   44.7110 C.3       1 FAD501      0.0000 
      6 C4B       116.3940  -62.5620   45.7220 C.3       1 FAD501      0.0000 
      7 O4B       117.1570  -61.7060   46.5920 O.3       1 FAD501      0.0000 
      8 C3B       115.1930  -61.7800   45.0310 C.3       1 FAD501      0.0000 
      9 O3B       113.8290  -62.3650   44.9810 O.3       1 FAD501      0.0000 
     10 C2B       115.2690  -60.3950   45.6680 C.3       1 FAD501      0.0000 
     11 O2B       113.9440  -59.8220   45.9610 O.3       1 FAD501      0.0000 
     12 C1B       116.3360  -60.5480   46.8360 C.3       1 FAD501      0.0000 
     13 N9A       116.9740  -59.1870   47.0750 N.pl3     1 FAD501      0.0000 
     14 C8A       117.2680  -58.2480   46.0440 C.2       1 FAD501      0.0000 
     15 N7A       117.7390  -57.0300   46.5210 N.2       1 FAD501      0.0000 
     16 C5A       117.7370  -57.1400   47.9250 C.ar      1 FAD501      0.0000 
     17 C6A       118.1170  -56.1580   49.0440 C.ar      1 FAD501      0.0000 
     18 N6A       118.5450  -54.9100   48.6530 N.pl3     1 FAD501      0.0000 
     19 N1A       117.9750  -56.6500   50.3880 N.ar      1 FAD501      0.0000 
     20 C2A       117.4930  -57.9830   50.6800 C.ar      1 FAD501      0.0000 
     21 N3A       117.0920  -58.9640   49.7180 N.ar      1 FAD501      0.0000 
     22 C4A       117.2020  -58.5810   48.3220 C.ar      1 FAD501      0.0000 
     23 N1        117.4760  -71.2390   35.2000 N.2       1 FAD501      0.0000 
     24 C2        117.9120  -72.4700   34.6970 C.2       1 FAD501      0.0000 
     25 O2        119.1460  -72.9040   34.8840 O.2       1 FAD501      0.0000 
     26 N3        117.0000  -73.2630   33.9680 N.am      1 FAD501      0.0000 
     27 C4        115.6530  -72.9910   33.6960 C.2       1 FAD501      0.0000 
     28 O4        114.8350  -73.7610   33.0120 O.2       1 FAD501      0.0000 
     29 C4X       115.1630  -71.6830   34.2620 C.2       1 FAD501      0.0000 
     30 N5        113.8370  -71.3120   34.0390 N.2       1 FAD501      0.0000 
     31 C5X       113.3480  -70.1180   34.5210 C.ar      1 FAD501      0.0000 
     32 C6        111.9830  -69.7720   34.2920 C.ar      1 FAD501      0.0000 
     33 C7        111.4900  -68.5350   34.8070 C.ar      1 FAD501      0.0000 
     34 C7M       110.0240  -68.1460   34.5900 C.3       1 FAD501      0.0000 
     35 C8        112.4510  -67.6240   35.5740 C.ar      1 FAD501      0.0000 
     36 C8M       112.0410  -66.2880   36.1380 C.3       1 FAD501      0.0000 
     37 C9        113.7860  -67.9810   35.7940 C.ar      1 FAD501      0.0000 
     38 C9A       114.3060  -69.1920   35.3080 C.ar      1 FAD501      0.0000 
     39 N10       115.7020  -69.5470   35.5620 N.pl3     1 FAD501      0.0000 
     40 C10       116.1690  -70.8100   35.0300 C.2       1 FAD501      0.0000 
     41 C1'       116.6370  -68.6320   36.2760 C.3       1 FAD501      0.0000 
     42 C2'       116.4810  -68.4040   37.7800 C.3       1 FAD501      0.0000 
     43 O2'       115.4310  -67.4700   38.1300 O.3       1 FAD501      0.0000 
     44 C3'       117.8310  -67.8560   38.2830 C.3       1 FAD501      0.0000 
     45 O3'       118.8770  -68.0030   37.2810 O.3       1 FAD501      0.0000 
     46 C4'       118.2560  -68.4400   39.6540 C.3       1 FAD501      0.0000 
     47 O4'       117.1570  -68.6260   40.6080 O.3       1 FAD501      0.0000 
     48 C5'       119.3980  -67.5950   40.2780 C.3       1 FAD501      0.0000 
     49 O5'       119.0150  -66.5990   41.3000 O.3       1 FAD501      0.0000 
     50 P         119.9330  -65.8550   42.4770 P.3       1 FAD501      0.0000 
     51 O1P       119.7600  -66.6250   43.8360 O.co2     1 FAD501      0.0000 
     52 O2P       121.2680  -65.1450   42.0850 O.co2     1 FAD501      0.0000 
     53 O3P       118.9250  -64.5680   42.5690 O.3       1 FAD501      0.0000 
@<TRIPOS>BOND
     1    1    2 ar   
     2    1    3 ar   
     3    1    4 1    
     4    1   53 1    
     5    4    5 1    
     6    5    6 1    
     7    6    7 1    
     8    6    8 1    
     9    7   12 1    
    10    8    9 1    
    11    8   10 1    
    12   10   11 1    
    13   10   12 1    
    14   12   13 1    
    15   13   14 1    
    16   13   22 1    
    17   14   15 2    
    18   15   16 1    
    19   16   17 ar   
    20   16   22 ar   
    21   17   18 1    
    22   17   19 ar   
    23   19   20 ar   
    24   20   21 ar   
    25   21   22 ar   
    26   23   24 1    
    27   23   40 2    
    28   24   25 2    
    29   24   26 am   
    30   26   27 am   
    31   27   28 2    
    32   27   29 1    
    33   29   30 2    
    34   29   40 1    
    35   30   31 1    
    36   31   32 ar   
    37   31   38 ar   
    38   32   33 ar   
    39   33   34 1    
    40   33   35 ar   
    41   35   36 1    
    42   35   37 ar   
    43   37   38 ar   
    44   38   39 1    
    45   39   40 1    
    46   39   41 1    
    47   41   42 1    
    48   42   43 1    
    49   42   44 1    
    50   44   45 1    
    51   44   46 1    
    52   46   47 1    
    53   46   48 1    
    54   48   49 1    
    55   49   50 1    
    56   50   51 ar   
    57   50   52 ar   
    58   50   53 1    
@<TRIPOS>SUBSTRUCTURE
     1 FAD501      1 GROUP   
@<TRIPOS>SET
ATOM$ORANGE STATIC     ATOMS   COLORGROUP SYSTEM 
54 5 5 6 6 8 8 10 10 12 12 14 14 16 16 17 17 20 \
20 22 22 24 24 27 27 29 29 31 31 32 32 33 33 34 34 35 \
35 36 36 37 37 38 38 40 40 41 41 42 42 44 44 46 46 48 \
48 

