#    Name: 5obg_4_SY9
#    Modification time : Fri May 22 19:15:48 2020

@<TRIPOS>MOLECULE
5obg_4_SY9
   25    31     1     0     0
SMALL
NO_CHARGES


@<TRIPOS>ATOM
      1 CAV        28.7330   72.3040   32.8120 C.3       1 SY9601      0.0000 
      2 CAU        29.4090   72.0570   34.1590 C.3       1 SY9601      0.0000 
      3 CAT        30.3380   70.8400   34.0230 C.3       1 SY9601      0.0000 
      4 CAN        31.4940   71.2720   33.1060 C.3       1 SY9601      0.0000 
      5 CAK        31.0120   71.6920   31.7170 C.3       1 SY9601      0.0000 
      6 NAH        32.0700   72.5700   31.1530 N.am      1 SY9601      0.0000 
      7 CAA        31.5840   73.8960   31.0630 C.ar      1 SY9601      0.0000 
      8 CAF        32.2580   75.0470   30.6600 C.ar      1 SY9601      0.0000 
      9 CAE        31.5620   76.2490   30.6820 C.ar      1 SY9601      0.0000 
     10 CAD        30.2440   76.3080   31.1490 C.ar      1 SY9601      0.0000 
     11 CAC        29.5900   75.1560   31.5480 C.ar      1 SY9601      0.0000 
     12 CAB        30.2470   73.9370   31.4670 C.ar      1 SY9601      0.0000 
     13 CAG        29.7120   72.5430   31.6340 C.3       1 SY9601      0.0000 
     14 CAW        28.8540   72.1120   30.4290 C.3       1 SY9601      0.0000 
     15 CAX        28.0800   70.9200   30.9660 C.3       1 SY9601      0.0000 
     16 NAY        27.8740   71.1550   32.4050 N.4       1 SY9601      0.0000 
     17 CAS        28.0970   69.9410   33.2210 C.3       1 SY9601      0.0000 
     18 CAR        29.5460   69.6470   33.5280 C.2       1 SY9601      0.0000 
     19 CAQ        30.0960   68.4570   33.3310 C.2       1 SY9601      0.0000 
     20 CAP        31.5710   68.2130   33.4360 C.3       1 SY9601      0.0000 
     21 OAO        32.2960   68.9940   32.4720 O.3       1 SY9601      0.0000 
     22 CAM        32.6730   70.3010   32.9140 C.3       1 SY9601      0.0000 
     23 CAL        33.6300   70.8210   31.8280 C.3       1 SY9601      0.0000 
     24 CAI        33.3810   72.2010   31.2570 C.2       1 SY9601      0.0000 
     25 OAJ        34.2930   72.9420   30.9650 O.2       1 SY9601      0.0000 
@<TRIPOS>BOND
     1    1    2 1    
     2    1   13 1    
     3    1   16 1    
     4    2    3 1    
     5    3    4 1    
     6    3   18 1    
     7    4    5 1    
     8    4   22 1    
     9    5    6 1    
    10    5   13 1    
    11    6    7 1    
    12    6   24 am   
    13    7    8 ar   
    14    7   12 ar   
    15    8    9 ar   
    16    9   10 ar   
    17   10   11 ar   
    18   11   12 ar   
    19   12   13 1    
    20   13   14 1    
    21   14   15 1    
    22   15   16 1    
    23   16   17 1    
    24   17   18 1    
    25   18   19 2    
    26   19   20 1    
    27   20   21 1    
    28   21   22 1    
    29   22   23 1    
    30   23   24 1    
    31   24   25 2    
@<TRIPOS>SUBSTRUCTURE
     1 SY9601      1 GROUP   
@<TRIPOS>SET

