#    Name: 5obg_5_SY9
#    Modification time : Fri May 22 19:15:54 2020

@<TRIPOS>MOLECULE
5obg_5_SY9
   25    31     1     0     0
SMALL
NO_CHARGES


@<TRIPOS>ATOM
      1 CAV        50.8180   47.7020   28.8760 C.3       1 SY9601      0.0000 
      2 CAU        50.9680   46.7880   30.0900 C.3       1 SY9601      0.0000 
      3 CAT        50.0370   45.5740   29.9270 C.3       1 SY9601      0.0000 
      4 CAN        50.6170   44.7480   28.7710 C.3       1 SY9601      0.0000 
      5 CAK        50.7140   45.5270   27.4550 C.3       1 SY9601      0.0000 
      6 NAH        51.7810   44.8610   26.6490 N.am      1 SY9601      0.0000 
      7 CAA        52.9170   45.7230   26.5660 C.ar      1 SY9601      0.0000 
      8 CAF        54.1830   45.4590   26.0340 C.ar      1 SY9601      0.0000 
      9 CAE        55.1380   46.4610   26.0810 C.ar      1 SY9601      0.0000 
     10 CAD        54.8430   47.6990   26.6550 C.ar      1 SY9601      0.0000 
     11 CAC        53.5780   47.9580   27.1640 C.ar      1 SY9601      0.0000 
     12 CAB        52.6050   46.9700   27.1110 C.ar      1 SY9601      0.0000 
     13 CAG        51.1500   47.0240   27.5220 C.3       1 SY9601      0.0000 
     14 CAW        50.3180   47.8750   26.5440 C.3       1 SY9601      0.0000 
     15 CAX        49.0360   48.1250   27.3070 C.3       1 SY9601      0.0000 
     16 NAY        49.4230   48.2100   28.7310 N.4       1 SY9601      0.0000 
     17 CAS        48.4640   47.5480   29.6370 C.3       1 SY9601      0.0000 
     18 CAR        48.6040   46.0470   29.7060 C.2       1 SY9601      0.0000 
     19 CAQ        47.5960   45.2130   29.4680 C.2       1 SY9601      0.0000 
     20 CAP        47.7600   43.7330   29.3390 C.3       1 SY9601      0.0000 
     21 OAO        48.5750   43.4050   28.1960 O.3       1 SY9601      0.0000 
     22 CAM        49.9890   43.3790   28.4490 C.3       1 SY9601      0.0000 
     23 CAL        50.5930   42.8130   27.1610 C.3       1 SY9601      0.0000 
     24 CAI        51.8220   43.4980   26.6220 C.2       1 SY9601      0.0000 
     25 OAJ        52.8010   42.8830   26.2620 O.2       1 SY9601      0.0000 
@<TRIPOS>BOND
     1    1    2 1    
     2    1   13 1    
     3    1   16 1    
     4    2    3 1    
     5    3    4 1    
     6    3   18 1    
     7    4    5 1    
     8    4   22 1    
     9    5    6 1    
    10    5   13 1    
    11    6    7 1    
    12    6   24 am   
    13    7    8 ar   
    14    7   12 ar   
    15    8    9 ar   
    16    9   10 ar   
    17   10   11 ar   
    18   11   12 ar   
    19   12   13 1    
    20   13   14 1    
    21   14   15 1    
    22   15   16 1    
    23   16   17 1    
    24   17   18 1    
    25   18   19 2    
    26   19   20 1    
    27   20   21 1    
    28   21   22 1    
    29   22   23 1    
    30   23   24 1    
    31   24   25 2    
@<TRIPOS>SUBSTRUCTURE
     1 SY9601      1 GROUP   
@<TRIPOS>SET

