#    Name: 5obg_2_SY9_CAVITY_N1_ALL
#    Modification time : Fri May 22 19:15:42 2020

@<TRIPOS>MOLECULE
5obg_2_SY9_CAVITY_N1_ALL
  114     0     7     0     0
SMALL
NO_CHARGES


@<TRIPOS>ATOM
      1 OG         -3.5100   30.3200   16.0800 O.3       1 SER1        0.0000 
      2 OG         -2.5900   31.2500   16.8200 O.3       1 SER1        0.0000 
      3 OG         -3.3200   30.9700   18.0900 O.3       1 SER1        0.0000 
      4 OG         -4.2500   32.1200   17.8100 O.3       1 SER1        0.0000 
      5 OG          0.5600   33.2600   22.5900 O.3       1 SER1        0.0000 
      6 OG          0.7500   31.8300   24.1500 O.3       1 SER1        0.0000 
      7 OG         -0.1800   32.9800   23.8700 O.3       1 SER1        0.0000 
      8 OG          2.4100   33.0400   23.6100 O.3       1 SER1        0.0000 
      9 OG          1.6700   32.7600   24.8800 O.3       1 SER1        0.0000 
     10 OG          0.9400   32.4800   26.1600 O.3       1 SER1        0.0000 
     11 OG          2.0500   29.9100   28.0000 O.3       1 SER1        0.0000 
     12 N           2.4200   26.8200   22.2500 N.am      2 ALA2        0.0000 
     13 N           1.4900   27.9700   21.9700 N.am      2 ALA2        0.0000 
     14 N           0.5700   29.1100   21.6900 N.am      2 ALA2        0.0000 
     15 N           2.4100   28.8900   22.7000 N.am      2 ALA2        0.0000 
     16 N           1.4900   30.0400   22.4200 N.am      2 ALA2        0.0000 
     17 N           2.6100   27.4700   24.2700 N.am      2 ALA2        0.0000 
     18 N           1.6800   28.6100   23.9800 N.am      2 ALA2        0.0000 
     19 N           2.4100   30.9700   23.1600 N.am      2 ALA2        0.0000 
     20 N           3.5300   28.4000   25.0000 N.am      2 ALA2        0.0000 
     21 N           2.6000   29.5400   24.7200 N.am      2 ALA2        0.0000 
     22 N           1.6800   30.6900   24.4300 N.am      2 ALA2        0.0000 
     23 N           2.7900   28.1200   26.2800 N.am      2 ALA2        0.0000 
     24 N           1.8700   29.2600   25.9900 N.am      2 ALA2        0.0000 
     25 N           3.3300   31.8900   23.8900 N.am      2 ALA2        0.0000 
     26 N           2.6000   31.6100   25.1700 N.am      2 ALA2        0.0000 
     27 N           3.7100   29.0500   27.0100 N.am      2 ALA2        0.0000 
     28 N           2.7900   30.1900   26.7300 N.am      2 ALA2        0.0000 
     29 OD1        -4.6100   31.0600   22.6600 O.co2     3 ASP3        0.0000 
     30 OD1         0.0100   31.5500   25.4300 O.co2     3 ASP3        0.0000 
     31 OD1        -0.9100   32.7000   25.1400 O.co2     3 ASP3        0.0000 
     32 OD1        -0.7200   31.2700   26.7000 O.co2     3 ASP3        0.0000 
     33 OD1         0.2000   32.2000   27.4400 O.co2     3 ASP3        0.0000 
     34 NZ         -4.4300   29.3900   15.3500 N.4       4 LYS4        0.0000 
     35 NZ         -4.2400   27.9700   16.9100 N.4       4 LYS4        0.0000 
     36 NZ         -2.5800   29.1800   16.3700 N.4       4 LYS4        0.0000 
     37 NZ         -4.0500   28.6200   18.9200 N.4       4 LYS4        0.0000 
     38 NZ         -4.7900   28.3400   20.2000 N.4       4 LYS4        0.0000 
     39 NZ         -4.6000   26.9200   21.7600 N.4       4 LYS4        0.0000 
     40 NZ          3.7200   26.9700   26.5600 N.4       4 LYS4        0.0000 
     41 NZ          2.9800   26.6900   27.8400 N.4       4 LYS4        0.0000 
     42 NZ          2.0600   27.8400   27.5500 N.4       4 LYS4        0.0000 
     43 NZ          2.9800   28.7700   28.2900 N.4       4 LYS4        0.0000 
     44 CZ         -1.8300   27.6300   23.5100 C.ar      5 PHE5        0.0000 
     45 CZ         -2.7500   28.7700   23.2200 C.ar      5 PHE5        0.0000 
     46 CZ         -3.6800   29.9200   22.9400 C.ar      5 PHE5        0.0000 
     47 CZ         -4.4200   29.6400   24.2200 C.ar      5 PHE5        0.0000 
     48 CZ          0.9500   26.2600   24.8100 C.ar      5 PHE5        0.0000 
     49 CZ          0.0200   27.4100   24.5300 C.ar      5 PHE5        0.0000 
     50 CZ         -0.9100   28.5500   24.2400 C.ar      5 PHE5        0.0000 
     51 CZ         -1.8300   29.7000   23.9600 C.ar      5 PHE5        0.0000 
     52 CZ         -2.7600   30.8400   23.6800 C.ar      5 PHE5        0.0000 
     53 CZ          0.2100   25.9800   26.0900 C.ar      5 PHE5        0.0000 
     54 CZ         -3.4900   30.5600   24.9500 C.ar      5 PHE5        0.0000 
     55 CZ          2.8000   26.0400   25.8300 C.ar      5 PHE5        0.0000 
     56 CZ          0.0200   29.4800   24.9800 C.ar      5 PHE5        0.0000 
     57 CZ         -0.9100   30.6300   24.6900 C.ar      5 PHE5        0.0000 
     58 CZ          2.0600   25.7700   27.1000 C.ar      5 PHE5        0.0000 
     59 CZ          1.1300   26.9100   26.8200 C.ar      5 PHE5        0.0000 
     60 CZ          0.2100   28.0600   26.5400 C.ar      5 PHE5        0.0000 
     61 CZ         -0.7200   29.2000   26.2500 C.ar      5 PHE5        0.0000 
     62 CZ          1.1300   28.9800   27.2700 C.ar      5 PHE5        0.0000 
     63 CZ          0.2000   30.1300   26.9900 C.ar      5 PHE5        0.0000 
     64 CZ          1.3200   27.5600   28.8300 C.ar      5 PHE5        0.0000 
     65 CZ          1.1300   31.0600   27.7200 C.ar      5 PHE5        0.0000 
     66 CZ          2.7800   32.2600   27.1800 C.ar      5 PHE5        0.0000 
     67 CA         -1.6600   30.1000   17.1000 C.3       6 GLY6        0.0000 
     68 CA         -3.6800   27.8400   22.4900 C.3       6 GLY6        0.0000 
     69 CA         -4.6000   28.9900   22.2100 C.3       6 GLY6        0.0000 
     70 CA         -4.4100   27.5600   23.7700 C.3       6 GLY6        0.0000 
     71 CA         -1.4700   30.7500   19.1100 C.3       6 GLY6        0.0000 
     72 CA         -2.4000   31.9000   18.8300 C.3       6 GLY6        0.0000 
     73 CA         -3.1400   31.6200   20.1000 C.3       6 GLY6        0.0000 
     74 CA         -4.0600   32.7600   19.8200 C.3       6 GLY6        0.0000 
     75 CA          0.7600   25.6100   22.8000 C.3       6 GLY6        0.0000 
     76 CA         -0.1700   26.7600   22.5100 C.3       6 GLY6        0.0000 
     77 CA         -4.8000   32.4900   21.1000 C.3       6 GLY6        0.0000 
     78 CA         -0.9000   26.4800   23.7900 C.3       6 GLY6        0.0000 
     79 CA          0.3700   30.5400   20.1300 C.3       6 GLY6        0.0000 
     80 CA         -0.5500   31.6800   19.8400 C.3       6 GLY6        0.0000 
     81 CA         -1.4800   32.8300   19.5600 C.3       6 GLY6        0.0000 
     82 CA         -2.2100   32.5500   20.8400 C.3       6 GLY6        0.0000 
     83 CA          3.3400   27.7500   22.9900 C.3       6 GLY6        0.0000 
     84 CA          0.5600   31.1800   22.1400 C.3       6 GLY6        0.0000 
     85 CA         -0.3600   32.3300   21.8500 C.3       6 GLY6        0.0000 
     86 CA          3.1500   31.2500   21.8800 C.3       6 GLY6        0.0000 
     87 CA          2.2200   32.3900   21.5900 C.3       6 GLY6        0.0000 
     88 CA          1.4800   32.1100   22.8700 C.3       6 GLY6        0.0000 
     89 CA          3.1400   33.3200   22.3300 C.3       6 GLY6        0.0000 
     90 CA          1.8600   31.3400   26.4400 C.3       6 GLY6        0.0000 
     91 DU         -5.1700   29.1200   16.6300 H         7 CUB7        0.0000 
     92 DU         -3.3200   28.9000   17.6400 H         7 CUB7        0.0000 
     93 DU         -4.2500   30.0400   17.3600 H         7 CUB7        0.0000 
     94 DU         -4.9800   29.7600   18.6400 H         7 CUB7        0.0000 
     95 DU         -2.4000   29.8300   18.3800 H         7 CUB7        0.0000 
     96 DU         -3.1300   29.5500   19.6500 H         7 CUB7        0.0000 
     97 DU         -4.0600   30.6900   19.3700 H         7 CUB7        0.0000 
     98 DU         -4.9800   31.8400   19.0900 H         7 CUB7        0.0000 
     99 DU         -3.8700   29.2700   20.9300 H         7 CUB7        0.0000 
    100 DU         -5.7200   31.5600   20.3600 H         7 CUB7        0.0000 
    101 DU         -2.2100   30.4700   20.3900 H         7 CUB7        0.0000 
    102 DU         -2.0200   29.0500   21.9500 H         7 CUB7        0.0000 
    103 DU         -3.8700   31.3400   21.3800 H         7 CUB7        0.0000 
    104 DU         -0.3600   30.2600   21.4000 H         7 CUB7        0.0000 
    105 DU         -1.2900   31.4000   21.1200 H         7 CUB7        0.0000 
    106 DU          0.7600   27.6900   23.2500 H         7 CUB7        0.0000 
    107 DU         -0.1700   28.8300   22.9600 H         7 CUB7        0.0000 
    108 DU         -1.1000   29.9800   22.6800 H         7 CUB7        0.0000 
    109 DU         -2.0200   31.1200   22.4000 H         7 CUB7        0.0000 
    110 DU          0.7500   29.7600   23.7000 H         7 CUB7        0.0000 
    111 DU         -0.1700   30.9100   23.4200 H         7 CUB7        0.0000 
    112 DU          1.8700   27.1900   25.5400 H         7 CUB7        0.0000 
    113 DU          0.9400   28.3400   25.2600 H         7 CUB7        0.0000 
    114 DU          0.9400   30.4100   25.7100 H         7 CUB7        0.0000 
@<TRIPOS>BOND
@<TRIPOS>SUBSTRUCTURE
     1 SER1        1 GROUP   
     2 ALA2       12 GROUP   
     3 ASP3       29 GROUP   
     4 LYS4       34 GROUP   
     5 PHE5       44 GROUP   
     6 GLY6       67 GROUP   
     7 CUB7       91 GROUP   
@<TRIPOS>SET

