#    Name: 5obg_1_SY9_CAVITY_N1_6
#    Modification time : Fri May 22 19:15:35 2020

@<TRIPOS>MOLECULE
5obg_1_SY9_CAVITY_N1_6
  108     0     7     0     0
SMALL
NO_CHARGES


@<TRIPOS>ATOM
      1 OG         29.5800   19.2900   22.1600 O.3       1 SER1        0.0000 
      2 OG         28.6500   20.4400   21.8700 O.3       1 SER1        0.0000 
      3 OG         27.9100   20.1600   23.1500 O.3       1 SER1        0.0000 
      4 OG         30.1500   17.0900   27.2900 O.3       1 SER1        0.0000 
      5 OG         31.2600   14.5200   29.1300 O.3       1 SER1        0.0000 
      6 OG         30.3400   15.6700   28.8500 O.3       1 SER1        0.0000 
      7 OG         32.7300   17.1500   27.0300 O.3       1 SER1        0.0000 
      8 OG         31.8000   18.3000   26.7400 O.3       1 SER1        0.0000 
      9 OG         30.8800   19.4400   26.4600 O.3       1 SER1        0.0000 
     10 OG         31.9900   16.8700   28.3000 O.3       1 SER1        0.0000 
     11 OG         31.0700   18.0200   28.0200 O.3       1 SER1        0.0000 
     12 OG         32.1800   15.4500   29.8600 O.3       1 SER1        0.0000 
     13 OG         31.2600   16.6000   29.5800 O.3       1 SER1        0.0000 
     14 OG         32.7300   19.2300   27.4800 O.3       1 SER1        0.0000 
     15 OG         32.9200   17.8000   29.0400 O.3       1 SER1        0.0000 
     16 OG         31.9900   18.9500   28.7500 O.3       1 SER1        0.0000 
     17 OG         31.0600   20.0900   28.4700 O.3       1 SER1        0.0000 
     18 OG         33.1100   16.3800   30.6000 O.3       1 SER1        0.0000 
     19 OG         32.1800   17.5200   30.3200 O.3       1 SER1        0.0000 
     20 OG         31.2500   18.6700   30.0300 O.3       1 SER1        0.0000 
     21 OG         34.0300   17.3100   31.3300 O.3       1 SER1        0.0000 
     22 OG         33.1000   18.4500   31.0500 O.3       1 SER1        0.0000 
     23 N          31.0500   19.8500   19.6000 N.am      2 ALA2        0.0000 
     24 N          32.9000   19.6300   20.6200 N.am      2 ALA2        0.0000 
     25 N          31.9700   20.7800   20.3300 N.am      2 ALA2        0.0000 
     26 N          31.2300   20.5000   21.6100 N.am      2 ALA2        0.0000 
     27 N          30.5000   20.2200   22.8900 N.am      2 ALA2        0.0000 
     28 O          35.4800   19.6900   20.3600 O.2       2 ALA2        0.0000 
     29 N          34.7400   19.4100   21.6300 N.am      2 ALA2        0.0000 
     30 N          33.8200   20.5600   21.3500 N.am      2 ALA2        0.0000 
     31 N          33.0800   20.2800   22.6300 N.am      2 ALA2        0.0000 
     32 N          32.3500   20.0000   23.9100 N.am      2 ALA2        0.0000 
     33 N          31.4200   21.1500   23.6200 N.am      2 ALA2        0.0000 
     34 N          30.6900   20.8700   24.9000 N.am      2 ALA2        0.0000 
     35 N          29.7600   22.0100   24.6200 N.am      2 ALA2        0.0000 
     36 N          35.6700   20.3400   22.3700 N.am      2 ALA2        0.0000 
     37 N          34.0100   21.2100   23.3600 N.am      2 ALA2        0.0000 
     38 N          33.2700   20.9300   24.6400 N.am      2 ALA2        0.0000 
     39 N          31.6100   21.8000   25.6300 N.am      2 ALA2        0.0000 
     40 OD1        27.5400   16.7900   18.6800 O.co2     3 ASP3        0.0000 
     41 OD1        30.8600   19.2000   17.5900 O.co2     3 ASP3        0.0000 
     42 OD1        28.8400   19.0100   23.4300 O.co2     3 ASP3        0.0000 
     43 OD1        33.6300   19.9100   19.3400 O.co2     3 ASP3        0.0000 
     44 OD1        29.7600   19.9400   24.1700 O.co2     3 ASP3        0.0000 
     45 OD1        29.9500   18.5200   25.7300 O.co2     3 ASP3        0.0000 
     46 OD1        29.0300   19.6600   25.4400 O.co2     3 ASP3        0.0000 
     47 NZ         33.2600   16.5400   14.8700 N.4       4 LYS4        0.0000 
     48 NZ         33.6400   17.8400   18.8900 N.4       4 LYS4        0.0000 
     49 NZ         32.5300   20.6500   25.9200 N.4       4 LYS4        0.0000 
     50 NZ         31.8000   20.3700   27.1900 N.4       4 LYS4        0.0000 
     51 CZ         29.3900   18.6400   20.1400 C.ar      5 PHE5        0.0000 
     52 CZ         29.2300   14.0900   26.1000 C.ar      5 PHE5        0.0000 
     53 CZ         32.9000   17.5600   20.1700 C.ar      5 PHE5        0.0000 
     54 CZ         31.9700   18.7000   19.8800 C.ar      5 PHE5        0.0000 
     55 CZ         30.3100   19.5700   20.8800 C.ar      5 PHE5        0.0000 
     56 CZ         30.1500   15.0200   26.8400 C.ar      5 PHE5        0.0000 
     57 CZ         29.4100   14.7400   28.1100 C.ar      5 PHE5        0.0000 
     58 CZ         28.4900   15.8900   27.8300 C.ar      5 PHE5        0.0000 
     59 CZ         34.7500   17.3400   21.1800 C.ar      5 PHE5        0.0000 
     60 CZ         33.8200   18.4900   20.9000 C.ar      5 PHE5        0.0000 
     61 CZ         33.0900   18.2100   22.1800 C.ar      5 PHE5        0.0000 
     62 CZ         32.1600   19.3500   21.8900 C.ar      5 PHE5        0.0000 
     63 CZ         32.3500   17.9300   23.4600 C.ar      5 PHE5        0.0000 
     64 CZ         31.4300   19.0700   23.1700 C.ar      5 PHE5        0.0000 
     65 CZ         31.6200   17.6500   24.7300 C.ar      5 PHE5        0.0000 
     66 CZ         30.6900   18.8000   24.4500 C.ar      5 PHE5        0.0000 
     67 CZ         30.8800   17.3700   26.0100 C.ar      5 PHE5        0.0000 
     68 CZ         31.0700   15.9500   27.5700 C.ar      5 PHE5        0.0000 
     69 CZ         34.9400   17.9900   23.2000 C.ar      5 PHE5        0.0000 
     70 CZ         34.0100   19.1400   22.9100 C.ar      5 PHE5        0.0000 
     71 CZ         34.2000   17.7100   24.4700 C.ar      5 PHE5        0.0000 
     72 CZ         33.2700   18.8600   24.1900 C.ar      5 PHE5        0.0000 
     73 CZ         33.4600   17.4300   25.7500 C.ar      5 PHE5        0.0000 
     74 CZ         32.5400   18.5800   25.4700 C.ar      5 PHE5        0.0000 
     75 CZ         29.9500   20.5900   26.1800 C.ar      5 PHE5        0.0000 
     76 CZ         29.0200   21.7300   25.8900 C.ar      5 PHE5        0.0000 
     77 CZ         34.9300   20.0600   23.6500 C.ar      5 PHE5        0.0000 
     78 CZ         34.2000   19.7800   24.9200 C.ar      5 PHE5        0.0000 
     79 CZ         33.4600   19.5100   26.2000 C.ar      5 PHE5        0.0000 
     80 CZ         30.8700   21.5200   26.9100 C.ar      5 PHE5        0.0000 
     81 CA         27.3600   16.1400   16.6700 C.3       6 GLY6        0.0000 
     82 CA         31.6000   15.3300   15.4100 C.3       6 GLY6        0.0000 
     83 CA         30.6800   16.4800   15.1300 C.3       6 GLY6        0.0000 
     84 CA         29.7500   17.6300   14.8400 C.3       6 GLY6        0.0000 
     85 CA         29.9400   16.2000   16.4100 C.3       6 GLY6        0.0000 
     86 CA         29.0100   17.3500   16.1200 C.3       6 GLY6        0.0000 
     87 CA         28.2800   17.0700   17.4000 C.3       6 GLY6        0.0000 
     88 CA         27.3500   18.2100   17.1200 C.3       6 GLY6        0.0000 
     89 CA         28.4700   15.6400   18.9600 C.3       6 GLY6        0.0000 
     90 CA         32.5300   16.2600   16.1500 C.3       6 GLY6        0.0000 
     91 CA         31.6000   17.4100   15.8600 C.3       6 GLY6        0.0000 
     92 CA         30.6700   18.5500   15.5800 C.3       6 GLY6        0.0000 
     93 CA         29.9400   18.2700   16.8600 C.3       6 GLY6        0.0000 
     94 CA         29.2000   18.0000   18.1300 C.3       6 GLY6        0.0000 
     95 CA         28.2800   19.1400   17.8500 C.3       6 GLY6        0.0000 
     96 CA         31.7900   18.0600   17.8700 C.3       6 GLY6        0.0000 
     97 CA         31.0500   17.7800   19.1500 C.3       6 GLY6        0.0000 
     98 CA         30.1200   18.9200   18.8700 C.3       6 GLY6        0.0000 
     99 CA         29.2000   20.0700   18.5800 C.3       6 GLY6        0.0000 
    100 CA         28.4600   19.7900   19.8600 C.3       6 GLY6        0.0000 
    101 CA         30.1200   21.0000   19.3200 C.3       6 GLY6        0.0000 
    102 CA         29.3900   20.7200   20.5900 C.3       6 GLY6        0.0000 
    103 CA         35.4800   17.6200   19.9100 C.3       6 GLY6        0.0000 
    104 CA         34.5600   18.7700   19.6200 C.3       6 GLY6        0.0000 
    105 CA         28.8400   21.0900   23.8800 C.3       6 GLY6        0.0000 
    106 CA         28.1000   20.8100   25.1600 C.3       6 GLY6        0.0000 
    107 CA         35.6700   18.2700   21.9200 C.3       6 GLY6        0.0000 
    108 DU         31.6100   19.7200   25.1800 H         7 CUB7        0.0000 
@<TRIPOS>BOND
@<TRIPOS>SUBSTRUCTURE
     1 SER1        1 GROUP   
     2 ALA2       23 GROUP   
     3 ASP3       40 GROUP   
     4 LYS4       47 GROUP   
     5 PHE5       51 GROUP   
     6 GLY6       81 GROUP   
     7 CUB7      108 GROUP   
@<TRIPOS>SET

