#    Name: 5obg_4_SY9_CAVITY_N1_12
#    Modification time : Fri May 22 19:15:49 2020

@<TRIPOS>MOLECULE
5obg_4_SY9_CAVITY_N1_12
  117     0     7     0     0
SMALL
NO_CHARGES


@<TRIPOS>ATOM
      1 OG         34.2800   67.8700   28.4300 O.3       1 SER1        0.0000 
      2 OG         32.6200   68.7300   29.4200 O.3       1 SER1        0.0000 
      3 OG         31.8800   68.4500   30.7000 O.3       1 SER1        0.0000 
      4 OG         33.5400   69.6600   30.1600 O.3       1 SER1        0.0000 
      5 OG         33.7300   70.3100   32.1700 O.3       1 SER1        0.0000 
      6 OG         32.9900   70.0300   33.4400 O.3       1 SER1        0.0000 
      7 OG         29.6700   71.7600   35.4300 O.3       1 SER1        0.0000 
      8 OG         32.6100   77.0300   31.2200 O.3       1 SER1        0.0000 
      9 N          30.9600   67.5300   29.9600 N.am      2 ALA2        0.0000 
     10 N          30.7700   71.0200   28.8500 N.am      2 ALA2        0.0000 
     11 N          29.8400   72.1700   28.5700 N.am      2 ALA2        0.0000 
     12 O          28.9100   73.3200   28.2900 O.2       2 ALA2        0.0000 
     13 N          30.9600   69.6000   30.4200 N.am      2 ALA2        0.0000 
     14 N          30.0300   70.7500   30.1300 N.am      2 ALA2        0.0000 
     15 N          29.1100   71.8900   29.8500 N.am      2 ALA2        0.0000 
     16 N          31.1500   68.1800   31.9800 N.am      2 ALA2        0.0000 
     17 N          30.2200   69.3200   31.6900 N.am      2 ALA2        0.0000 
     18 N          29.3000   70.4700   31.4100 N.am      2 ALA2        0.0000 
     19 N          28.3700   71.6100   31.1300 N.am      2 ALA2        0.0000 
     20 N          29.4900   69.0400   32.9700 N.am      2 ALA2        0.0000 
     21 N          28.5600   70.1900   32.6900 N.am      2 ALA2        0.0000 
     22 N          27.6300   71.3300   32.4000 N.am      2 ALA2        0.0000 
     23 N          30.0200   76.9600   31.4800 N.am      2 ALA2        0.0000 
     24 OD1        30.5800   72.4500   27.2900 O.co2     3 ASP3        0.0000 
     25 OD1        32.9700   73.9300   25.4700 O.co2     3 ASP3        0.0000 
     26 OD1        32.0400   75.0800   25.1900 O.co2     3 ASP3        0.0000 
     27 OD1        32.2300   73.6600   26.7500 O.co2     3 ASP3        0.0000 
     28 OD1        31.3100   74.8000   26.4700 O.co2     3 ASP3        0.0000 
     29 OD1        35.2000   68.7900   29.1600 O.co2     3 ASP3        0.0000 
     30 OD1        31.5000   73.3800   28.0300 O.co2     3 ASP3        0.0000 
     31 OD1        30.5700   74.5200   27.7500 O.co2     3 ASP3        0.0000 
     32 OD1        35.2000   70.8700   29.6100 O.co2     3 ASP3        0.0000 
     33 OD1        34.4700   70.5900   30.8900 O.co2     3 ASP3        0.0000 
     34 OD1        36.1200   71.8000   30.3500 O.co2     3 ASP3        0.0000 
     35 NZ         28.7500   70.8400   34.7000 N.4       4 LYS4        0.0000 
     36 NZ         32.9700   76.0100   25.9200 N.4       4 LYS4        0.0000 
     37 NZ         32.0400   77.1500   25.6400 N.4       4 LYS4        0.0000 
     38 NZ         32.2300   75.7300   27.2000 N.4       4 LYS4        0.0000 
     39 NZ         31.5000   75.4500   28.4800 N.4       4 LYS4        0.0000 
     40 NZ         34.0800   75.5100   28.2200 N.4       4 LYS4        0.0000 
     41 NZ         33.3400   75.2300   29.5000 N.4       4 LYS4        0.0000 
     42 NZ         32.4200   76.3800   29.2100 N.4       4 LYS4        0.0000 
     43 NZ         31.6800   76.1000   30.4900 N.4       4 LYS4        0.0000 
     44 NZ         34.0800   77.5800   28.6700 N.4       4 LYS4        0.0000 
     45 NZ         33.3400   77.3000   29.9500 N.4       4 LYS4        0.0000 
     46 CZ         30.4100   67.9000   33.2500 C.ar      5 PHE5        0.0000 
     47 CZ         28.7500   68.7600   34.2500 C.ar      5 PHE5        0.0000 
     48 CZ         31.3400   68.8200   33.9900 C.ar      5 PHE5        0.0000 
     49 CZ         28.5600   72.2600   33.1400 C.ar      5 PHE5        0.0000 
     50 CZ         27.8200   71.9800   34.4100 C.ar      5 PHE5        0.0000 
     51 CZ         32.8000   71.4600   31.8800 C.ar      5 PHE5        0.0000 
     52 CZ         31.8800   72.6000   31.6000 C.ar      5 PHE5        0.0000 
     53 CZ         30.9500   73.7500   31.3200 C.ar      5 PHE5        0.0000 
     54 CZ         32.0700   71.1800   33.1600 C.ar      5 PHE5        0.0000 
     55 CZ         31.1400   72.3200   32.8800 C.ar      5 PHE5        0.0000 
     56 CZ         30.2200   73.4700   32.5900 C.ar      5 PHE5        0.0000 
     57 CZ         29.2900   74.6100   32.3100 C.ar      5 PHE5        0.0000 
     58 CZ         31.3300   70.9000   34.4400 C.ar      5 PHE5        0.0000 
     59 CZ         30.4100   72.0400   34.1500 C.ar      5 PHE5        0.0000 
     60 CZ         29.4800   73.1900   33.8700 C.ar      5 PHE5        0.0000 
     61 CZ         34.4600   72.6600   31.3400 C.ar      5 PHE5        0.0000 
     62 CZ         33.5400   73.8100   31.0600 C.ar      5 PHE5        0.0000 
     63 CZ         32.6100   74.9500   30.7700 C.ar      5 PHE5        0.0000 
     64 CZ         34.6500   71.2400   32.9000 C.ar      5 PHE5        0.0000 
     65 CZ         31.8700   74.6700   32.0500 C.ar      5 PHE5        0.0000 
     66 CZ         33.5300   75.8800   31.5100 C.ar      5 PHE5        0.0000 
     67 CA         32.4300   68.0900   27.4100 C.3       6 GLY6        0.0000 
     68 CA         31.7000   67.8100   28.6900 C.3       6 GLY6        0.0000 
     69 CA         30.7700   68.9500   28.4000 C.3       6 GLY6        0.0000 
     70 CA         34.0900   69.2900   26.8700 C.3       6 GLY6        0.0000 
     71 CA         33.1600   70.4400   26.5800 C.3       6 GLY6        0.0000 
     72 CA         32.2400   71.5800   26.3000 C.3       6 GLY6        0.0000 
     73 CA         33.3600   69.0100   28.1400 C.3       6 GLY6        0.0000 
     74 CA         32.4300   70.1600   27.8600 C.3       6 GLY6        0.0000 
     75 CA         31.5000   71.3000   27.5800 C.3       6 GLY6        0.0000 
     76 CA         28.1800   73.0400   29.5700 C.3       6 GLY6        0.0000 
     77 CA         33.9000   72.7900   25.7600 C.3       6 GLY6        0.0000 
     78 CA         35.0100   70.2200   27.6000 C.3       6 GLY6        0.0000 
     79 CA         34.0900   71.3600   27.3200 C.3       6 GLY6        0.0000 
     80 CA         34.2800   69.9400   28.8800 C.3       6 GLY6        0.0000 
     81 CA         29.8400   74.2400   29.0200 C.3       6 GLY6        0.0000 
     82 CA         29.1000   73.9600   30.3000 C.3       6 GLY6        0.0000 
     83 CA         28.3700   73.6800   31.5800 C.3       6 GLY6        0.0000 
     84 CA         34.8200   73.7200   26.4900 C.3       6 GLY6        0.0000 
     85 CA         35.0100   72.2900   28.0500 C.3       6 GLY6        0.0000 
     86 CA         30.7600   75.1700   29.7600 C.3       6 GLY6        0.0000 
     87 CA         29.8300   76.3200   29.4700 C.3       6 GLY6        0.0000 
     88 CA         30.0200   74.8900   31.0300 C.3       6 GLY6        0.0000 
     89 CA         29.1000   76.0400   30.7500 C.3       6 GLY6        0.0000 
     90 CA         30.7600   77.2400   30.2100 C.3       6 GLY6        0.0000 
     91 CA         30.9500   75.8200   31.7700 C.3       6 GLY6        0.0000 
     92 CA         34.2700   76.1600   30.2300 C.3       6 GLY6        0.0000 
     93 DU         31.6900   69.8800   29.1400 H         7 CUB7        0.0000 
     94 DU         33.1600   72.5100   27.0300 H         7 CUB7        0.0000 
     95 DU         33.3500   71.0900   28.5900 H         7 CUB7        0.0000 
     96 DU         32.4300   72.2300   28.3100 H         7 CUB7        0.0000 
     97 DU         31.6900   71.9500   29.5900 H         7 CUB7        0.0000 
     98 DU         30.7600   73.1000   29.3100 H         7 CUB7        0.0000 
     99 DU         32.8100   69.3800   31.4300 H         7 CUB7        0.0000 
    100 DU         31.8800   70.5300   31.1500 H         7 CUB7        0.0000 
    101 DU         30.9500   71.6700   30.8700 H         7 CUB7        0.0000 
    102 DU         30.0300   72.8200   30.5800 H         7 CUB7        0.0000 
    103 DU         32.0700   69.1000   32.7100 H         7 CUB7        0.0000 
    104 DU         31.1500   70.2500   32.4300 H         7 CUB7        0.0000 
    105 DU         30.2200   71.3900   32.1400 H         7 CUB7        0.0000 
    106 DU         29.2900   72.5400   31.8600 H         7 CUB7        0.0000 
    107 DU         30.4100   69.9700   33.7000 H         7 CUB7        0.0000 
    108 DU         29.4800   71.1200   33.4200 H         7 CUB7        0.0000 
    109 DU         33.8900   74.8600   26.2100 H         7 CUB7        0.0000 
    110 DU         34.0800   73.4400   27.7700 H         7 CUB7        0.0000 
    111 DU         33.1600   74.5800   27.4800 H         7 CUB7        0.0000 
    112 DU         34.2700   72.0100   29.3300 H         7 CUB7        0.0000 
    113 DU         32.4200   74.3000   28.7600 H         7 CUB7        0.0000 
    114 DU         33.5400   71.7300   30.6100 H         7 CUB7        0.0000 
    115 DU         32.6100   72.8800   30.3200 H         7 CUB7        0.0000 
    116 DU         31.6900   74.0200   30.0400 H         7 CUB7        0.0000 
    117 DU         34.2700   74.0900   29.7800 H         7 CUB7        0.0000 
@<TRIPOS>BOND
@<TRIPOS>SUBSTRUCTURE
     1 SER1        1 GROUP   
     2 ALA2        9 GROUP   
     3 ASP3       24 GROUP   
     4 LYS4       35 GROUP   
     5 PHE5       46 GROUP   
     6 GLY6       67 GROUP   
     7 CUB7       93 GROUP   
@<TRIPOS>SET

