#    Name: 5obg_2_SY9
#    Modification time : Fri May 22 19:15:40 2020

@<TRIPOS>MOLECULE
5obg_2_SY9
   25    31     1     0     0
SMALL
NO_CHARGES


@<TRIPOS>ATOM
      1 CAV         1.7370   26.6190   25.1340 C.3       1 SY9601      0.0000 
      2 CAU         1.2550   26.8340   26.5580 C.3       1 SY9601      0.0000 
      3 CAT         1.3560   28.3260   26.8840 C.3       1 SY9601      0.0000 
      4 CAN         0.2840   29.0180   26.0340 C.3       1 SY9601      0.0000 
      5 CAK         0.4760   28.8130   24.5300 C.3       1 SY9601      0.0000 
      6 NAH        -0.8690   28.9930   23.9110 N.am      1 SY9601      0.0000 
      7 CAA        -1.3300   27.7500   23.4140 C.ar      1 SY9601      0.0000 
      8 CAF        -2.5680   27.4400   22.8500 C.ar      1 SY9601      0.0000 
      9 CAE        -2.7900   26.1370   22.4370 C.ar      1 SY9601      0.0000 
     10 CAD        -1.8050   25.1560   22.6080 C.ar      1 SY9601      0.0000 
     11 CAC        -0.5820   25.4730   23.1710 C.ar      1 SY9601      0.0000 
     12 CAB        -0.3350   26.7840   23.5590 C.ar      1 SY9601      0.0000 
     13 CAG         0.9450   27.4070   24.0540 C.3       1 SY9601      0.0000 
     14 CAW         1.9930   27.5050   22.9270 C.3       1 SY9601      0.0000 
     15 CAX         3.2770   27.7760   23.7000 C.3       1 SY9601      0.0000 
     16 NAY         3.1650   27.0160   24.9620 N.4       1 SY9601      0.0000 
     17 CAS         3.7160   27.7380   26.1350 C.3       1 SY9601      0.0000 
     18 CAR         2.7730   28.8070   26.6270 C.2       1 SY9601      0.0000 
     19 CAQ         3.1290   30.0650   26.7750 C.2       1 SY9601      0.0000 
     20 CAP         2.1560   31.1290   27.1780 C.3       1 SY9601      0.0000 
     21 OAO         1.1760   31.3390   26.1560 O.3       1 SY9601      0.0000 
     22 CAM         0.0170   30.5060   26.2620 C.3       1 SY9601      0.0000 
     23 CAL        -0.9540   31.0390   25.2140 C.3       1 SY9601      0.0000 
     24 CAI        -1.6610   30.0220   24.3530 C.2       1 SY9601      0.0000 
     25 OAJ        -2.8600   30.0950   24.1140 O.2       1 SY9601      0.0000 
@<TRIPOS>BOND
     1    1    2 1    
     2    1   13 1    
     3    1   16 1    
     4    2    3 1    
     5    3    4 1    
     6    3   18 1    
     7    4    5 1    
     8    4   22 1    
     9    5    6 1    
    10    5   13 1    
    11    6    7 1    
    12    6   24 am   
    13    7    8 ar   
    14    7   12 ar   
    15    8    9 ar   
    16    9   10 ar   
    17   10   11 ar   
    18   11   12 ar   
    19   12   13 1    
    20   13   14 1    
    21   14   15 1    
    22   15   16 1    
    23   16   17 1    
    24   17   18 1    
    25   18   19 2    
    26   19   20 1    
    27   20   21 1    
    28   21   22 1    
    29   22   23 1    
    30   23   24 1    
    31   24   25 2    
@<TRIPOS>SUBSTRUCTURE
     1 SY9601      1 GROUP   
@<TRIPOS>SET

