#    Name: 5obg_5_SY9_CAVITY_N1_12
#    Modification time : Fri May 22 19:15:56 2020

@<TRIPOS>MOLECULE
5obg_5_SY9_CAVITY_N1_12
  126     0     7     0     0
SMALL
NO_CHARGES


@<TRIPOS>ATOM
      1 OG         49.4700   42.3000   26.3100 O.3       1 SER1        0.0000 
      2 OG         48.5500   43.4500   26.0200 O.3       1 SER1        0.0000 
      3 OG         48.7400   42.0300   27.5800 O.3       1 SER1        0.0000 
      4 OG         47.8100   43.1700   27.3000 O.3       1 SER1        0.0000 
      5 OG         50.5900   41.8100   28.6000 O.3       1 SER1        0.0000 
      6 OG         49.6600   42.9500   28.3200 O.3       1 SER1        0.0000 
      7 OG         49.8500   43.6000   30.3300 O.3       1 SER1        0.0000 
      8 OG         54.0700   48.7700   21.5600 O.3       1 SER1        0.0000 
      9 N          46.8900   44.3200   27.0200 N.am      2 ALA2        0.0000 
     10 N          48.5400   45.5200   26.4800 N.am      2 ALA2        0.0000 
     11 N          47.8100   45.2400   27.7500 N.am      2 ALA2        0.0000 
     12 N          47.0700   44.9700   29.0300 N.am      2 ALA2        0.0000 
     13 N          50.2000   46.7300   25.9300 N.am      2 ALA2        0.0000 
     14 N          49.4700   46.4500   27.2100 N.am      2 ALA2        0.0000 
     15 N          48.7300   46.1700   28.4900 N.am      2 ALA2        0.0000 
     16 N          48.0000   45.8900   29.7600 N.am      2 ALA2        0.0000 
     17 N          50.2000   48.8000   26.3800 N.am      2 ALA2        0.0000 
     18 N          49.4600   48.5200   27.6600 N.am      2 ALA2        0.0000 
     19 N          48.7300   48.2400   28.9400 N.am      2 ALA2        0.0000 
     20 N          55.5600   47.5000   27.4200 N.am      2 ALA2        0.0000 
     21 N          54.6300   48.6500   27.1400 N.am      2 ALA2        0.0000 
     22 OD1        51.8800   39.6400   23.5900 O.co2     3 ASP3        0.0000 
     23 OD1        50.2100   40.5100   24.5800 O.co2     3 ASP3        0.0000 
     24 OD1        52.8000   40.5700   24.3200 O.co2     3 ASP3        0.0000 
     25 OD1        52.0600   40.2900   25.6000 O.co2     3 ASP3        0.0000 
     26 OD1        51.1400   41.4400   25.3100 O.co2     3 ASP3        0.0000 
     27 OD1        53.1500   45.7700   20.3700 O.co2     3 ASP3        0.0000 
     28 OD1        52.4100   45.4900   21.6500 O.co2     3 ASP3        0.0000 
     29 OD1        53.9100   40.0800   26.6100 O.co2     3 ASP3        0.0000 
     30 OD1        54.0700   46.7000   21.1100 O.co2     3 ASP3        0.0000 
     31 OD1        53.3400   46.4200   22.3800 O.co2     3 ASP3        0.0000 
     32 OD1        52.6000   46.1400   23.6600 O.co2     3 ASP3        0.0000 
     33 OD1        51.6700   47.2900   23.3800 O.co2     3 ASP3        0.0000 
     34 OD1        57.3900   47.0400   19.5700 O.co2     3 ASP3        0.0000 
     35 NZ         53.8900   43.9800   18.6400 N.4       4 LYS4        0.0000 
     36 NZ         52.9600   45.1200   18.3600 N.4       4 LYS4        0.0000 
     37 NZ         55.5500   45.1900   18.1000 N.4       4 LYS4        0.0000 
     38 NZ         54.8100   44.9100   19.3800 N.4       4 LYS4        0.0000 
     39 NZ         53.8800   46.0500   19.1000 N.4       4 LYS4        0.0000 
     40 NZ         55.5400   47.2600   18.5500 N.4       4 LYS4        0.0000 
     41 NZ         55.7300   45.8300   20.1100 N.4       4 LYS4        0.0000 
     42 NZ         54.8100   46.9800   19.8300 N.4       4 LYS4        0.0000 
     43 NZ         53.8800   48.1200   19.5500 N.4       4 LYS4        0.0000 
     44 NZ         55.0000   45.5500   21.3900 N.4       4 LYS4        0.0000 
     45 NZ         55.1900   44.1300   22.9500 N.4       4 LYS4        0.0000 
     46 NZ         54.2600   45.2800   22.6700 N.4       4 LYS4        0.0000 
     47 NZ         55.7300   47.9100   20.5600 N.4       4 LYS4        0.0000 
     48 NZ         54.9900   47.6300   21.8400 N.4       4 LYS4        0.0000 
     49 NZ         55.1800   46.2000   23.4000 N.4       4 LYS4        0.0000 
     50 NZ         54.2600   47.3500   23.1200 N.4       4 LYS4        0.0000 
     51 NZ         55.3700   44.7800   24.9600 N.4       4 LYS4        0.0000 
     52 NZ         54.4500   45.9200   24.6800 N.4       4 LYS4        0.0000 
     53 NZ         55.1800   48.2800   23.8500 N.4       4 LYS4        0.0000 
     54 NZ         56.3000   45.7100   25.6900 N.4       4 LYS4        0.0000 
     55 CZ         48.0000   41.7500   28.8600 C.ar      5 PHE5        0.0000 
     56 CZ         46.1500   44.0400   28.3000 C.ar      5 PHE5        0.0000 
     57 CZ         52.9800   41.2200   26.3300 C.ar      5 PHE5        0.0000 
     58 CZ         52.0600   42.3700   26.0500 C.ar      5 PHE5        0.0000 
     59 CZ         51.3200   42.0900   27.3200 C.ar      5 PHE5        0.0000 
     60 CZ         50.4000   43.2300   27.0400 C.ar      5 PHE5        0.0000 
     61 CZ         48.9300   42.6700   29.6000 C.ar      5 PHE5        0.0000 
     62 CZ         48.0000   43.8200   29.3100 C.ar      5 PHE5        0.0000 
     63 CZ         47.2600   43.5400   30.5900 C.ar      5 PHE5        0.0000 
     64 CZ         54.6400   42.4300   25.7900 C.ar      5 PHE5        0.0000 
     65 CZ         53.7200   43.5700   25.5000 C.ar      5 PHE5        0.0000 
     66 CZ         52.9800   43.2900   26.7800 C.ar      5 PHE5        0.0000 
     67 CZ         52.0500   44.4400   26.5000 C.ar      5 PHE5        0.0000 
     68 CZ         51.3200   44.1600   27.7800 C.ar      5 PHE5        0.0000 
     69 CZ         50.5800   43.8800   29.0500 C.ar      5 PHE5        0.0000 
     70 CZ         48.1900   44.4700   31.3200 C.ar      5 PHE5        0.0000 
     71 CZ         54.6400   44.5000   26.2400 C.ar      5 PHE5        0.0000 
     72 CZ         53.7100   45.6500   25.9500 C.ar      5 PHE5        0.0000 
     73 CZ         52.9800   45.3700   27.2300 C.ar      5 PHE5        0.0000 
     74 CZ         52.2400   45.0900   28.5100 C.ar      5 PHE5        0.0000 
     75 CZ         51.3200   46.2300   28.2300 C.ar      5 PHE5        0.0000 
     76 CZ         50.5800   45.9500   29.5000 C.ar      5 PHE5        0.0000 
     77 CZ         49.8400   45.6700   30.7800 C.ar      5 PHE5        0.0000 
     78 CZ         52.9700   47.4400   27.6800 C.ar      5 PHE5        0.0000 
     79 CZ         52.2400   47.1600   28.9600 C.ar      5 PHE5        0.0000 
     80 CZ         51.3100   48.3100   28.6800 C.ar      5 PHE5        0.0000 
     81 CZ         51.5000   46.8800   30.2400 C.ar      5 PHE5        0.0000 
     82 CZ         50.5800   48.0300   29.9500 C.ar      5 PHE5        0.0000 
     83 CA         50.9500   40.7900   23.3000 C.3       6 GLY6        0.0000 
     84 CA         49.2900   41.6600   24.3000 C.3       6 GLY6        0.0000 
     85 CA         52.2300   44.8400   19.6400 C.3       6 GLY6        0.0000 
     86 CA         50.4000   41.1600   26.5900 C.3       6 GLY6        0.0000 
     87 CA         47.0800   42.8900   28.5800 C.3       6 GLY6        0.0000 
     88 CA         54.8000   49.0500   20.2800 C.3       6 GLY6        0.0000 
     89 CA         53.3300   48.4900   22.8300 C.3       6 GLY6        0.0000 
     90 CA         56.3000   43.6300   25.2400 C.3       6 GLY6        0.0000 
     91 CA         53.5200   47.0700   24.3900 C.3       6 GLY6        0.0000 
     92 CA         52.6000   48.2200   24.1100 C.3       6 GLY6        0.0000 
     93 CA         55.5700   43.3500   26.5200 C.3       6 GLY6        0.0000 
     94 CA         51.8600   47.9400   25.3900 C.3       6 GLY6        0.0000 
     95 CA         55.3700   46.8500   25.4100 C.3       6 GLY6        0.0000 
     96 CA         54.4400   48.0000   25.1300 C.3       6 GLY6        0.0000 
     97 CA         55.5600   45.4300   26.9700 C.3       6 GLY6        0.0000 
     98 CA         54.6400   46.5700   26.6900 C.3       6 GLY6        0.0000 
     99 CA         53.7100   47.7200   26.4100 C.3       6 GLY6        0.0000 
    100 CA         52.7800   48.8600   26.1200 C.3       6 GLY6        0.0000 
    101 CA         52.0500   48.5800   27.4000 C.3       6 GLY6        0.0000 
    102 CA         55.3700   48.9200   25.8600 C.3       6 GLY6        0.0000 
    103 DU         54.0800   42.5500   20.2000 H         7 CUB7        0.0000 
    104 DU         53.1500   43.7000   19.9200 H         7 CUB7        0.0000 
    105 DU         51.8700   41.7200   24.0400 H         7 CUB7        0.0000 
    106 DU         50.2100   42.5800   25.0300 H         7 CUB7        0.0000 
    107 DU         54.0700   44.6300   20.6600 H         7 CUB7        0.0000 
    108 DU         53.3400   44.3500   21.9300 H         7 CUB7        0.0000 
    109 DU         53.7200   41.5000   25.0500 H         7 CUB7        0.0000 
    110 DU         52.7900   42.6400   24.7700 H         7 CUB7        0.0000 
    111 DU         50.9400   44.9400   24.2000 H         7 CUB7        0.0000 
    112 DU         51.1300   43.5100   25.7600 H         7 CUB7        0.0000 
    113 DU         49.4700   44.3800   26.7600 H         7 CUB7        0.0000 
    114 DU         48.7400   44.1000   28.0400 H         7 CUB7        0.0000 
    115 DU         54.4500   43.8500   24.2300 H         7 CUB7        0.0000 
    116 DU         53.5300   45.0000   23.9400 H         7 CUB7        0.0000 
    117 DU         52.7900   44.7200   25.2200 H         7 CUB7        0.0000 
    118 DU         51.1300   45.5800   26.2100 H         7 CUB7        0.0000 
    119 DU         50.3900   45.3100   27.4900 H         7 CUB7        0.0000 
    120 DU         49.6600   45.0300   28.7700 H         7 CUB7        0.0000 
    121 DU         48.9200   44.7500   30.0500 H         7 CUB7        0.0000 
    122 DU         52.7900   46.7900   25.6700 H         7 CUB7        0.0000 
    123 DU         52.0500   46.5100   26.9500 H         7 CUB7        0.0000 
    124 DU         51.1200   47.6600   26.6700 H         7 CUB7        0.0000 
    125 DU         50.3900   47.3800   27.9400 H         7 CUB7        0.0000 
    126 DU         49.6500   47.1000   29.2200 H         7 CUB7        0.0000 
@<TRIPOS>BOND
@<TRIPOS>SUBSTRUCTURE
     1 SER1        1 GROUP   
     2 ALA2        9 GROUP   
     3 ASP3       22 GROUP   
     4 LYS4       35 GROUP   
     5 PHE5       55 GROUP   
     6 GLY6       83 GROUP   
     7 CUB7      103 GROUP   
@<TRIPOS>SET

