#    Name: 5obg_1_SY9
#    Modification time : Fri May 22 19:15:33 2020

@<TRIPOS>MOLECULE
5obg_1_SY9
   25    31     1     0     0
SMALL
NO_CHARGES


@<TRIPOS>ATOM
      1 CAV        33.8590   19.4330   24.8480 C.3       1 SY9601      0.0000 
      2 CAU        32.8830   18.4170   25.4170 C.3       1 SY9601      0.0000 
      3 CAT        31.4740   19.0270   25.4150 C.3       1 SY9601      0.0000 
      4 CAN        31.0700   19.1320   23.9390 C.3       1 SY9601      0.0000 
      5 CAK        31.9810   20.0880   23.1730 C.3       1 SY9601      0.0000 
      6 NAH        31.8070   19.7760   21.7350 N.am      1 SY9601      0.0000 
      7 CAA        32.9920   19.2360   21.2170 C.ar      1 SY9601      0.0000 
      8 CAF        33.1970   18.6790   19.9530 C.ar      1 SY9601      0.0000 
      9 CAE        34.3040   17.8700   19.7770 C.ar      1 SY9601      0.0000 
     10 CAD        35.2030   17.6520   20.8250 C.ar      1 SY9601      0.0000 
     11 CAC        35.0260   18.2730   22.0500 C.ar      1 SY9601      0.0000 
     12 CAB        33.9210   19.0870   22.2420 C.ar      1 SY9601      0.0000 
     13 CAG        33.5080   19.9370   23.4220 C.3       1 SY9601      0.0000 
     14 CAW        34.1880   21.3170   23.4330 C.3       1 SY9601      0.0000 
     15 CAX        33.8900   21.8400   24.8300 C.3       1 SY9601      0.0000 
     16 NAY        33.9140   20.6650   25.7020 N.4       1 SY9601      0.0000 
     17 CAS        32.8460   20.7130   26.7150 C.3       1 SY9601      0.0000 
     18 CAR        31.5080   20.3650   26.1240 C.2       1 SY9601      0.0000 
     19 CAQ        30.4690   21.1800   26.1610 C.2       1 SY9601      0.0000 
     20 CAP        29.1340   20.8320   25.5770 C.3       1 SY9601      0.0000 
     21 OAO        29.1870   20.7630   24.1370 O.3       1 SY9601      0.0000 
     22 CAM        29.6130   19.5040   23.6080 C.3       1 SY9601      0.0000 
     23 CAL        29.3910   19.6030   22.0560 C.3       1 SY9601      0.0000 
     24 CAI        30.5790   19.7880   21.1360 C.2       1 SY9601      0.0000 
     25 OAJ        30.4400   19.9430   19.9220 O.2       1 SY9601      0.0000 
@<TRIPOS>BOND
     1    1    2 1    
     2    1   13 1    
     3    1   16 1    
     4    2    3 1    
     5    3    4 1    
     6    3   18 1    
     7    4    5 1    
     8    4   22 1    
     9    5    6 1    
    10    5   13 1    
    11    6    7 1    
    12    6   24 am   
    13    7    8 ar   
    14    7   12 ar   
    15    8    9 ar   
    16    9   10 ar   
    17   10   11 ar   
    18   11   12 ar   
    19   12   13 1    
    20   13   14 1    
    21   14   15 1    
    22   15   16 1    
    23   16   17 1    
    24   17   18 1    
    25   18   19 2    
    26   19   20 1    
    27   20   21 1    
    28   21   22 1    
    29   22   23 1    
    30   23   24 1    
    31   24   25 2    
@<TRIPOS>SUBSTRUCTURE
     1 SY9601      1 GROUP   
@<TRIPOS>SET

