#    Name: 5zba_1_COA
#    Modification time : Fri May 22 19:23:31 2020

@<TRIPOS>MOLECULE
5zba_1_COA
   48    50     1     0     1
SMALL
NO_CHARGES


@<TRIPOS>ATOM
      1 N1A       -16.0110   37.3690   29.6190 N.ar      1 COA601      0.0000 
      2 C2A       -15.7650   36.1450   30.0890 C.ar      1 COA601      0.0000 
      3 N3A       -15.4390   35.1340   29.2900 N.ar      1 COA601      0.0000 
      4 C4A       -15.3430   35.3140   27.9420 C.ar      1 COA601      0.0000 
      5 C5A       -15.5920   36.5850   27.3930 C.ar      1 COA601      0.0000 
      6 C6A       -15.9390   37.6380   28.2990 C.ar      1 COA601      0.0000 
      7 N6A       -16.2060   38.9590   27.8100 N.pl3     1 COA601      0.0000 
      8 N7A       -15.4220   36.4610   26.0420 N.2       1 COA601      0.0000 
      9 C8A       -15.0890   35.1950   25.7710 C.2       1 COA601      0.0000 
     10 N9A       -15.0350   34.4780   26.8990 N.pl3     1 COA601      0.0000 
     11 C1B       -14.6970   33.0430   26.9990 C.3       1 COA601      0.0000 
     12 C2B       -15.4940   32.2310   25.9510 C.3       1 COA601      0.0000 
     13 O2B       -16.6730   31.6670   26.5420 O.3       1 COA601      0.0000 
     14 C3B       -14.5170   31.1110   25.5340 C.3       1 COA601      0.0000 
     15 O3B       -14.8260   29.8830   26.2650 O.3       1 COA601      0.0000 
     16 P3B       -13.8640   28.6170   26.1310 P.3       1 COA601      0.0000 
     17 O7A       -12.8840   28.6070   27.2870 O.co2     1 COA601      0.0000 
     18 O8A       -13.1100   28.6680   24.8170 O.co2     1 COA601      0.0000 
     19 O9A       -14.6920   27.3540   26.1750 O.co2     1 COA601      0.0000 
     20 C4B       -13.1220   31.6400   25.9230 C.3       1 COA601      0.0000 
     21 O4B       -13.3010   32.8580   26.6850 O.3       1 COA601      0.0000 
     22 C5B       -12.2800   31.9220   24.6390 C.3       1 COA601      0.0000 
     23 O5B       -12.9670   32.8940   23.8260 O.3       1 COA601      0.0000 
     24 P1A       -12.2290   33.4520   22.4990 P.3       1 COA601      0.0000 
     25 O1A       -12.9380   32.9590   21.2550 O.co2     1 COA601      0.0000 
     26 O2A       -10.7990   32.9660   22.4770 O.co2     1 COA601      0.0000 
     27 O3A       -12.2470   35.0560   22.5040 O.3       1 COA601      0.0000 
     28 P2A       -11.5560   35.9460   23.6410 P.3       1 COA601      0.0000 
     29 O4A       -11.0160   35.0480   24.7320 O.co2     1 COA601      0.0000 
     30 O5A       -12.5840   36.8930   24.2260 O.co2     1 COA601      0.0000 
     31 O6A       -10.3600   36.7860   23.0000 O.3       1 COA601      0.0000 
     32 CBP        -7.9970   37.0750   22.6940 C.3       1 COA601      0.0000 
     33 CCP        -9.1910   36.1140   22.5300 C.3       1 COA601      0.0000 
     34 CDP        -6.9950   36.4760   23.6790 C.3       1 COA601      0.0000 
     35 CEP        -7.3220   37.2860   21.3300 C.3       1 COA601      0.0000 
     36 CAP        -8.5380   38.4040   23.2500 C.3       1 COA601      0.0000 
     37 OAP        -8.9820   38.1900   24.5530 O.3       1 COA601      0.0000 
     38 C9P        -7.5010   39.5240   23.2570 C.2       1 COA601      0.0000 
     39 O9P        -7.4430   40.3000   22.3190 O.2       1 COA601      0.0000 
     40 N8P        -6.6090   39.6810   24.3960 N.am      1 COA601      0.0000 
     41 C7P        -5.6220   40.7450   24.4370 C.3       1 COA601      0.0000 
     42 C6P        -4.5260   40.5340   23.3690 C.3       1 COA601      0.0000 
     43 C5P        -3.4960   39.4260   23.6220 C.2       1 COA601      0.0000 
     44 O5P        -3.3440   38.9860   24.7500 O.2       1 COA601      0.0000 
     45 N4P        -2.7170   38.9000   22.5290 N.am      1 COA601      0.0000 
     46 C3P        -1.7560   37.8570   22.7840 C.3       1 COA601      0.0000 
     47 C2P        -1.1800   37.3080   21.4750 C.3       1 COA601      0.0000 
     48 S1P         0.0460   36.0750   21.8460 S.3       1 COA601      0.0000 
@<TRIPOS>BOND
     1    1    2 ar   
     2    1    6 ar   
     3    2    3 ar   
     4    3    4 ar   
     5    4    5 ar   
     6    4   10 1    
     7    5    6 ar   
     8    5    8 1    
     9    6    7 1    
    10    8    9 2    
    11    9   10 1    
    12   10   11 1    
    13   11   12 1    
    14   11   21 1    
    15   12   13 1    
    16   12   14 1    
    17   14   15 1    
    18   14   20 1    
    19   15   16 1    
    20   16   17 ar   
    21   16   18 ar   
    22   16   19 ar   
    23   20   21 1    
    24   20   22 1    
    25   22   23 1    
    26   23   24 1    
    27   24   25 ar   
    28   24   26 ar   
    29   24   27 1    
    30   27   28 1    
    31   28   29 ar   
    32   28   30 ar   
    33   28   31 1    
    34   31   33 1    
    35   32   33 1    
    36   32   34 1    
    37   32   35 1    
    38   32   36 1    
    39   36   37 1    
    40   36   38 1    
    41   38   39 2    
    42   38   40 am   
    43   40   41 1    
    44   41   42 1    
    45   42   43 1    
    46   43   44 2    
    47   43   45 am   
    48   45   46 1    
    49   46   47 1    
    50   47   48 1    
@<TRIPOS>SUBSTRUCTURE
     1 COA601      1 GROUP   
@<TRIPOS>SET
ATOM$ORANGE STATIC     ATOMS   COLORGROUP SYSTEM 
42 2 2 4 4 5 5 6 6 9 9 11 11 12 12 14 14 20 \
20 22 22 32 32 33 33 34 34 35 35 36 36 38 38 41 41 42 \
42 43 43 46 46 47 47 

