#    Name: 6nwk_1_DEX
#    Modification time : Fri May 22 19:24:42 2020

@<TRIPOS>MOLECULE
6nwk_1_DEX
   57    60     1     0     0
SMALL
NO_CHARGES


@<TRIPOS>ATOM
      1 C1         70.6210  126.0670   11.6780 C.2       1 DEX301      0.0000 
      2 C2         71.5860  125.6640   12.4820 C.2       1 DEX301      0.0000 
      3 C3         71.7350  124.2800   12.8790 C.2       1 DEX301      0.0000 
      4 C4         70.9750  123.3230   12.1010 C.2       1 DEX301      0.0000 
      5 C5         70.0560  123.7090   11.2100 C.2       1 DEX301      0.0000 
      6 C6         69.1940  122.6890   10.5280 C.3       1 DEX301      0.0000 
      7 C7         67.7000  123.0550   10.7320 C.3       1 DEX301      0.0000 
      8 C8         67.4330  124.4170   10.2640 C.3       1 DEX301      0.0000 
      9 C9         68.3030  125.4270   11.0760 C.3       1 DEX301      0.0000 
     10 C10        69.8250  125.1260   10.8460 C.3       1 DEX301      0.0000 
     11 C11        67.9540  126.9560   10.8570 C.3       1 DEX301      0.0000 
     12 C12        66.4330  127.2050   10.9920 C.3       1 DEX301      0.0000 
     13 C13        65.6110  126.2810   10.0930 C.3       1 DEX301      0.0000 
     14 C14        65.9580  124.8150   10.5060 C.3       1 DEX301      0.0000 
     15 C15        64.8870  123.9900    9.8100 C.3       1 DEX301      0.0000 
     16 C16        63.6070  124.8980    9.8510 C.3       1 DEX301      0.0000 
     17 C17        64.0400  126.2810   10.3590 C.3       1 DEX301      0.0000 
     18 C18        65.8490  126.5860    8.6200 C.3       1 DEX301      0.0000 
     19 C19        70.2360  125.2850    9.4260 C.3       1 DEX301      0.0000 
     20 C20        63.3550  127.4570    9.6360 C.2       1 DEX301      0.0000 
     21 C21        63.2420  128.7900   10.3980 C.3       1 DEX301      0.0000 
     22 C22        62.6020  124.2650   10.7690 C.3       1 DEX301      0.0000 
     23 F1         68.0810  125.2200   12.4050 F         1 DEX301      0.0000 
     24 O1         72.4330  123.9450   13.8160 O.2       1 DEX301      0.0000 
     25 O2         68.4490  127.4500    9.6370 O.3       1 DEX301      0.0000 
     26 O3         63.8290  126.3950   11.7190 O.3       1 DEX301      0.0000 
     27 O4         62.9270  127.3610    8.5080 O.2       1 DEX301      0.0000 
     28 O5         63.1930  129.7770    9.4120 O.3       1 DEX301      0.0000 
     29 H1         70.5320  126.9720   11.4820 H         1 DEX301      0.0000 
     30 H2         72.2090  126.2640   12.8230 H         1 DEX301      0.0000 
     31 H4         71.1060  122.4240   12.3000 H         1 DEX301      0.0000 
     32 H61        69.3630  121.7970   10.8690 H         1 DEX301      0.0000 
     33 H62        69.4260  122.6260    9.5880 H         1 DEX301      0.0000 
     34 H71        67.4290  122.9470   11.6570 H         1 DEX301      0.0000 
     35 H72        67.1440  122.4180   10.2550 H         1 DEX301      0.0000 
     36 H8         67.6710  124.4730    9.3260 H         1 DEX301      0.0000 
     37 H11        68.4120  127.4680   11.5420 H         1 DEX301      0.0000 
     38 H211       66.2160  128.1290   10.7910 H         1 DEX301      0.0000 
     39 H221       66.2000  127.1010   11.9280 H         1 DEX301      0.0000 
     40 H14        65.8020  124.7230   11.4590 H         1 DEX301      0.0000 
     41 H511       64.7400  123.1290   10.2310 H         1 DEX301      0.0000 
     42 H521       65.1410  123.7540    8.9040 H         1 DEX301      0.0000 
     43 H16        63.2320  124.9520    8.9580 H         1 DEX301      0.0000 
     44 H811       66.7290  126.3150    8.3160 H         1 DEX301      0.0000 
     45 H821       65.2640  126.0920    8.0240 H         1 DEX301      0.0000 
     46 H831       65.7680  127.5300    8.4100 H         1 DEX301      0.0000 
     47 H911       71.0540  124.8080    9.2170 H         1 DEX301      0.0000 
     48 H921       69.5580  124.9600    8.8140 H         1 DEX301      0.0000 
     49 H931       70.3810  126.2160    9.1940 H         1 DEX301      0.0000 
     50 H112       62.4530  128.7810   10.9620 H         1 DEX301      0.0000 
     51 H122       64.0040  128.9040   10.9870 H         1 DEX301      0.0000 
     52 H212       62.3410  123.3940   10.4320 H         1 DEX301      0.0000 
     53 H222       62.9450  124.1350   11.6670 H         1 DEX301      0.0000 
     54 H232       61.7910  124.7940   10.8380 H         1 DEX301      0.0000 
     55 HO2        69.1120  127.9580    9.7910 H         1 DEX301      0.0000 
     56 H3         64.1490  127.1440   11.9630 H         1 DEX301      0.0000 
     57 H5         62.3720  129.9670    9.3010 H         1 DEX301      0.0000 
@<TRIPOS>BOND
     1    1    2 2    
     2    1   10 1    
     3    2    3 1    
     4    1   29 1    
     5    3    4 1    
     6    2   30 1    
     7    3   24 2    
     8    4    5 2    
     9    5    6 1    
    10    4   31 1    
    11    5   10 1    
    12    6    7 1    
    13    6   32 1    
    14    6   33 1    
    15    7    8 1    
    16    7   34 1    
    17    7   35 1    
    18    8    9 1    
    19    8   14 1    
    20    8   36 1    
    21    9   10 1    
    22    9   11 1    
    23    9   23 1    
    24   10   19 1    
    25   11   12 1    
    26   11   25 1    
    27   11   37 1    
    28   25   55 1    
    29   12   13 1    
    30   12   38 1    
    31   12   39 1    
    32   13   14 1    
    33   13   17 1    
    34   13   18 1    
    35   14   15 1    
    36   14   40 1    
    37   15   16 1    
    38   15   41 1    
    39   15   42 1    
    40   16   17 1    
    41   16   22 1    
    42   16   43 1    
    43   17   20 1    
    44   17   26 1    
    45   26   56 1    
    46   18   44 1    
    47   18   45 1    
    48   18   46 1    
    49   19   47 1    
    50   19   48 1    
    51   19   49 1    
    52   20   21 1    
    53   20   27 2    
    54   21   28 1    
    55   21   50 1    
    56   21   51 1    
    57   28   57 1    
    58   22   52 1    
    59   22   53 1    
    60   22   54 1    
@<TRIPOS>SUBSTRUCTURE
     1 DEX301      1 GROUP   
@<TRIPOS>SET

