#    Name: 6oiw_1_T8T_CAVITY_N1_6
#    Modification time : Fri May 22 19:27:28 2020

@<TRIPOS>MOLECULE
6oiw_1_T8T_CAVITY_N1_6
  165     0     7     0     0
SMALL
NO_CHARGES


@<TRIPOS>ATOM
      1 OG         57.0600    6.7900   74.3100 O.3       1 SER1        0.0000 
      2 OG         57.0900    5.1700   75.6800 O.3       1 SER1        0.0000 
      3 OG         61.2600    5.8200   73.0500 O.3       1 SER1        0.0000 
      4 OG         60.4400    7.0600   72.9000 O.3       1 SER1        0.0000 
      5 OG         60.4700    5.4400   74.2600 O.3       1 SER1        0.0000 
      6 OG         59.6400    6.6800   74.1100 O.3       1 SER1        0.0000 
      7 OG         62.9800    0.0900   76.0900 O.3       1 SER1        0.0000 
      8 OG         59.6800    5.0600   75.4800 O.3       1 SER1        0.0000 
      9 OG         58.8500    6.3000   75.3300 O.3       1 SER1        0.0000 
     10 OG         58.0200    7.5400   75.1700 O.3       1 SER1        0.0000 
     11 OG         60.5400    2.2000   77.0000 O.3       1 SER1        0.0000 
     12 OG         59.7100    3.4400   76.8500 O.3       1 SER1        0.0000 
     13 OG         62.3300    1.7100   78.0200 O.3       1 SER1        0.0000 
     14 OG         61.5000    2.9500   77.8700 O.3       1 SER1        0.0000 
     15 N          50.4500    1.9100   70.3300 N.am      2 ALA2        0.0000 
     16 N          53.0400    1.8000   70.1300 N.am      2 ALA2        0.0000 
     17 N          52.2500    1.4200   71.3500 N.am      2 ALA2        0.0000 
     18 N          55.1600   12.1500   69.1800 N.am      2 ALA2        0.0000 
     19 N          56.9600   11.6600   70.2000 N.am      2 ALA2        0.0000 
     20 N          56.1300   12.9000   70.0500 N.am      2 ALA2        0.0000 
     21 N          56.1600   11.2800   71.4200 N.am      2 ALA2        0.0000 
     22 N          55.3700   10.9000   72.6300 N.am      2 ALA2        0.0000 
     23 N          54.5400   12.1400   72.4800 N.am      2 ALA2        0.0000 
     24 N          54.5800   10.5200   73.8500 N.am      2 ALA2        0.0000 
     25 O          63.7100    3.7100   72.1400 O.2       2 ALA2        0.0000 
     26 N          62.8800    4.9500   71.9900 N.am      2 ALA2        0.0000 
     27 O          57.1300   12.0300   72.2800 O.2       2 ALA2        0.0000 
     28 O          56.3100   13.2700   72.1300 O.2       2 ALA2        0.0000 
     29 O          57.2000    8.7900   75.0200 O.2       2 ALA2        0.0000 
     30 O          65.4700    4.8400   71.7900 O.2       2 ALA2        0.0000 
     31 O          65.5100    3.2200   73.1600 O.2       2 ALA2        0.0000 
     32 N          63.0300    6.9400   72.7000 N.am      2 ALA2        0.0000 
     33 N          64.7100    2.8400   74.3800 N.am      2 ALA2        0.0000 
     34 O          58.9600    9.9200   74.6700 O.2       2 ALA2        0.0000 
     35 N          68.0600    4.7200   71.6000 N.am      2 ALA2        0.0000 
     36 N          66.4700    3.9700   74.0300 N.am      2 ALA2        0.0000 
     37 O          60.7500    9.4200   75.6900 O.2       2 ALA2        0.0000 
     38 O          59.9600    9.0500   76.9000 O.2       2 ALA2        0.0000 
     39 N          59.1700    8.6700   78.1200 N.am      2 ALA2        0.0000 
     40 O          69.0300    5.4700   72.4600 O.2       2 ALA2        0.0000 
     41 N          68.2400    5.1000   73.6800 N.am      2 ALA2        0.0000 
     42 OD1        51.3900    4.2800   69.8300 O.co2     3 ASP3        0.0000 
     43 OD1        51.4200    2.6600   71.1900 O.co2     3 ASP3        0.0000 
     44 OD1        51.4500    1.0400   72.5600 O.co2     3 ASP3        0.0000 
     45 OD1        52.3900    3.4100   72.0600 O.co2     3 ASP3        0.0000 
     46 OD1        51.5600    4.6600   71.9100 O.co2     3 ASP3        0.0000 
     47 OD1        53.3600    4.1600   72.9300 O.co2     3 ASP3        0.0000 
     48 OD1        52.5300    5.4100   72.7700 O.co2     3 ASP3        0.0000 
     49 OD1        51.7100    6.6500   72.6200 O.co2     3 ASP3        0.0000 
     50 OD1        52.5600    3.7900   74.1400 O.co2     3 ASP3        0.0000 
     51 OD1        53.5300    4.5400   75.0100 O.co2     3 ASP3        0.0000 
     52 OD1        61.2200   -1.0400   76.4400 O.co2     3 ASP3        0.0000 
     53 OD1        63.7400    2.0900   73.5100 O.co2     3 ASP3        0.0000 
     54 OD1        62.9200    3.3300   73.3600 O.co2     3 ASP3        0.0000 
     55 OD1        62.9500    1.7100   74.7200 O.co2     3 ASP3        0.0000 
     56 OD1        62.1200    2.9500   74.5700 O.co2     3 ASP3        0.0000 
     57 OD1        62.1600    1.3300   75.9400 O.co2     3 ASP3        0.0000 
     58 OD1        61.3300    2.5800   75.7900 O.co2     3 ASP3        0.0000 
     59 OD1        61.4100    7.8100   73.7600 O.co2     3 ASP3        0.0000 
     60 OD1        60.5800    9.0500   73.6100 O.co2     3 ASP3        0.0000 
     61 OD1        63.9200    2.4600   75.5900 O.co2     3 ASP3        0.0000 
     62 OD1        59.7900    8.6700   74.8200 O.co2     3 ASP3        0.0000 
     63 OD1        63.1200    2.0800   76.8100 O.co2     3 ASP3        0.0000 
     64 OD1        65.6800    3.5900   75.2400 O.co2     3 ASP3        0.0000 
     65 OD1        64.8900    3.2100   76.4600 O.co2     3 ASP3        0.0000 
     66 OD1        63.2300    5.7000   76.1500 O.co2     3 ASP3        0.0000 
     67 OD1        62.4100    6.9400   76.0000 O.co2     3 ASP3        0.0000 
     68 OD1        61.6100    6.5600   77.2100 O.co2     3 ASP3        0.0000 
     69 OD1        61.7500    8.5500   77.9200 O.co2     3 ASP3        0.0000 
     70 NZ         52.6700    7.4000   73.4800 N.4       4 LYS4        0.0000 
     71 NZ         53.6100    9.7700   72.9800 N.4       4 LYS4        0.0000 
     72 NZ         52.8200    9.3900   74.2000 N.4       4 LYS4        0.0000 
     73 NZ         64.6800    4.4600   73.0100 N.4       4 LYS4        0.0000 
     74 NZ         63.8500    5.7000   72.8500 N.4       4 LYS4        0.0000 
     75 NZ         63.8900    4.0800   74.2200 N.4       4 LYS4        0.0000 
     76 NZ         63.0600    5.3200   74.0700 N.4       4 LYS4        0.0000 
     77 NZ         62.2300    6.5700   73.9200 N.4       4 LYS4        0.0000 
     78 NZ         62.3000    3.3300   76.6500 N.4       4 LYS4        0.0000 
     79 NZ         57.4000    7.5400   78.4700 N.4       4 LYS4        0.0000 
     80 NZ         64.8500    4.8300   75.0900 N.4       4 LYS4        0.0000 
     81 NZ         62.3700    8.5600   74.6300 N.4       4 LYS4        0.0000 
     82 NZ         64.0600    4.4500   76.3000 N.4       4 LYS4        0.0000 
     83 NZ         61.5800    8.1800   75.8400 N.4       4 LYS4        0.0000 
     84 NZ         62.4400    5.3200   77.3600 N.4       4 LYS4        0.0000 
     85 NZ         58.3700    8.2900   79.3400 N.4       4 LYS4        0.0000 
     86 CZ         52.1800    4.6600   68.6100 C.ar      5 PHE5        0.0000 
     87 CZ         53.1500    5.4100   69.4800 C.ar      5 PHE5        0.0000 
     88 CZ         52.3600    5.0300   70.6900 C.ar      5 PHE5        0.0000 
     89 CZ         54.1200    6.1600   70.3400 C.ar      5 PHE5        0.0000 
     90 CZ         54.9800    3.3000   71.8600 C.ar      5 PHE5        0.0000 
     91 CZ         54.1500    4.5400   71.7100 C.ar      5 PHE5        0.0000 
     92 CZ         53.3300    5.7800   71.5600 C.ar      5 PHE5        0.0000 
     93 CZ         52.5000    7.0300   71.4000 C.ar      5 PHE5        0.0000 
     94 CZ         55.0900    6.9100   71.2100 C.ar      5 PHE5        0.0000 
     95 CZ         55.1200    5.2900   72.5800 C.ar      5 PHE5        0.0000 
     96 CZ         54.2900    6.5400   72.4200 C.ar      5 PHE5        0.0000 
     97 CZ         53.4700    7.7800   72.2700 C.ar      5 PHE5        0.0000 
     98 CZ         54.3300    4.9100   73.7900 C.ar      5 PHE5        0.0000 
     99 CZ         52.7100    5.7800   74.8500 C.ar      5 PHE5        0.0000 
    100 CZ         51.8800    7.0200   74.7000 C.ar      5 PHE5        0.0000 
    101 CZ         55.2000   10.5300   70.5500 C.ar      5 PHE5        0.0000 
    102 CZ         54.4000   10.1500   71.7700 C.ar      5 PHE5        0.0000 
    103 CZ         55.2600    7.2900   73.2900 C.ar      5 PHE5        0.0000 
    104 CZ         55.2900    5.6700   74.6600 C.ar      5 PHE5        0.0000 
    105 CZ         54.5000    5.2900   75.8700 C.ar      5 PHE5        0.0000 
    106 CZ         53.6700    6.5300   75.7200 C.ar      5 PHE5        0.0000 
    107 CZ         52.8500    7.7700   75.5700 C.ar      5 PHE5        0.0000 
    108 CZ         52.0200    9.0100   75.4100 C.ar      5 PHE5        0.0000 
    109 CZ         55.4400    7.6600   75.3700 C.ar      5 PHE5        0.0000 
    110 CZ         55.4700    6.0400   76.7400 C.ar      5 PHE5        0.0000 
    111 CZ         53.8200    8.5200   76.4300 C.ar      5 PHE5        0.0000 
    112 CZ         52.9900    9.7700   76.2800 C.ar      5 PHE5        0.0000 
    113 CZ         62.0900    4.5700   73.2000 C.ar      5 PHE5        0.0000 
    114 CZ         61.3000    4.2000   74.4200 C.ar      5 PHE5        0.0000 
    115 CZ         56.4400    6.7900   77.6000 C.ar      5 PHE5        0.0000 
    116 CZ         55.6100    8.0300   77.4500 C.ar      5 PHE5        0.0000 
    117 CZ         60.6800    4.1900   77.7100 C.ar      5 PHE5        0.0000 
    118 CZ         59.8500    5.4300   77.5600 C.ar      5 PHE5        0.0000 
    119 CZ         59.0600    5.0500   78.7800 C.ar      5 PHE5        0.0000 
    120 CZ         58.2300    6.3000   78.6200 C.ar      5 PHE5        0.0000 
    121 CZ         60.8200    6.1800   78.4300 C.ar      5 PHE5        0.0000 
    122 CZ         59.9900    7.4300   78.2700 C.ar      5 PHE5        0.0000 
    123 CA         51.2500    2.2900   69.1100 C.3       6 GLY6        0.0000 
    124 CA         53.0100    3.4200   68.7600 C.3       6 GLY6        0.0000 
    125 CA         52.2200    3.0400   69.9800 C.3       6 GLY6        0.0000 
    126 CA         54.8000    2.9300   69.7800 C.3       6 GLY6        0.0000 
    127 CA         53.9800    4.1700   69.6300 C.3       6 GLY6        0.0000 
    128 CA         54.3700   11.7700   70.4000 C.3       6 GLY6        0.0000 
    129 CA         53.5800   11.3900   71.6100 C.3       6 GLY6        0.0000 
    130 CA         55.3400   12.5200   71.2600 C.3       6 GLY6        0.0000 
    131 CA         54.6100    8.9000   75.2200 C.3       6 GLY6        0.0000 
    132 CA         53.7800   10.1400   75.0600 C.3       6 GLY6        0.0000 
    133 CA         56.3700   10.0300   74.8700 C.3       6 GLY6        0.0000 
    134 CA         56.4000    8.4100   76.2400 C.3       6 GLY6        0.0000 
    135 CA         55.5800    9.6500   76.0800 C.3       6 GLY6        0.0000 
    136 CA         58.1700    9.5400   75.8900 C.3       6 GLY6        0.0000 
    137 CA         58.2000    7.9200   77.2500 C.3       6 GLY6        0.0000 
    138 CA         57.3700    9.1600   77.1000 C.3       6 GLY6        0.0000 
    139 CA         56.5800    8.7800   78.3200 C.3       6 GLY6        0.0000 
    140 CA         59.1300   10.2900   76.7500 C.3       6 GLY6        0.0000 
    141 DU         54.8400    1.3100   71.1500 H         7 CUB7        0.0000 
    142 DU         54.0100    2.5500   71.0000 H         7 CUB7        0.0000 
    143 DU         53.1800    3.7900   70.8400 H         7 CUB7        0.0000 
    144 DU         53.2200    2.1700   72.2100 H         7 CUB7        0.0000 
    145 DU         53.5000    6.1600   73.6400 H         7 CUB7        0.0000 
    146 DU         54.4400    8.5300   73.1300 H         7 CUB7        0.0000 
    147 DU         54.4700    6.9100   74.5000 H         7 CUB7        0.0000 
    148 DU         53.6400    8.1500   74.3500 H         7 CUB7        0.0000 
    149 DU         56.2600    6.4200   75.5200 H         7 CUB7        0.0000 
    150 DU         60.5000    3.8200   75.6300 H         7 CUB7        0.0000 
    151 DU         61.3600    0.9500   77.1600 H         7 CUB7        0.0000 
    152 DU         58.8800    4.6800   76.7000 H         7 CUB7        0.0000 
    153 DU         58.0600    5.9200   76.5400 H         7 CUB7        0.0000 
    154 DU         57.2300    7.1700   76.3900 H         7 CUB7        0.0000 
    155 DU         57.2600    5.5500   77.7600 H         7 CUB7        0.0000 
    156 DU         63.0900    3.7000   75.4400 H         7 CUB7        0.0000 
    157 DU         62.2600    4.9500   75.2800 H         7 CUB7        0.0000 
    158 DU         61.4400    6.1900   75.1300 H         7 CUB7        0.0000 
    159 DU         60.6100    7.4300   74.9800 H         7 CUB7        0.0000 
    160 DU         61.4700    4.5700   76.5000 H         7 CUB7        0.0000 
    161 DU         60.6400    5.8100   76.3500 H         7 CUB7        0.0000 
    162 DU         59.8200    7.0500   76.1900 H         7 CUB7        0.0000 
    163 DU         58.9900    8.3000   76.0400 H         7 CUB7        0.0000 
    164 DU         59.0200    6.6800   77.4100 H         7 CUB7        0.0000 
    165 DU         60.7900    7.8000   77.0600 H         7 CUB7        0.0000 
@<TRIPOS>BOND
@<TRIPOS>SUBSTRUCTURE
     1 SER1        1 GROUP   
     2 ALA2       15 GROUP   
     3 ASP3       42 GROUP   
     4 LYS4       70 GROUP   
     5 PHE5       86 GROUP   
     6 GLY6      123 GROUP   
     7 CUB7      141 GROUP   
@<TRIPOS>SET

