#    Name: 6oiw_1_T8T
#    Modification time : Fri May 22 19:27:27 2020

@<TRIPOS>MOLECULE
6oiw_1_T8T
   31    33     1     0     0
SMALL
NO_CHARGES


@<TRIPOS>ATOM
      1 N1         52.7330    8.1980   73.9950 N.2       1 T8T602      0.0000 
      2 C2         53.4310    9.1510   74.5930 C.2       1 T8T602      0.0000 
      3 N2         53.0820   10.4200   74.4350 N.pl3     1 T8T602      0.0000 
      4 N3         54.5210    8.9020   75.3660 N.pl3     1 T8T602      0.0000 
      5 C4         54.8920    7.5960   75.4900 C.2       1 T8T602      0.0000 
      6 C5         54.2040    6.5650   74.8930 C.2       1 T8T602      0.0000 
      7 C6         53.0350    6.8780   74.0950 C.2       1 T8T602      0.0000 
      8 O6         52.3220    6.0390   73.5600 O.2       1 T8T602      0.0000 
      9 N7         54.8290    5.3640   75.1830 N.2       1 T8T602      0.0000 
     10 C8         55.8490    5.6960   75.9210 C.2       1 T8T602      0.0000 
     11 N9         55.9370    7.0310   76.1460 N.pl3     1 T8T602      0.0000 
     12 PA         60.1860    4.2920   76.1580 P.3       1 T8T602      0.0000 
     13 PB         62.6160    5.0990   75.4480 P.3       1 T8T602      0.0000 
     14 PG         62.8080    2.1320   75.3100 P.3       1 T8T602      0.0000 
     15 C1'        56.9080    7.7600   76.9620 C.3       1 T8T602      0.0000 
     16 S1A        59.1560    3.0010   75.2930 S.3       1 T8T602      0.0000 
     17 O1B        62.7800    6.0200   76.6070 O.co2     1 T8T602      0.0000 
     18 O1G        61.5500    2.1600   74.5570 O.co2     1 T8T602      0.0000 
     19 C2'        57.2840    7.0970   78.2590 C.3       1 T8T602      0.0000 
     20 O2A        61.0300    3.7690   77.1590 O.2       1 T8T602      0.0000 
     21 O2B        63.3000    5.5890   74.1890 O.co2     1 T8T602      0.0000 
     22 O2G        63.8190    1.6300   74.4130 O.co2     1 T8T602      0.0000 
     23 C3'        58.5620    7.8590   78.5400 C.3       1 T8T602      0.0000 
     24 O3'        58.1880    9.1920   78.8580 O.3       1 T8T602      0.0000 
     25 O3A        61.0700    4.9000   75.1610 O.3       1 T8T602      0.0000 
     26 O3B        63.1830    3.6280   75.7240 O.3       1 T8T602      0.0000 
     27 O3G        62.6670    1.3080   76.4160 O.co2     1 T8T602      0.0000 
     28 C4'        59.2090    7.8880   77.1720 C.3       1 T8T602      0.0000 
     29 O4'        58.1110    7.8390   76.2460 O.3       1 T8T602      0.0000 
     30 C5'        60.1420    6.7490   76.8750 C.3       1 T8T602      0.0000 
     31 O5'        59.4240    5.5250   76.6100 O.3       1 T8T602      0.0000 
@<TRIPOS>BOND
     1    1    2 2    
     2    1    7 1    
     3    2    3 1    
     4    2    4 1    
     5    4    5 1    
     6    5    6 2    
     7    5   11 1    
     8    6    7 1    
     9    6    9 1    
    10    7    8 2    
    11    9   10 2    
    12   10   11 1    
    13   11   15 1    
    14   12   16 1    
    15   12   20 2    
    16   12   25 1    
    17   12   31 1    
    18   13   17 ar   
    19   13   21 ar   
    20   13   25 1    
    21   13   26 1    
    22   14   18 ar   
    23   14   22 ar   
    24   14   26 1    
    25   14   27 ar   
    26   15   19 1    
    27   15   29 1    
    28   19   23 1    
    29   23   24 1    
    30   23   28 1    
    31   28   29 1    
    32   28   30 1    
    33   30   31 1    
@<TRIPOS>SUBSTRUCTURE
     1 T8T602      1 GROUP   
@<TRIPOS>SET

