#    Name: 6oiw_3_T8T_CAVITY_N1_8
#    Modification time : Fri May 22 19:27:59 2020

@<TRIPOS>MOLECULE
6oiw_3_T8T_CAVITY_N1_8
  214     0     7     0     0
SMALL
NO_CHARGES


@<TRIPOS>ATOM
      1 OG         24.3300   40.2900   81.8600 O.3       1 SER1        0.0000 
      2 OG         23.5000   41.5300   81.7100 O.3       1 SER1        0.0000 
      3 OG         24.3600   38.6700   83.2300 O.3       1 SER1        0.0000 
      4 OG         23.5300   39.9100   83.0700 O.3       1 SER1        0.0000 
      5 OG         22.7100   41.1500   82.9200 O.3       1 SER1        0.0000 
      6 OG         22.7400   39.5300   84.2900 O.3       1 SER1        0.0000 
      7 OG         21.9100   40.7700   84.1400 O.3       1 SER1        0.0000 
      8 OG         23.6000   36.6700   85.8100 O.3       1 SER1        0.0000 
      9 OG         22.7700   37.9100   85.6600 O.3       1 SER1        0.0000 
     10 OG         19.5000   41.2600   86.4100 O.3       1 SER1        0.0000 
     11 OG         22.8800   41.5200   85.0000 O.3       1 SER1        0.0000 
     12 OG         22.9100   39.9000   86.3700 O.3       1 SER1        0.0000 
     13 OG         26.5500   45.7700   85.0200 O.3       1 SER1        0.0000 
     14 OG         29.1700   44.0400   86.1900 O.3       1 SER1        0.0000 
     15 OG         28.3400   45.2800   86.0400 O.3       1 SER1        0.0000 
     16 OG         28.3700   43.6600   87.4000 O.3       1 SER1        0.0000 
     17 N          18.1500   41.3800   80.0200 N.am      2 ALA2        0.0000 
     18 O          25.7000   33.8200   80.7400 O.2       2 ALA2        0.0000 
     19 O          24.8700   35.0600   80.5900 O.2       2 ALA2        0.0000 
     20 O          24.0400   36.3000   80.4300 O.2       2 ALA2        0.0000 
     21 O          19.9100   42.5100   79.6700 O.2       2 ALA2        0.0000 
     22 O          24.0800   34.6800   81.8000 O.2       2 ALA2        0.0000 
     23 O          23.2500   35.9200   81.6500 O.2       2 ALA2        0.0000 
     24 N          19.1200   42.1400   80.8800 N.am      2 ALA2        0.0000 
     25 N          18.3200   41.7600   82.1000 N.am      2 ALA2        0.0000 
     26 O          27.4300   36.5700   79.0200 O.2       2 ALA2        0.0000 
     27 O          26.6300   36.1900   80.2400 O.2       2 ALA2        0.0000 
     28 O          26.6600   34.5700   81.6100 O.2       2 ALA2        0.0000 
     29 O          25.8400   35.8100   81.4500 O.2       2 ALA2        0.0000 
     30 N          22.5300   40.7800   80.8400 N.am      2 ALA2        0.0000 
     31 O          21.7100   42.0200   80.6900 O.2       2 ALA2        0.0000 
     32 O          20.8800   43.2600   80.5300 O.2       2 ALA2        0.0000 
     33 O          20.0900   42.8900   81.7500 O.2       2 ALA2        0.0000 
     34 O          19.2900   42.5100   82.9600 O.2       2 ALA2        0.0000 
     35 O          29.2200   36.0700   80.0400 O.2       2 ALA2        0.0000 
     36 O          28.3900   37.3200   79.8900 O.2       2 ALA2        0.0000 
     37 O          28.4300   35.7000   81.2600 O.2       2 ALA2        0.0000 
     38 O          27.6000   36.9400   81.1000 O.2       2 ALA2        0.0000 
     39 N          22.6700   42.7700   81.5500 N.am      2 ALA2        0.0000 
     40 N          30.9800   37.2000   79.6900 N.am      2 ALA2        0.0000 
     41 N          30.1900   36.8200   80.9100 N.am      2 ALA2        0.0000 
     42 N          29.3600   38.0700   80.7500 N.am      2 ALA2        0.0000 
     43 O          28.5400   39.3100   80.6000 O.2       2 ALA2        0.0000 
     44 N          30.3300   38.8200   81.6200 N.am      2 ALA2        0.0000 
     45 O          29.5000   40.0600   81.4700 O.2       2 ALA2        0.0000 
     46 N          31.5800   43.5500   83.9100 N.am      2 ALA2        0.0000 
     47 N          29.9600   44.4200   84.9700 N.am      2 ALA2        0.0000 
     48 N          29.1300   45.6600   84.8200 N.am      2 ALA2        0.0000 
     49 N          30.9300   45.1700   85.8400 N.am      2 ALA2        0.0000 
     50 N          31.9300   44.3000   88.0700 N.am      2 ALA2        0.0000 
     51 N          31.9600   42.6800   89.4400 N.am      2 ALA2        0.0000 
     52 N          31.1400   43.9200   89.2900 N.am      2 ALA2        0.0000 
     53 OD1        24.8400   36.6800   79.2200 O.co2     3 ASP3        0.0000 
     54 OD1        23.2200   37.5400   80.2800 O.co2     3 ASP3        0.0000 
     55 OD1        21.6300   36.7900   82.7100 O.co2     3 ASP3        0.0000 
     56 OD1        19.9800   39.2700   82.4100 O.co2     3 ASP3        0.0000 
     57 OD1        19.1500   40.5100   82.2500 O.co2     3 ASP3        0.0000 
     58 OD1        19.1800   38.8900   83.6200 O.co2     3 ASP3        0.0000 
     59 OD1        25.0100   37.0500   81.3000 O.co2     3 ASP3        0.0000 
     60 OD1        24.1900   38.2900   81.1500 O.co2     3 ASP3        0.0000 
     61 OD1        23.3600   39.5400   80.9900 O.co2     3 ASP3        0.0000 
     62 OD1        23.3900   37.9200   82.3600 O.co2     3 ASP3        0.0000 
     63 OD1        22.5700   39.1600   82.2100 O.co2     3 ASP3        0.0000 
     64 OD1        21.7700   38.7800   83.4200 O.co2     3 ASP3        0.0000 
     65 OD1        20.9800   38.4000   84.6400 O.co2     3 ASP3        0.0000 
     66 OD1        20.1500   39.6500   84.4900 O.co2     3 ASP3        0.0000 
     67 OD1        19.3300   40.8900   84.3300 O.co2     3 ASP3        0.0000 
     68 OD1        18.5000   42.1300   84.1800 O.co2     3 ASP3        0.0000 
     69 OD1        18.5300   40.5100   85.5500 O.co2     3 ASP3        0.0000 
     70 OD1        26.7700   38.1800   80.9500 O.co2     3 ASP3        0.0000 
     71 OD1        25.9500   39.4200   80.8000 O.co2     3 ASP3        0.0000 
     72 OD1        25.1200   40.6700   80.6400 O.co2     3 ASP3        0.0000 
     73 OD1        21.8800   42.3900   82.7700 O.co2     3 ASP3        0.0000 
     74 OD1        21.0900   42.0200   83.9800 O.co2     3 ASP3        0.0000 
     75 OD1        20.2600   43.2600   83.8300 O.co2     3 ASP3        0.0000 
     76 OD1        21.9500   39.1500   85.5100 O.co2     3 ASP3        0.0000 
     77 OD1        21.1200   40.4000   85.3500 O.co2     3 ASP3        0.0000 
     78 OD1        20.2900   41.6400   85.2000 O.co2     3 ASP3        0.0000 
     79 OD1        19.4700   42.8800   85.0500 O.co2     3 ASP3        0.0000 
     80 OD1        21.1500   38.7800   86.7200 O.co2     3 ASP3        0.0000 
     81 OD1        20.3300   40.0200   86.5700 O.co2     3 ASP3        0.0000 
     82 OD1        19.5300   39.6400   87.7800 O.co2     3 ASP3        0.0000 
     83 OD1        22.0900   41.1500   86.2200 O.co2     3 ASP3        0.0000 
     84 OD1        21.2900   40.7700   87.4300 O.co2     3 ASP3        0.0000 
     85 OD1        20.4700   42.0100   87.2800 O.co2     3 ASP3        0.0000 
     86 OD1        20.5000   40.3900   88.6500 O.co2     3 ASP3        0.0000 
     87 OD1        31.5000   38.3200   85.9400 O.co2     3 ASP3        0.0000 
     88 OD1        30.7100   37.9400   87.1500 O.co2     3 ASP3        0.0000 
     89 OD1        32.4700   39.0700   86.8000 O.co2     3 ASP3        0.0000 
     90 OD1        31.6500   40.3100   86.6500 O.co2     3 ASP3        0.0000 
     91 OD1        30.8500   39.9400   87.8600 O.co2     3 ASP3        0.0000 
     92 OD1        30.0600   39.5600   89.0800 O.co2     3 ASP3        0.0000 
     93 OD1        29.2300   40.8000   88.9300 O.co2     3 ASP3        0.0000 
     94 OD1        33.4400   39.8200   87.6700 O.co2     3 ASP3        0.0000 
     95 OD1        32.6100   41.0600   87.5100 O.co2     3 ASP3        0.0000 
     96 OD1        31.8200   40.6900   88.7300 O.co2     3 ASP3        0.0000 
     97 OD1        30.9900   41.9300   88.5800 O.co2     3 ASP3        0.0000 
     98 OD1        30.2000   41.5500   89.7900 O.co2     3 ASP3        0.0000 
     99 OD1        32.7900   41.4400   89.6000 O.co2     3 ASP3        0.0000 
    100 NZ         24.9000   33.4400   81.9600 N.4       4 LYS4        0.0000 
    101 NZ         20.7700   39.6500   81.1900 N.4       4 LYS4        0.0000 
    102 NZ         19.9400   40.8900   81.0400 N.4       4 LYS4        0.0000 
    103 NZ         25.8700   34.1900   82.8200 N.4       4 LYS4        0.0000 
    104 NZ         25.0800   33.8100   84.0400 N.4       4 LYS4        0.0000 
    105 NZ         21.8500   44.0100   81.4000 N.4       4 LYS4        0.0000 
    106 NZ         21.0500   43.6400   82.6100 N.4       4 LYS4        0.0000 
    107 NZ         31.9800   36.3300   81.9300 N.4       4 LYS4        0.0000 
    108 NZ         31.1600   37.5700   81.7700 N.4       4 LYS4        0.0000 
    109 NZ         31.1900   35.9500   83.1400 N.4       4 LYS4        0.0000 
    110 NZ         30.3600   37.2000   82.9900 N.4       4 LYS4        0.0000 
    111 NZ         31.3300   37.9500   83.8500 N.4       4 LYS4        0.0000 
    112 NZ         31.3600   36.3300   85.2200 N.4       4 LYS4        0.0000 
    113 NZ         24.8900   48.2600   84.7100 N.4       4 LYS4        0.0000 
    114 NZ         24.9300   46.6400   86.0800 N.4       4 LYS4        0.0000 
    115 NZ         24.1000   47.8800   85.9200 N.4       4 LYS4        0.0000 
    116 NZ         25.0700   48.6300   86.7900 N.4       4 LYS4        0.0000 
    117 CZ         18.9800   40.1400   80.1700 C.ar      5 PHE5        0.0000 
    118 CZ         18.1800   39.7600   81.3900 C.ar      5 PHE5        0.0000 
    119 CZ         23.2800   34.3000   83.0200 C.ar      5 PHE5        0.0000 
    120 CZ         22.4600   35.5500   82.8700 C.ar      5 PHE5        0.0000 
    121 CZ         24.2500   35.0500   83.8800 C.ar      5 PHE5        0.0000 
    122 CZ         23.4200   36.3000   83.7300 C.ar      5 PHE5        0.0000 
    123 CZ         22.6000   37.5400   83.5800 C.ar      5 PHE5        0.0000 
    124 CZ         21.8000   37.1600   84.7900 C.ar      5 PHE5        0.0000 
    125 CZ         25.9800   37.8000   82.1700 C.ar      5 PHE5        0.0000 
    126 CZ         25.1500   39.0400   82.0100 C.ar      5 PHE5        0.0000 
    127 CZ         26.8400   34.9400   83.6900 C.ar      5 PHE5        0.0000 
    128 CZ         26.0400   34.5600   84.9000 C.ar      5 PHE5        0.0000 
    129 CZ         25.2500   34.1800   86.1200 C.ar      5 PHE5        0.0000 
    130 CZ         24.4200   35.4300   85.9700 C.ar      5 PHE5        0.0000 
    131 CZ         27.7400   38.9300   81.8200 C.ar      5 PHE5        0.0000 
    132 CZ         29.4300   34.8300   83.4900 C.ar      5 PHE5        0.0000 
    133 CZ         26.9500   38.5500   83.0300 C.ar      5 PHE5        0.0000 
    134 CZ         27.8100   35.6900   84.5500 C.ar      5 PHE5        0.0000 
    135 CZ         26.1500   38.1800   84.2500 C.ar      5 PHE5        0.0000 
    136 CZ         22.8500   43.1400   83.6300 C.ar      5 PHE5        0.0000 
    137 CZ         27.0100   35.3100   85.7700 C.ar      5 PHE5        0.0000 
    138 CZ         26.1900   36.5500   85.6200 C.ar      5 PHE5        0.0000 
    139 CZ         26.2200   34.9300   86.9800 C.ar      5 PHE5        0.0000 
    140 CZ         28.7100   39.6800   82.6800 C.ar      5 PHE5        0.0000 
    141 CZ         30.3900   35.5800   84.3600 C.ar      5 PHE5        0.0000 
    142 CZ         28.7400   38.0600   84.0500 C.ar      5 PHE5        0.0000 
    143 CZ         28.7700   36.4400   85.4200 C.ar      5 PHE5        0.0000 
    144 CZ         27.1200   38.9300   85.1100 C.ar      5 PHE5        0.0000 
    145 CZ         27.9800   36.0600   86.6400 C.ar      5 PHE5        0.0000 
    146 CZ         31.3000   39.5700   82.4900 C.ar      5 PHE5        0.0000 
    147 CZ         30.5000   39.1900   83.7000 C.ar      5 PHE5        0.0000 
    148 CZ         28.8800   40.0500   84.7600 C.ar      5 PHE5        0.0000 
    149 CZ         29.7400   37.1900   86.2900 C.ar      5 PHE5        0.0000 
    150 CZ         32.3000   38.7000   84.7200 C.ar      5 PHE5        0.0000 
    151 CZ         31.4700   39.9400   84.5700 C.ar      5 PHE5        0.0000 
    152 CZ         25.7500   45.4000   86.2300 C.ar      5 PHE5        0.0000 
    153 CZ         32.4400   40.6900   85.4300 C.ar      5 PHE5        0.0000 
    154 CZ         31.6100   41.9300   85.2800 C.ar      5 PHE5        0.0000 
    155 CZ         32.5500   44.3000   84.7800 C.ar      5 PHE5        0.0000 
    156 CZ         33.4100   41.4400   86.3000 C.ar      5 PHE5        0.0000 
    157 CZ         32.5800   42.6800   86.1500 C.ar      5 PHE5        0.0000 
    158 CA         25.6600   35.4400   79.3700 C.3       6 GLY6        0.0000 
    159 CA         28.4600   34.0800   82.6300 C.3       6 GLY6        0.0000 
    160 CA         27.6300   35.3200   82.4700 C.3       6 GLY6        0.0000 
    161 CA         30.2200   35.2000   82.2800 C.3       6 GLY6        0.0000 
    162 CA         29.3900   36.4500   82.1200 C.3       6 GLY6        0.0000 
    163 CA         30.6500   41.1800   84.4100 C.3       6 GLY6        0.0000 
    164 CA         29.8500   40.8100   85.6300 C.3       6 GLY6        0.0000 
    165 CA         24.1300   46.2600   87.2900 C.3       6 GLY6        0.0000 
    166 CA         23.3100   47.5000   87.1400 C.3       6 GLY6        0.0000 
    167 CA         30.7900   43.1800   85.1300 C.3       6 GLY6        0.0000 
    168 CA         29.9900   42.8000   86.3400 C.3       6 GLY6        0.0000 
    169 CA         24.2700   48.2500   88.0100 C.3       6 GLY6        0.0000 
    170 CA         31.7200   45.5500   84.6200 C.3       6 GLY6        0.0000 
    171 CA         32.7200   44.6800   86.8600 C.3       6 GLY6        0.0000 
    172 CA         31.9000   45.9200   86.7000 C.3       6 GLY6        0.0000 
    173 CA         33.5800   41.8100   88.3800 C.3       6 GLY6        0.0000 
    174 CA         32.7600   43.0600   88.2300 C.3       6 GLY6        0.0000 
    175 DU         25.0400   35.4300   82.6700 H         7 CUB7        0.0000 
    176 DU         24.2200   36.6700   82.5200 H         7 CUB7        0.0000 
    177 DU         21.7400   40.4000   82.0600 H         7 CUB7        0.0000 
    178 DU         20.9100   41.6400   81.9000 H         7 CUB7        0.0000 
    179 DU         20.9500   40.0200   83.2700 H         7 CUB7        0.0000 
    180 DU         20.1200   41.2700   83.1200 H         7 CUB7        0.0000 
    181 DU         26.8100   36.5600   82.3200 H         7 CUB7        0.0000 
    182 DU         26.0100   36.1800   83.5300 H         7 CUB7        0.0000 
    183 DU         25.1900   37.4200   83.3800 H         7 CUB7        0.0000 
    184 DU         25.2200   35.8000   84.7500 H         7 CUB7        0.0000 
    185 DU         24.3900   37.0500   84.6000 H         7 CUB7        0.0000 
    186 DU         23.5700   38.2900   84.4400 H         7 CUB7        0.0000 
    187 DU         28.5700   37.6900   81.9700 H         7 CUB7        0.0000 
    188 DU         28.6000   36.0700   83.3400 H         7 CUB7        0.0000 
    189 DU         27.7700   37.3100   83.1900 H         7 CUB7        0.0000 
    190 DU         26.9800   36.9300   84.4000 H         7 CUB7        0.0000 
    191 DU         25.3600   37.8000   85.4600 H         7 CUB7        0.0000 
    192 DU         25.3900   36.1800   86.8300 H         7 CUB7        0.0000 
    193 DU         29.5400   38.4400   82.8400 H         7 CUB7        0.0000 
    194 DU         29.5700   36.8200   84.2000 H         7 CUB7        0.0000 
    195 DU         27.9500   37.6800   85.2700 H         7 CUB7        0.0000 
    196 DU         27.1500   37.3100   86.4800 H         7 CUB7        0.0000 
    197 DU         26.3600   36.9300   87.7000 H         7 CUB7        0.0000 
    198 DU         30.5400   37.5700   85.0700 H         7 CUB7        0.0000 
    199 DU         29.7100   38.8100   84.9200 H         7 CUB7        0.0000 
    200 DU         28.9200   38.4300   86.1300 H         7 CUB7        0.0000 
    201 DU         28.1200   38.0600   87.3500 H         7 CUB7        0.0000 
    202 DU         30.6800   39.5600   85.7800 H         7 CUB7        0.0000 
    203 DU         29.8800   39.1800   87.0000 H         7 CUB7        0.0000 
    204 DU         29.0600   40.4300   86.8400 H         7 CUB7        0.0000 
    205 DU         30.8200   41.5600   86.5000 H         7 CUB7        0.0000 
    206 DU         30.0300   41.1800   87.7100 H         7 CUB7        0.0000 
    207 DU         29.2000   42.4200   87.5600 H         7 CUB7        0.0000 
    208 DU         25.8900   47.3900   86.9400 H         7 CUB7        0.0000 
    209 DU         31.7600   43.9300   85.9900 H         7 CUB7        0.0000 
    210 DU         31.7900   42.3100   87.3600 H         7 CUB7        0.0000 
    211 DU         30.9600   43.5500   87.2100 H         7 CUB7        0.0000 
    212 DU         30.1400   44.7900   87.0500 H         7 CUB7        0.0000 
    213 DU         30.1700   43.1700   88.4200 H         7 CUB7        0.0000 
    214 DU         31.1000   45.5400   87.9200 H         7 CUB7        0.0000 
@<TRIPOS>BOND
@<TRIPOS>SUBSTRUCTURE
     1 SER1        1 GROUP   
     2 ALA2       17 GROUP   
     3 ASP3       53 GROUP   
     4 LYS4      100 GROUP   
     5 PHE5      117 GROUP   
     6 GLY6      158 GROUP   
     7 CUB7      175 GROUP   
@<TRIPOS>SET

