#    Name: 6oiw_2_T8T
#    Modification time : Fri May 22 19:27:42 2020

@<TRIPOS>MOLECULE
6oiw_2_T8T
   31    33     1     0     0
SMALL
NO_CHARGES


@<TRIPOS>ATOM
      1 N1         73.3290   41.5580   72.6780 N.2       1 T8T602      0.0000 
      2 C2         73.2090   40.2560   72.5050 C.2       1 T8T602      0.0000 
      3 N2         72.3020   39.7830   71.6580 N.pl3     1 T8T602      0.0000 
      4 N3         73.8990   39.3480   73.2350 N.pl3     1 T8T602      0.0000 
      5 C4         74.6890   39.8310   74.2330 C.2       1 T8T602      0.0000 
      6 C5         74.8100   41.1770   74.4710 C.2       1 T8T602      0.0000 
      7 C6         74.1150   42.0850   73.6420 C.2       1 T8T602      0.0000 
      8 O6         74.1970   43.2970   73.7750 O.2       1 T8T602      0.0000 
      9 N7         75.6070   41.3800   75.5830 N.2       1 T8T602      0.0000 
     10 C8         75.9370   40.1780   75.9680 C.2       1 T8T602      0.0000 
     11 N9         75.4190   39.2010   75.1900 N.pl3     1 T8T602      0.0000 
     12 PA         76.7530   38.5420   80.0240 P.3       1 T8T602      0.0000 
     13 PB         76.3440   37.0140   82.1520 P.3       1 T8T602      0.0000 
     14 PG         77.3900   38.7750   84.2580 P.3       1 T8T602      0.0000 
     15 C1'        75.6050   37.7690   75.3300 C.3       1 T8T602      0.0000 
     16 S1A        76.4050   40.4010   79.9490 S.3       1 T8T602      0.0000 
     17 O1B        76.9700   35.8130   81.5980 O.co2     1 T8T602      0.0000 
     18 O1G        77.1200   40.2600   84.0670 O.co2     1 T8T602      0.0000 
     19 C2'        77.0380   37.3790   75.5680 C.3       1 T8T602      0.0000 
     20 O2A        78.0590   38.1740   80.4230 O.2       1 T8T602      0.0000 
     21 O2B        75.2670   36.6370   83.1400 O.co2     1 T8T602      0.0000 
     22 O2G        76.2880   38.2190   85.0530 O.co2     1 T8T602      0.0000 
     23 C3'        76.9010   36.0810   76.3410 C.3       1 T8T602      0.0000 
     24 O3'        76.7990   34.9950   75.4320 O.3       1 T8T602      0.0000 
     25 O3A        75.8070   37.9070   80.9610 O.3       1 T8T602      0.0000 
     26 O3B        77.3640   38.0120   82.8600 O.3       1 T8T602      0.0000 
     27 O3G        78.6760   38.4400   84.8190 O.co2     1 T8T602      0.0000 
     28 C4'        75.6040   36.2680   77.1100 C.3       1 T8T602      0.0000 
     29 O4'        74.9200   37.3650   76.4780 O.3       1 T8T602      0.0000 
     30 C5'        75.7800   36.5790   78.5730 C.3       1 T8T602      0.0000 
     31 O5'        76.3590   37.8890   78.6980 O.3       1 T8T602      0.0000 
@<TRIPOS>BOND
     1    1    2 2    
     2    1    7 1    
     3    2    3 1    
     4    2    4 1    
     5    4    5 1    
     6    5    6 2    
     7    5   11 1    
     8    6    7 1    
     9    6    9 1    
    10    7    8 2    
    11    9   10 2    
    12   10   11 1    
    13   11   15 1    
    14   12   16 1    
    15   12   20 2    
    16   12   25 1    
    17   12   31 1    
    18   13   17 ar   
    19   13   21 ar   
    20   13   25 1    
    21   13   26 1    
    22   14   18 ar   
    23   14   22 ar   
    24   14   26 1    
    25   14   27 ar   
    26   15   19 1    
    27   15   29 1    
    28   19   23 1    
    29   23   24 1    
    30   23   28 1    
    31   28   29 1    
    32   28   30 1    
    33   30   31 1    
@<TRIPOS>SUBSTRUCTURE
     1 T8T602      1 GROUP   
@<TRIPOS>SET

