#    Name: 6oiw_2_T8T_CAVITY_N1_6
#    Modification time : Fri May 22 19:27:44 2020

@<TRIPOS>MOLECULE
6oiw_2_T8T_CAVITY_N1_6
   90     0     7     0     0
SMALL
NO_CHARGES


@<TRIPOS>ATOM
      1 OG         73.1000   45.3500   80.1200 O.3       1 SER1        0.0000 
      2 N          70.5300   39.1100   72.8000 N.am      2 ALA2        0.0000 
      3 O          70.5700   37.4900   74.1700 O.2       2 ALA2        0.0000 
      4 N          69.7400   38.7400   74.0100 N.am      2 ALA2        0.0000 
      5 N          68.1200   39.6000   75.0800 N.am      2 ALA2        0.0000 
      6 N          73.1200   39.0000   72.6000 N.am      2 ALA2        0.0000 
      7 O          71.5300   38.2400   75.0300 O.2       2 ALA2        0.0000 
      8 O          73.3300   37.7500   76.0500 O.2       2 ALA2        0.0000 
      9 N          73.8600   47.3500   77.5300 N.am      2 ALA2        0.0000 
     10 OD1        74.2000   43.3600   72.8100 O.co2     3 ASP3        0.0000 
     11 OD1        73.4100   42.9900   74.0300 O.co2     3 ASP3        0.0000 
     12 OD1        72.5800   44.2300   73.8700 O.co2     3 ASP3        0.0000 
     13 OD1        75.9600   44.4900   72.4600 O.co2     3 ASP3        0.0000 
     14 OD1        75.1700   44.1200   73.6800 O.co2     3 ASP3        0.0000 
     15 OD1        74.3400   45.3600   73.5200 O.co2     3 ASP3        0.0000 
     16 OD1        73.5500   44.9800   74.7400 O.co2     3 ASP3        0.0000 
     17 OD1        72.7200   46.2200   74.5900 O.co2     3 ASP3        0.0000 
     18 OD1        76.1300   44.8700   74.5400 O.co2     3 ASP3        0.0000 
     19 OD1        75.3100   46.1100   74.3900 O.co2     3 ASP3        0.0000 
     20 OD1        74.4800   47.3500   74.2400 O.co2     3 ASP3        0.0000 
     21 OD1        73.6900   46.9700   75.4500 O.co2     3 ASP3        0.0000 
     22 NZ         72.3000   40.2400   72.4500 N.4       4 LYS4        0.0000 
     23 NZ         71.5000   39.8600   73.6600 N.4       4 LYS4        0.0000 
     24 NZ         73.2300   42.6100   71.9500 N.4       4 LYS4        0.0000 
     25 NZ         73.2600   40.9900   73.3100 N.4       4 LYS4        0.0000 
     26 NZ         72.4400   42.2400   73.1600 N.4       4 LYS4        0.0000 
     27 NZ         72.4700   40.6200   74.5300 N.4       4 LYS4        0.0000 
     28 NZ         71.6400   41.8600   74.3800 N.4       4 LYS4        0.0000 
     29 CZ         69.8800   40.7300   74.7300 C.ar      5 PHE5        0.0000 
     30 CZ         74.0900   39.7500   73.4700 C.ar      5 PHE5        0.0000 
     31 CZ         70.8500   41.4800   75.5900 C.ar      5 PHE5        0.0000 
     32 CZ         75.8500   40.8800   73.1200 C.ar      5 PHE5        0.0000 
     33 CZ         75.0300   42.1200   72.9700 C.ar      5 PHE5        0.0000 
     34 CZ         75.8800   39.2600   74.4900 C.ar      5 PHE5        0.0000 
     35 CZ         73.4400   41.3700   75.4000 C.ar      5 PHE5        0.0000 
     36 CZ         72.6100   42.6100   75.2400 C.ar      5 PHE5        0.0000 
     37 CZ         71.7800   43.8500   75.0900 C.ar      5 PHE5        0.0000 
     38 CZ         76.7900   43.2500   72.6200 C.ar      5 PHE5        0.0000 
     39 CZ         75.9900   42.8700   73.8300 C.ar      5 PHE5        0.0000 
     40 CZ         76.8500   40.0100   75.3500 C.ar      5 PHE5        0.0000 
     41 CZ         75.2300   40.8700   76.4100 C.ar      5 PHE5        0.0000 
     42 CZ         74.4100   42.1200   76.2600 C.ar      5 PHE5        0.0000 
     43 CZ         73.5800   43.3600   76.1100 C.ar      5 PHE5        0.0000 
     44 CZ         71.9300   45.8400   75.8000 C.ar      5 PHE5        0.0000 
     45 CZ         78.5800   42.7600   73.6300 C.ar      5 PHE5        0.0000 
     46 CZ         77.7600   44.0000   73.4800 C.ar      5 PHE5        0.0000 
     47 CZ         78.6100   41.1400   75.0000 C.ar      5 PHE5        0.0000 
     48 CZ         77.7900   42.3800   74.8500 C.ar      5 PHE5        0.0000 
     49 CZ         75.3700   42.8700   77.1300 C.ar      5 PHE5        0.0000 
     50 CZ         74.5500   44.1100   76.9700 C.ar      5 PHE5        0.0000 
     51 CZ         73.8900   45.7200   78.9000 C.ar      5 PHE5        0.0000 
     52 CA         68.7700   37.9900   73.1500 C.3       6 GLY6        0.0000 
     53 CA         67.9500   39.2300   72.9900 C.3       6 GLY6        0.0000 
     54 CA         67.1500   38.8500   74.2100 C.3       6 GLY6        0.0000 
     55 CA         68.9100   39.9800   73.8600 C.3       6 GLY6        0.0000 
     56 CA         68.9500   38.3600   75.2300 C.3       6 GLY6        0.0000 
     57 CA         72.3300   38.6200   73.8200 C.3       6 GLY6        0.0000 
     58 CA         74.0600   41.3700   72.1000 C.3       6 GLY6        0.0000 
     59 CA         74.1200   38.1300   74.8400 C.3       6 GLY6        0.0000 
     60 CA         74.9900   43.7400   71.6000 C.3       6 GLY6        0.0000 
     61 CA         71.8200   42.2300   76.4600 C.3       6 GLY6        0.0000 
     62 CA         70.9900   43.4700   76.3000 C.3       6 GLY6        0.0000 
     63 CA         72.7500   44.6000   75.9500 C.3       6 GLY6        0.0000 
     64 CA         71.1000   47.0900   75.6500 C.3       6 GLY6        0.0000 
     65 CA         71.1300   45.4700   77.0200 C.3       6 GLY6        0.0000 
     66 CA         72.8600   48.2200   75.3000 C.3       6 GLY6        0.0000 
     67 CA         72.0700   47.8400   76.5100 C.3       6 GLY6        0.0000 
     68 CA         72.9300   44.9700   78.0400 C.3       6 GLY6        0.0000 
     69 CA         72.1000   46.2200   77.8800 C.3       6 GLY6        0.0000 
     70 CA         75.4800   46.4800   76.4700 C.3       6 GLY6        0.0000 
     71 CA         74.6600   47.7200   76.3200 C.3       6 GLY6        0.0000 
     72 DU         70.7100   39.4900   74.8800 H         7 CUB7        0.0000 
     73 DU         73.3000   39.3700   74.6800 H         7 CUB7        0.0000 
     74 DU         75.0600   40.5000   74.3300 H         7 CUB7        0.0000 
     75 DU         74.2300   41.7400   74.1800 H         7 CUB7        0.0000 
     76 DU         75.0900   38.8800   75.7000 H         7 CUB7        0.0000 
     77 DU         74.2600   40.1200   75.5500 H         7 CUB7        0.0000 
     78 DU         76.0300   41.2500   75.2000 H         7 CUB7        0.0000 
     79 DU         75.2000   42.4900   75.0500 H         7 CUB7        0.0000 
     80 DU         74.3700   43.7400   74.8900 H         7 CUB7        0.0000 
     81 DU         76.9600   43.6200   74.7000 H         7 CUB7        0.0000 
     82 DU         77.8200   40.7600   76.2200 H         7 CUB7        0.0000 
     83 DU         76.9900   42.0000   76.0700 H         7 CUB7        0.0000 
     84 DU         76.1700   43.2500   75.9100 H         7 CUB7        0.0000 
     85 DU         75.3400   44.4900   75.7600 H         7 CUB7        0.0000 
     86 DU         74.5100   45.7300   75.6100 H         7 CUB7        0.0000 
     87 DU         73.7200   45.3500   76.8200 H         7 CUB7        0.0000 
     88 DU         72.8900   46.5900   76.6700 H         7 CUB7        0.0000 
     89 DU         76.3100   45.2400   76.6200 H         7 CUB7        0.0000 
     90 DU         74.6900   46.1000   77.6900 H         7 CUB7        0.0000 
@<TRIPOS>BOND
@<TRIPOS>SUBSTRUCTURE
     1 SER1        1 GROUP   
     2 ALA2        2 GROUP   
     3 ASP3       10 GROUP   
     4 LYS4       22 GROUP   
     5 PHE5       29 GROUP   
     6 GLY6       52 GROUP   
     7 CUB7       72 GROUP   
@<TRIPOS>SET

