#    Name: 6oiw_3_T8T
#    Modification time : Fri May 22 19:27:57 2020

@<TRIPOS>MOLECULE
6oiw_3_T8T
   31    33     1     0     0
SMALL
NO_CHARGES


@<TRIPOS>ATOM
      1 N1         31.6160   36.6160   84.4200 N.2       1 T8T603      0.0000 
      2 C2         31.0750   35.8340   83.4990 C.2       1 T8T603      0.0000 
      3 N2         31.8590   35.0550   82.7690 N.pl3     1 T8T603      0.0000 
      4 N3         29.7320   35.7300   83.2930 N.pl3     1 T8T603      0.0000 
      5 C4         28.9170   36.4220   84.1360 C.2       1 T8T603      0.0000 
      6 C5         29.4210   37.2130   85.1460 C.2       1 T8T603      0.0000 
      7 C6         30.9080   37.3690   85.2920 C.2       1 T8T603      0.0000 
      8 O6         31.5070   38.1240   86.0660 O.2       1 T8T603      0.0000 
      9 N7         28.3760   37.7260   85.8960 N.2       1 T8T603      0.0000 
     10 C8         27.3030   37.2630   85.3160 C.2       1 T8T603      0.0000 
     11 N9         27.5590   36.4840   84.2260 N.pl3     1 T8T603      0.0000 
     12 PA         21.9720   39.1500   83.3730 P.3       1 T8T603      0.0000 
     13 PB         19.8630   41.1800   82.5070 P.3       1 T8T603      0.0000 
     14 PG         19.8520   41.4320   85.1420 P.3       1 T8T603      0.0000 
     15 C1'        26.5730   36.0140   83.2250 C.3       1 T8T603      0.0000 
     16 S1A        22.9500   39.7390   84.9120 S.3       1 T8T603      0.0000 
     17 O1B        19.0620   40.8700   81.2980 O.co2     1 T8T603      0.0000 
     18 O1G        20.2680   42.7370   84.6940 O.co2     1 T8T603      0.0000 
     19 C2'        26.0110   34.6250   83.4460 C.3       1 T8T603      0.0000 
     20 O2A        20.9290   38.2660   83.7390 O.2       1 T8T603      0.0000 
     21 O2B        20.1030   42.6610   82.6880 O.co2     1 T8T603      0.0000 
     22 O2G        18.8840   41.6680   86.1930 O.co2     1 T8T603      0.0000 
     23 C3'        24.5610   34.7240   82.9680 C.3       1 T8T603      0.0000 
     24 O3'        24.3250   33.9190   81.8180 O.3       1 T8T603      0.0000 
     25 O3A        21.2600   40.3930   82.5600 O.3       1 T8T603      0.0000 
     26 O3B        19.0700   40.9690   83.8530 O.3       1 T8T603      0.0000 
     27 O3G        20.8930   40.5200   85.5310 O.co2     1 T8T603      0.0000 
     28 C4'        24.3880   36.1960   82.6100 C.3       1 T8T603      0.0000 
     29 O4'        25.4590   36.8660   83.2810 O.3       1 T8T603      0.0000 
     30 C5'        23.0680   36.8020   83.0110 C.3       1 T8T603      0.0000 
     31 O5'        22.9250   38.1850   82.6190 O.3       1 T8T603      0.0000 
@<TRIPOS>BOND
     1    1    2 2    
     2    1    7 1    
     3    2    3 1    
     4    2    4 1    
     5    4    5 1    
     6    5    6 2    
     7    5   11 1    
     8    6    7 1    
     9    6    9 1    
    10    7    8 2    
    11    9   10 2    
    12   10   11 1    
    13   11   15 1    
    14   12   16 1    
    15   12   20 2    
    16   12   25 1    
    17   12   31 1    
    18   13   17 ar   
    19   13   21 ar   
    20   13   25 1    
    21   13   26 1    
    22   14   18 ar   
    23   14   22 ar   
    24   14   26 1    
    25   14   27 ar   
    26   15   19 1    
    27   15   29 1    
    28   19   23 1    
    29   23   24 1    
    30   23   28 1    
    31   28   29 1    
    32   28   30 1    
    33   30   31 1    
@<TRIPOS>SUBSTRUCTURE
     1 T8T603      1 GROUP   
@<TRIPOS>SET

