#    Name: 6oiw_2_T8T_CAVITY_N1_12
#    Modification time : Fri May 22 19:27:44 2020

@<TRIPOS>MOLECULE
6oiw_2_T8T_CAVITY_N1_12
  105     0     7     0     0
SMALL
NO_CHARGES


@<TRIPOS>ATOM
      1 OG         73.1000   45.3500   80.1200 O.3       1 SER1        0.0000 
      2 OG         72.2700   46.5900   79.9600 O.3       1 SER1        0.0000 
      3 N          70.5300   39.1100   72.8000 N.am      2 ALA2        0.0000 
      4 O          70.5700   37.4900   74.1700 O.2       2 ALA2        0.0000 
      5 N          69.7400   38.7400   74.0100 N.am      2 ALA2        0.0000 
      6 N          68.1200   39.6000   75.0800 N.am      2 ALA2        0.0000 
      7 N          73.1200   39.0000   72.6000 N.am      2 ALA2        0.0000 
      8 O          71.5300   38.2400   75.0300 O.2       2 ALA2        0.0000 
      9 O          73.3300   37.7500   76.0500 O.2       2 ALA2        0.0000 
     10 N          70.4800   47.0800   78.9400 N.am      2 ALA2        0.0000 
     11 N          73.8300   48.9700   76.1600 N.am      2 ALA2        0.0000 
     12 N          73.8600   47.3500   77.5300 N.am      2 ALA2        0.0000 
     13 N          73.0400   48.5900   77.3800 N.am      2 ALA2        0.0000 
     14 N          72.2400   48.2100   78.5900 N.am      2 ALA2        0.0000 
     15 N          74.8300   48.1000   78.4000 N.am      2 ALA2        0.0000 
     16 N          73.2100   48.9600   79.4600 N.am      2 ALA2        0.0000 
     17 OD1        74.2000   43.3600   72.8100 O.co2     3 ASP3        0.0000 
     18 OD1        73.4100   42.9900   74.0300 O.co2     3 ASP3        0.0000 
     19 OD1        72.5800   44.2300   73.8700 O.co2     3 ASP3        0.0000 
     20 OD1        75.9600   44.4900   72.4600 O.co2     3 ASP3        0.0000 
     21 OD1        75.1700   44.1200   73.6800 O.co2     3 ASP3        0.0000 
     22 OD1        74.3400   45.3600   73.5200 O.co2     3 ASP3        0.0000 
     23 OD1        73.5500   44.9800   74.7400 O.co2     3 ASP3        0.0000 
     24 OD1        72.7200   46.2200   74.5900 O.co2     3 ASP3        0.0000 
     25 OD1        76.1300   44.8700   74.5400 O.co2     3 ASP3        0.0000 
     26 OD1        75.3100   46.1100   74.3900 O.co2     3 ASP3        0.0000 
     27 OD1        74.4800   47.3500   74.2400 O.co2     3 ASP3        0.0000 
     28 OD1        73.6900   46.9700   75.4500 O.co2     3 ASP3        0.0000 
     29 NZ         72.3000   40.2400   72.4500 N.4       4 LYS4        0.0000 
     30 NZ         71.5000   39.8600   73.6600 N.4       4 LYS4        0.0000 
     31 NZ         73.2300   42.6100   71.9500 N.4       4 LYS4        0.0000 
     32 NZ         73.2600   40.9900   73.3100 N.4       4 LYS4        0.0000 
     33 NZ         72.4400   42.2400   73.1600 N.4       4 LYS4        0.0000 
     34 NZ         72.4700   40.6200   74.5300 N.4       4 LYS4        0.0000 
     35 NZ         71.6400   41.8600   74.3800 N.4       4 LYS4        0.0000 
     36 CZ         69.8800   40.7300   74.7300 C.ar      5 PHE5        0.0000 
     37 CZ         74.0900   39.7500   73.4700 C.ar      5 PHE5        0.0000 
     38 CZ         70.8500   41.4800   75.5900 C.ar      5 PHE5        0.0000 
     39 CZ         75.8500   40.8800   73.1200 C.ar      5 PHE5        0.0000 
     40 CZ         75.0300   42.1200   72.9700 C.ar      5 PHE5        0.0000 
     41 CZ         75.8800   39.2600   74.4900 C.ar      5 PHE5        0.0000 
     42 CZ         73.4400   41.3700   75.4000 C.ar      5 PHE5        0.0000 
     43 CZ         72.6100   42.6100   75.2400 C.ar      5 PHE5        0.0000 
     44 CZ         71.7800   43.8500   75.0900 C.ar      5 PHE5        0.0000 
     45 CZ         76.7900   43.2500   72.6200 C.ar      5 PHE5        0.0000 
     46 CZ         75.9900   42.8700   73.8300 C.ar      5 PHE5        0.0000 
     47 CZ         76.8500   40.0100   75.3500 C.ar      5 PHE5        0.0000 
     48 CZ         75.2300   40.8700   76.4100 C.ar      5 PHE5        0.0000 
     49 CZ         74.4100   42.1200   76.2600 C.ar      5 PHE5        0.0000 
     50 CZ         73.5800   43.3600   76.1100 C.ar      5 PHE5        0.0000 
     51 CZ         71.9300   45.8400   75.8000 C.ar      5 PHE5        0.0000 
     52 CZ         78.5800   42.7600   73.6300 C.ar      5 PHE5        0.0000 
     53 CZ         77.7600   44.0000   73.4800 C.ar      5 PHE5        0.0000 
     54 CZ         78.6100   41.1400   75.0000 C.ar      5 PHE5        0.0000 
     55 CZ         77.7900   42.3800   74.8500 C.ar      5 PHE5        0.0000 
     56 CZ         75.3700   42.8700   77.1300 C.ar      5 PHE5        0.0000 
     57 CZ         74.5500   44.1100   76.9700 C.ar      5 PHE5        0.0000 
     58 CZ         73.8900   45.7200   78.9000 C.ar      5 PHE5        0.0000 
     59 CA         68.7700   37.9900   73.1500 C.3       6 GLY6        0.0000 
     60 CA         67.9500   39.2300   72.9900 C.3       6 GLY6        0.0000 
     61 CA         67.1500   38.8500   74.2100 C.3       6 GLY6        0.0000 
     62 CA         68.9100   39.9800   73.8600 C.3       6 GLY6        0.0000 
     63 CA         68.9500   38.3600   75.2300 C.3       6 GLY6        0.0000 
     64 CA         72.3300   38.6200   73.8200 C.3       6 GLY6        0.0000 
     65 CA         74.0600   41.3700   72.1000 C.3       6 GLY6        0.0000 
     66 CA         74.1200   38.1300   74.8400 C.3       6 GLY6        0.0000 
     67 CA         74.9900   43.7400   71.6000 C.3       6 GLY6        0.0000 
     68 CA         71.8200   42.2300   76.4600 C.3       6 GLY6        0.0000 
     69 CA         70.9900   43.4700   76.3000 C.3       6 GLY6        0.0000 
     70 CA         72.7500   44.6000   75.9500 C.3       6 GLY6        0.0000 
     71 CA         71.1000   47.0900   75.6500 C.3       6 GLY6        0.0000 
     72 CA         71.1300   45.4700   77.0200 C.3       6 GLY6        0.0000 
     73 CA         70.3100   46.7100   76.8600 C.3       6 GLY6        0.0000 
     74 CA         72.8600   48.2200   75.3000 C.3       6 GLY6        0.0000 
     75 CA         72.0700   47.8400   76.5100 C.3       6 GLY6        0.0000 
     76 CA         72.9300   44.9700   78.0400 C.3       6 GLY6        0.0000 
     77 CA         72.1000   46.2200   77.8800 C.3       6 GLY6        0.0000 
     78 CA         71.2700   47.4600   77.7300 C.3       6 GLY6        0.0000 
     79 CA         71.3100   45.8400   79.1000 C.3       6 GLY6        0.0000 
     80 CA         75.4800   46.4800   76.4700 C.3       6 GLY6        0.0000 
     81 CA         74.6600   47.7200   76.3200 C.3       6 GLY6        0.0000 
     82 CA         71.4200   49.4500   78.4400 C.3       6 GLY6        0.0000 
     83 CA         70.6200   49.0700   79.6600 C.3       6 GLY6        0.0000 
     84 CA         75.6200   48.4700   77.1800 C.3       6 GLY6        0.0000 
     85 DU         70.7100   39.4900   74.8800 H         7 CUB7        0.0000 
     86 DU         73.3000   39.3700   74.6800 H         7 CUB7        0.0000 
     87 DU         75.0600   40.5000   74.3300 H         7 CUB7        0.0000 
     88 DU         74.2300   41.7400   74.1800 H         7 CUB7        0.0000 
     89 DU         75.0900   38.8800   75.7000 H         7 CUB7        0.0000 
     90 DU         74.2600   40.1200   75.5500 H         7 CUB7        0.0000 
     91 DU         76.0300   41.2500   75.2000 H         7 CUB7        0.0000 
     92 DU         75.2000   42.4900   75.0500 H         7 CUB7        0.0000 
     93 DU         74.3700   43.7400   74.8900 H         7 CUB7        0.0000 
     94 DU         76.9600   43.6200   74.7000 H         7 CUB7        0.0000 
     95 DU         77.8200   40.7600   76.2200 H         7 CUB7        0.0000 
     96 DU         76.9900   42.0000   76.0700 H         7 CUB7        0.0000 
     97 DU         76.1700   43.2500   75.9100 H         7 CUB7        0.0000 
     98 DU         75.3400   44.4900   75.7600 H         7 CUB7        0.0000 
     99 DU         74.5100   45.7300   75.6100 H         7 CUB7        0.0000 
    100 DU         73.7200   45.3500   76.8200 H         7 CUB7        0.0000 
    101 DU         72.8900   46.5900   76.6700 H         7 CUB7        0.0000 
    102 DU         76.3100   45.2400   76.6200 H         7 CUB7        0.0000 
    103 DU         74.6900   46.1000   77.6900 H         7 CUB7        0.0000 
    104 DU         73.0700   46.9700   78.7500 H         7 CUB7        0.0000 
    105 DU         71.4500   47.8300   79.8100 H         7 CUB7        0.0000 
@<TRIPOS>BOND
@<TRIPOS>SUBSTRUCTURE
     1 SER1        1 GROUP   
     2 ALA2        3 GROUP   
     3 ASP3       17 GROUP   
     4 LYS4       29 GROUP   
     5 PHE5       36 GROUP   
     6 GLY6       59 GROUP   
     7 CUB7       85 GROUP   
@<TRIPOS>SET

