#    Name: 6ajg_1_3RX
#    Modification time : Fri May 22 19:32:02 2020

@<TRIPOS>MOLECULE
6ajg_1_3RX
   24    26     1     0     0
SMALL
NO_CHARGES


@<TRIPOS>ATOM
      1 CAA       106.2340   24.9300   34.6280 C.3       1 3RX1001     0.0000 
      2 CAB       104.8870   23.8040   36.5340 C.3       1 3RX1001     0.0000 
      3 CAC       100.9330   20.4680   35.0520 C.3       1 3RX1001     0.0000 
      4 CAD       104.1530   23.7120   34.1700 C.2       1 3RX1001     0.0000 
      5 CAE       102.1110   19.9670   32.9380 C.2       1 3RX1001     0.0000 
      6 CAF       102.9370   22.8970   34.5450 C.3       1 3RX1001     0.0000 
      7 CAG       100.9470   19.1230   32.4860 C.3       1 3RX1001     0.0000 
      8 CAH       101.6140   17.0910   33.5790 C.3       1 3RX1001     0.0000 
      9 CAI       100.8990   15.7500   33.5320 C.3       1 3RX1001     0.0000 
     10 CAJ       103.3040   21.4180   34.5140 C.3       1 3RX1001     0.0000 
     11 CAK       101.1020   11.5410   29.7600 C.3       1 3RX1001     0.0000 
     12 CAL       100.6720   13.9840   29.5820 C.3       1 3RX1001     0.0000 
     13 CAM        98.9170   12.4790   30.4830 C.3       1 3RX1001     0.0000 
     14 CAN       102.2800   13.1210   31.2750 C.3       1 3RX1001     0.0000 
     15 CAO       100.5270   11.6180   32.1770 C.3       1 3RX1001     0.0000 
     16 NAP       101.4060   17.7430   32.2770 N.3       1 3RX1001     0.0000 
     17 NAQ       100.6860   15.4080   32.1170 N.4       1 3RX1001     0.0000 
     18 CAR       105.0510   24.1260   35.0770 C.2       1 3RX1001     0.0000 
     19 CAS       102.1060   20.5890   34.1240 C.2       1 3RX1001     0.0000 
     20 CAT       101.7360   12.9260   29.8620 C.3       1 3RX1001     0.0000 
     21 CAU        99.9670   11.4100   30.7720 C.3       1 3RX1001     0.0000 
     22 CAV        99.5440   13.8630   30.6010 C.3       1 3RX1001     0.0000 
     23 CAW       101.1440   13.0070   32.2870 C.3       1 3RX1001     0.0000 
     24 CAX       100.0880   14.0670   32.0080 C.3       1 3RX1001     0.0000 
@<TRIPOS>BOND
     1    1   18 1    
     2    2   18 1    
     3    3   19 1    
     4    4    6 1    
     5    4   18 2    
     6    5    7 1    
     7    5   19 2    
     8    6   10 1    
     9    7   16 1    
    10    8    9 1    
    11    8   16 1    
    12    9   17 1    
    13   10   19 1    
    14   11   20 1    
    15   11   21 1    
    16   12   20 1    
    17   12   22 1    
    18   13   21 1    
    19   13   22 1    
    20   14   20 1    
    21   14   23 1    
    22   15   21 1    
    23   15   23 1    
    24   17   24 1    
    25   22   24 1    
    26   23   24 1    
@<TRIPOS>SUBSTRUCTURE
     1 3RX1001     1 GROUP   
@<TRIPOS>SET

