#    Name: 6ajg_1_3RX_CAVITY_N1_8
#    Modification time : Fri May 22 19:32:03 2020

@<TRIPOS>MOLECULE
6ajg_1_3RX_CAVITY_N1_8
   68     0     6     0     0
SMALL
NO_CHARGES


@<TRIPOS>ATOM
      1 OG        106.8400   10.2800   24.7500 O.3       1 SER1        0.0000 
      2 OG        102.4100   12.8800   30.9800 O.3       1 SER1        0.0000 
      3 N         105.8100   12.9300   26.5200 N.am      2 ALA2        0.0000 
      4 O         104.0100   13.6500   25.6600 O.2       2 ALA2        0.0000 
      5 N          99.6700   10.8700   32.4000 N.am      2 ALA2        0.0000 
      6 N         103.1300   14.2800   28.0200 N.am      2 ALA2        0.0000 
      7 N          99.8800   12.1900   33.0800 N.am      2 ALA2        0.0000 
      8 NZ        104.5800   14.2700   27.6100 N.4       3 LYS4        0.0000 
      9 NZ        102.0500   13.5800   29.7100 N.4       3 LYS4        0.0000 
     10 NZ        102.6100   14.2000   31.6600 N.4       3 LYS4        0.0000 
     11 NZ        101.1700   14.2100   32.0700 N.4       3 LYS4        0.0000 
     12 NZ        100.8100   14.9200   30.8000 N.4       3 LYS4        0.0000 
     13 NZ        100.4500   15.6300   29.5300 N.4       3 LYS4        0.0000 
     14 NZ        101.3700   15.5300   32.7500 N.4       3 LYS4        0.0000 
     15 NZ         99.9300   15.5400   33.1600 N.4       3 LYS4        0.0000 
     16 NZ        101.5800   16.8500   33.4300 N.4       3 LYS4        0.0000 
     17 NZ        100.5000   16.1600   35.1100 N.4       3 LYS4        0.0000 
     18 NZ        100.1400   16.8700   33.8400 N.4       3 LYS4        0.0000 
     19 NZ         98.7000   16.8800   34.2500 N.4       3 LYS4        0.0000 
     20 NZ        101.4300   18.8800   32.8300 N.4       3 LYS4        0.0000 
     21 CZ        106.6900   12.3100   24.1600 C.ar      4 PHE5        0.0000 
     22 CZ        100.5500   10.2400   30.0400 C.ar      4 PHE5        0.0000 
     23 CZ         99.1100   10.2600   30.4500 C.ar      4 PHE5        0.0000 
     24 CZ         98.7500   10.9600   29.1800 C.ar      4 PHE5        0.0000 
     25 CZ        102.5600   10.8400   31.5800 C.ar      4 PHE5        0.0000 
     26 CZ        102.2000   11.5500   30.3000 C.ar      4 PHE5        0.0000 
     27 CZ        100.7600   11.5700   30.7200 C.ar      4 PHE5        0.0000 
     28 CZ        100.4000   12.2700   29.4400 C.ar      4 PHE5        0.0000 
     29 CZ         98.9600   12.2900   29.8600 C.ar      4 PHE5        0.0000 
     30 CZ         98.6000   13.0000   28.5800 C.ar      4 PHE5        0.0000 
     31 CZ        102.7600   12.1700   32.2500 C.ar      4 PHE5        0.0000 
     32 CZ        101.3200   12.1800   32.6700 C.ar      4 PHE5        0.0000 
     33 CZ         99.1600   13.6100   30.5300 C.ar      4 PHE5        0.0000 
     34 CZ         98.8100   14.3200   29.2600 C.ar      4 PHE5        0.0000 
     35 CZ        101.5300   13.5000   33.3500 C.ar      4 PHE5        0.0000 
     36 CZ         99.3700   14.9300   31.2100 C.ar      4 PHE5        0.0000 
     37 CZ        101.7300   14.8200   34.0200 C.ar      4 PHE5        0.0000 
     38 CZ         99.5700   16.2500   31.8900 C.ar      4 PHE5        0.0000 
     39 CZ         99.7800   17.5700   32.5700 C.ar      4 PHE5        0.0000 
     40 CA        107.0500   11.6000   25.4300 C.3       5 GLY6        0.0000 
     41 CA        105.2500   12.3200   24.5700 C.3       5 GLY6        0.0000 
     42 CA         97.6700   10.2700   30.8600 C.3       5 GLY6        0.0000 
     43 CA         97.3100   10.9800   29.5900 C.3       5 GLY6        0.0000 
     44 CA        105.4500   13.6400   25.2500 C.3       5 GLY6        0.0000 
     45 CA        103.6400   11.5400   29.8900 C.3       5 GLY6        0.0000 
     46 CA        103.2900   12.2500   28.6200 C.3       5 GLY6        0.0000 
     47 CA        102.9300   12.9600   27.3500 C.3       5 GLY6        0.0000 
     48 CA        101.1200   10.8600   31.9900 C.3       5 GLY6        0.0000 
     49 CA         98.2300   10.8800   32.8100 C.3       5 GLY6        0.0000 
     50 CA         97.8700   11.5900   31.5400 C.3       5 GLY6        0.0000 
     51 CA         97.5200   12.3000   30.2700 C.3       5 GLY6        0.0000 
     52 CA        103.8500   12.8600   30.5700 C.3       5 GLY6        0.0000 
     53 CA        103.4900   13.5700   29.3000 C.3       5 GLY6        0.0000 
     54 CA        101.6900   14.2900   28.4400 C.3       5 GLY6        0.0000 
     55 CA        100.2500   14.3000   28.8500 C.3       5 GLY6        0.0000 
     56 CA         99.5200   12.9000   31.8100 C.3       5 GLY6        0.0000 
     57 CA         98.4400   12.2000   33.4900 C.3       5 GLY6        0.0000 
     58 CA         97.7200   13.6200   30.9500 C.3       5 GLY6        0.0000 
     59 CA        100.0800   13.5100   33.7600 C.3       5 GLY6        0.0000 
     60 CA         99.7300   14.2200   32.4800 C.3       5 GLY6        0.0000 
     61 CA        100.2900   14.8400   34.4400 C.3       5 GLY6        0.0000 
     62 CA        101.9400   16.1500   34.7000 C.3       5 GLY6        0.0000 
     63 CA        101.7800   18.1800   34.1100 C.3       5 GLY6        0.0000 
     64 CA        100.3400   18.1900   34.5200 C.3       5 GLY6        0.0000 
     65 CA         99.9900   18.9000   33.2500 C.3       5 GLY6        0.0000 
     66 DU         99.3200   11.5800   31.1300 H         6 CUB7        0.0000 
     67 DU        100.9600   12.8900   31.3900 H         6 CUB7        0.0000 
     68 DU        100.6100   13.6000   30.1200 H         6 CUB7        0.0000 
@<TRIPOS>BOND
@<TRIPOS>SUBSTRUCTURE
     1 SER1        1 GROUP   
     2 ALA2        3 GROUP   
     3 LYS4        8 GROUP   
     4 PHE5       21 GROUP   
     5 GLY6       40 GROUP   
     6 CUB7       66 GROUP   
@<TRIPOS>SET

