#    Name: 6aje_6_FMN
#    Modification time : Fri May 22 19:31:40 2020

@<TRIPOS>MOLECULE
6aje_6_FMN
   31    33     1     0     1
SMALL
NO_CHARGES


@<TRIPOS>ATOM
      1 N1         27.4490  -99.2120  207.2380 N.2       1 FMN501      0.0000 
      2 C2         28.0400 -100.3480  207.6750 C.2       1 FMN501      0.0000 
      3 O2         28.2880 -101.2440  206.8440 O.2       1 FMN501      0.0000 
      4 N3         28.3810 -100.5450  208.9570 N.am      1 FMN501      0.0000 
      5 C4         28.1510  -99.6270  209.8970 C.2       1 FMN501      0.0000 
      6 O4         28.4700  -99.8330  211.0770 O.2       1 FMN501      0.0000 
      7 C4A        27.5170  -98.3560  209.5000 C.2       1 FMN501      0.0000 
      8 N5         27.2530  -97.3880  210.3900 N.2       1 FMN501      0.0000 
      9 C5A        26.6560  -96.2460  210.0110 C.ar      1 FMN501      0.0000 
     10 C6         26.4120  -95.2910  210.9790 C.ar      1 FMN501      0.0000 
     11 C7         25.8110  -94.0890  210.6500 C.ar      1 FMN501      0.0000 
     12 C7M        25.5640  -93.0920  211.7540 C.3       1 FMN501      0.0000 
     13 C8         25.4240  -93.8340  209.2370 C.ar      1 FMN501      0.0000 
     14 C8M        24.7660  -92.5420  208.8220 C.3       1 FMN501      0.0000 
     15 C9         25.6720  -94.7960  208.2690 C.ar      1 FMN501      0.0000 
     16 C9A        26.2800  -96.0080  208.5890 C.ar      1 FMN501      0.0000 
     17 N10        26.5570  -97.0220  207.6330 N.pl3     1 FMN501      0.0000 
     18 C10        27.1670  -98.2020  208.0780 C.2       1 FMN501      0.0000 
     19 C1'        26.2320  -96.9100  206.2010 C.3       1 FMN501      0.0000 
     20 C2'        24.8020  -97.3880  205.9520 C.3       1 FMN501      0.0000 
     21 O2'        24.7200  -98.8060  206.1910 O.3       1 FMN501      0.0000 
     22 C3'        24.3310  -97.0730  204.5220 C.3       1 FMN501      0.0000 
     23 O3'        25.1280  -97.8390  203.6000 O.3       1 FMN501      0.0000 
     24 C4'        24.3900  -95.5860  204.1260 C.3       1 FMN501      0.0000 
     25 O4'        24.0390  -94.7100  205.2030 O.3       1 FMN501      0.0000 
     26 C5'        23.4560  -95.2760  202.9610 C.3       1 FMN501      0.0000 
     27 O5'        22.0780  -95.3550  203.3560 O.3       1 FMN501      0.0000 
     28 P          21.1380  -94.0580  203.5940 P.3       1 FMN501      0.0000 
     29 O1P        19.7350  -94.6130  203.3580 O.co2     1 FMN501      0.0000 
     30 O2P        21.5890  -93.0490  202.5660 O.co2     1 FMN501      0.0000 
     31 O3P        21.4670  -93.5630  204.9830 O.co2     1 FMN501      0.0000 
@<TRIPOS>BOND
     1    1    2 1    
     2    1   18 2    
     3    2    3 2    
     4    2    4 am   
     5    4    5 am   
     6    5    6 2    
     7    5    7 1    
     8    7    8 2    
     9    7   18 1    
    10    8    9 1    
    11    9   10 ar   
    12    9   16 ar   
    13   10   11 ar   
    14   11   12 1    
    15   11   13 ar   
    16   13   14 1    
    17   13   15 ar   
    18   15   16 ar   
    19   16   17 1    
    20   17   18 1    
    21   17   19 1    
    22   19   20 1    
    23   20   21 1    
    24   20   22 1    
    25   22   23 1    
    26   22   24 1    
    27   24   25 1    
    28   24   26 1    
    29   26   27 1    
    30   27   28 1    
    31   28   29 ar   
    32   28   30 ar   
    33   28   31 ar   
@<TRIPOS>SUBSTRUCTURE
     1 FMN501      1 GROUP   
@<TRIPOS>SET
ATOM$ORANGE STATIC     ATOMS   COLORGROUP SYSTEM 
34 2 2 5 5 7 7 9 9 10 10 11 11 12 12 13 13 14 \
14 15 15 16 16 18 18 19 19 20 20 22 22 24 24 26 26 

