#    Name: 6aje_5_FMN
#    Modification time : Fri May 22 19:31:34 2020

@<TRIPOS>MOLECULE
6aje_5_FMN
   31    33     1     0     1
SMALL
NO_CHARGES


@<TRIPOS>ATOM
      1 N1          6.8670 -133.6770  175.0100 N.2       1 FMN501      0.0000 
      2 C2          7.6700 -134.3440  175.8760 C.2       1 FMN501      0.0000 
      3 O2          8.3130 -133.6870  176.7200 O.2       1 FMN501      0.0000 
      4 N3          7.8120 -135.6880  175.8540 N.am      1 FMN501      0.0000 
      5 C4          7.1600 -136.4620  174.9740 C.2       1 FMN501      0.0000 
      6 O4          7.3200 -137.7020  174.9860 O.2       1 FMN501      0.0000 
      7 C4A         6.2490 -135.8080  174.0060 C.2       1 FMN501      0.0000 
      8 N5          5.5440 -136.5140  173.1070 N.2       1 FMN501      0.0000 
      9 C5A         4.7400 -135.8920  172.2250 C.ar      1 FMN501      0.0000 
     10 C6          4.0620 -136.6760  171.3120 C.ar      1 FMN501      0.0000 
     11 C7          3.2150 -136.0930  170.3860 C.ar      1 FMN501      0.0000 
     12 C7M         2.5320 -137.0450  169.4430 C.3       1 FMN501      0.0000 
     13 C8          3.0220 -134.5930  170.3760 C.ar      1 FMN501      0.0000 
     14 C8M         2.1250 -133.8460  169.4110 C.3       1 FMN501      0.0000 
     15 C9          3.7200 -133.8130  171.2890 C.ar      1 FMN501      0.0000 
     16 C9A         4.5800 -134.4000  172.2240 C.ar      1 FMN501      0.0000 
     17 N10         5.3050 -133.6410  173.1810 N.pl3     1 FMN501      0.0000 
     18 C10         6.1480 -134.3290  174.0740 C.2       1 FMN501      0.0000 
     19 C1'         5.2030 -132.1820  173.2790 C.3       1 FMN501      0.0000 
     20 C2'         6.1630 -131.5820  172.2830 C.3       1 FMN501      0.0000 
     21 O2'         7.4750 -131.8990  172.7480 O.3       1 FMN501      0.0000 
     22 C3'         5.9950 -130.0710  172.1540 C.3       1 FMN501      0.0000 
     23 O3'         6.2320 -129.4860  173.4340 O.3       1 FMN501      0.0000 
     24 C4'         4.6100 -129.6270  171.6830 C.3       1 FMN501      0.0000 
     25 O4'         4.1770 -130.4650  170.6190 O.3       1 FMN501      0.0000 
     26 C5'         4.5870 -128.1790  171.2170 C.3       1 FMN501      0.0000 
     27 O5'         5.4810 -128.0010  170.1180 O.3       1 FMN501      0.0000 
     28 P           5.0460 -127.5470  168.6340 P.3       1 FMN501      0.0000 
     29 O1P         6.1620 -126.6090  168.2120 O.co2     1 FMN501      0.0000 
     30 O2P         3.6670 -126.9390  168.7180 O.co2     1 FMN501      0.0000 
     31 O3P         5.0370 -128.8480  167.9000 O.co2     1 FMN501      0.0000 
@<TRIPOS>BOND
     1    1    2 1    
     2    1   18 2    
     3    2    3 2    
     4    2    4 am   
     5    4    5 am   
     6    5    6 2    
     7    5    7 1    
     8    7    8 2    
     9    7   18 1    
    10    8    9 1    
    11    9   10 ar   
    12    9   16 ar   
    13   10   11 ar   
    14   11   12 1    
    15   11   13 ar   
    16   13   14 1    
    17   13   15 ar   
    18   15   16 ar   
    19   16   17 1    
    20   17   18 1    
    21   17   19 1    
    22   19   20 1    
    23   20   21 1    
    24   20   22 1    
    25   22   23 1    
    26   22   24 1    
    27   24   25 1    
    28   24   26 1    
    29   26   27 1    
    30   27   28 1    
    31   28   29 ar   
    32   28   30 ar   
    33   28   31 ar   
@<TRIPOS>SUBSTRUCTURE
     1 FMN501      1 GROUP   
@<TRIPOS>SET
ATOM$ORANGE STATIC     ATOMS   COLORGROUP SYSTEM 
34 2 2 5 5 7 7 9 9 10 10 11 11 12 12 13 13 14 \
14 15 15 16 16 18 18 19 19 20 20 22 22 24 24 26 26 

