#    Name: 6aje_7_FMN
#    Modification time : Fri May 22 19:31:47 2020

@<TRIPOS>MOLECULE
6aje_7_FMN
   31    33     1     0     1
SMALL
NO_CHARGES


@<TRIPOS>ATOM
      1 N1         45.3020 -137.7860  133.7300 N.2       1 FMN501      0.0000 
      2 C2         45.5580 -136.4640  133.7320 C.2       1 FMN501      0.0000 
      3 O2         46.6120 -136.0800  134.2800 O.2       1 FMN501      0.0000 
      4 N3         44.7180 -135.5710  133.1750 N.am      1 FMN501      0.0000 
      5 C4         43.5750 -135.9310  132.5750 C.2       1 FMN501      0.0000 
      6 O4         42.8490 -135.0430  132.0860 O.2       1 FMN501      0.0000 
      7 C4A        43.2220 -137.3780  132.5230 C.2       1 FMN501      0.0000 
      8 N5         42.0940 -137.8660  131.9490 N.2       1 FMN501      0.0000 
      9 C5A        41.8230 -139.2020  131.9450 C.ar      1 FMN501      0.0000 
     10 C6         40.6540 -139.6700  131.3440 C.ar      1 FMN501      0.0000 
     11 C7         40.3570 -141.0350  131.3200 C.ar      1 FMN501      0.0000 
     12 C7M        39.0910 -141.5270  130.6650 C.3       1 FMN501      0.0000 
     13 C8         41.2980 -142.0040  131.9420 C.ar      1 FMN501      0.0000 
     14 C8M        41.0260 -143.4850  131.9420 C.3       1 FMN501      0.0000 
     15 C9         42.4570 -141.5480  132.5440 C.ar      1 FMN501      0.0000 
     16 C9A        42.7700 -140.1830  132.5760 C.ar      1 FMN501      0.0000 
     17 N10        43.9580 -139.6900  133.1860 N.pl3     1 FMN501      0.0000 
     18 C10        44.1910 -138.2990  133.1670 C.2       1 FMN501      0.0000 
     19 C1'        44.9520 -140.5690  133.8360 C.3       1 FMN501      0.0000 
     20 C2'        44.4750 -140.8870  135.2480 C.3       1 FMN501      0.0000 
     21 O2'        44.3380 -139.6690  135.9890 O.3       1 FMN501      0.0000 
     22 C3'        45.4370 -141.8210  135.9840 C.3       1 FMN501      0.0000 
     23 O3'        46.7300 -141.1990  136.0320 O.3       1 FMN501      0.0000 
     24 C4'        45.5660 -143.2220  135.3580 C.3       1 FMN501      0.0000 
     25 O4'        44.3770 -143.6640  134.6880 O.3       1 FMN501      0.0000 
     26 C5'        45.9140 -144.2760  136.4020 C.3       1 FMN501      0.0000 
     27 O5'        44.8890 -144.4040  137.3990 O.3       1 FMN501      0.0000 
     28 P          43.9230 -145.6930  137.4950 P.3       1 FMN501      0.0000 
     29 O1P        43.4230 -145.7350  138.9260 O.co2     1 FMN501      0.0000 
     30 O2P        44.8010 -146.8510  137.0970 O.co2     1 FMN501      0.0000 
     31 O3P        42.8480 -145.4350  136.4840 O.co2     1 FMN501      0.0000 
@<TRIPOS>BOND
     1    1    2 1    
     2    1   18 2    
     3    2    3 2    
     4    2    4 am   
     5    4    5 am   
     6    5    6 2    
     7    5    7 1    
     8    7    8 2    
     9    7   18 1    
    10    8    9 1    
    11    9   10 ar   
    12    9   16 ar   
    13   10   11 ar   
    14   11   12 1    
    15   11   13 ar   
    16   13   14 1    
    17   13   15 ar   
    18   15   16 ar   
    19   16   17 1    
    20   17   18 1    
    21   17   19 1    
    22   19   20 1    
    23   20   21 1    
    24   20   22 1    
    25   22   23 1    
    26   22   24 1    
    27   24   25 1    
    28   24   26 1    
    29   26   27 1    
    30   27   28 1    
    31   28   29 ar   
    32   28   30 ar   
    33   28   31 ar   
@<TRIPOS>SUBSTRUCTURE
     1 FMN501      1 GROUP   
@<TRIPOS>SET
ATOM$ORANGE STATIC     ATOMS   COLORGROUP SYSTEM 
34 2 2 5 5 7 7 9 9 10 10 11 11 12 12 13 13 14 \
14 15 15 16 16 18 18 19 19 20 20 22 22 24 24 26 26 

