#    Name: 6pxs_4_FAD_CAVITY_N1_8
#    Modification time : Fri May 22 19:39:59 2020

@<TRIPOS>MOLECULE
6pxs_4_FAD_CAVITY_N1_8
   77     0     6     0     0
SMALL
NO_CHARGES


@<TRIPOS>ATOM
      1 OG         79.7200  -16.4100   26.5400 O.3       1 SER1        0.0000 
      2 OG         79.0200  -13.9300   26.8300 O.3       1 SER1        0.0000 
      3 OG         75.1500  -10.3300   33.1200 O.3       1 SER1        0.0000 
      4 OG         77.5500  -10.6800   34.0700 O.3       1 SER1        0.0000 
      5 OG         77.1800   -9.7400   32.9600 O.3       1 SER1        0.0000 
      6 OG         78.3900   -9.6100   34.7000 O.3       1 SER1        0.0000 
      7 OG         78.0300   -8.6700   33.5800 O.3       1 SER1        0.0000 
      8 OG         81.8700  -12.7500   39.0000 O.3       1 SER1        0.0000 
      9 N          77.3800  -14.8400   30.6300 N.am      2 ALA2        0.0000 
     10 N          78.5600  -15.3200   29.8500 N.am      2 ALA2        0.0000 
     11 N          73.1000  -11.5400   30.7600 N.am      2 ALA2        0.0000 
     12 N          74.2800  -12.0200   29.9700 N.am      2 ALA2        0.0000 
     13 N          75.4700  -12.5000   29.1900 N.am      2 ALA2        0.0000 
     14 N          78.2200  -13.7700   31.2600 N.am      2 ALA2        0.0000 
     15 N          79.4100  -14.2500   30.4700 N.am      2 ALA2        0.0000 
     16 N          73.9400  -10.4700   31.3800 N.am      2 ALA2        0.0000 
     17 N          78.6800  -12.3800   28.2400 N.am      2 ALA2        0.0000 
     18 N          77.8800  -12.2200   32.6700 N.am      2 ALA2        0.0000 
     19 N          79.0700  -12.7000   31.8800 N.am      2 ALA2        0.0000 
     20 O          80.2500  -13.1800   31.0900 O.2       2 ALA2        0.0000 
     21 N          78.7300  -11.1500   33.2900 N.am      2 ALA2        0.0000 
     22 N          79.9200  -11.6300   32.5000 N.am      2 ALA2        0.0000 
     23 O          78.3700  -10.2200   32.1700 O.2       2 ALA2        0.0000 
     24 N          79.4800  -12.4100   38.0400 N.am      2 ALA2        0.0000 
     25 N          79.1200  -11.4800   36.9300 N.am      2 ALA2        0.0000 
     26 N          78.7500  -10.5400   35.8100 N.am      2 ALA2        0.0000 
     27 N          79.5800  -10.0800   33.9100 N.am      2 ALA2        0.0000 
     28 N          80.7600  -10.5600   33.1300 N.am      2 ALA2        0.0000 
     29 O          79.2100   -9.1500   32.8000 O.2       2 ALA2        0.0000 
     30 N          80.3200  -11.3400   38.6700 N.am      2 ALA2        0.0000 
     31 N          81.5100  -11.8200   37.8800 N.am      2 ALA2        0.0000 
     32 N          79.9600  -10.4100   37.5500 N.am      2 ALA2        0.0000 
     33 N          81.1500  -10.8800   36.7700 N.am      2 ALA2        0.0000 
     34 N          79.6000   -9.4700   36.4400 N.am      2 ALA2        0.0000 
     35 N          80.7800   -9.9500   35.6500 N.am      2 ALA2        0.0000 
     36 O          80.4200   -9.0100   34.5400 O.2       2 ALA2        0.0000 
     37 N          81.6100   -9.4900   33.7500 N.am      2 ALA2        0.0000 
     38 O          80.0600   -8.0800   33.4200 O.2       2 ALA2        0.0000 
     39 OD1        73.4600  -12.4700   31.8800 O.co2     3 ASP3        0.0000 
     40 OD1        74.3100  -11.4000   32.5000 O.co2     3 ASP3        0.0000 
     41 OD1        75.4900  -11.8800   31.7100 O.co2     3 ASP3        0.0000 
     42 OD1        76.7000  -11.7500   33.4500 O.co2     3 ASP3        0.0000 
     43 OD1        76.3400  -10.8100   32.3400 O.co2     3 ASP3        0.0000 
     44 OD1        78.6600  -12.8700   39.9400 O.co2     3 ASP3        0.0000 
     45 OD1        79.5000  -11.8000   40.5700 O.co2     3 ASP3        0.0000 
     46 OD1        79.1400  -10.8600   39.4500 O.co2     3 ASP3        0.0000 
     47 OD1        78.7800   -9.9300   38.3400 O.co2     3 ASP3        0.0000 
     48 CZ         77.5700  -10.0600   36.6000 C.ar      4 PHE5        0.0000 
     49 CZ         79.2400   -8.5300   35.3200 C.ar      4 PHE5        0.0000 
     50 CA         78.9000  -16.8700   28.4400 C.3       5 GLY6        0.0000 
     51 CA         78.5400  -15.9400   27.3200 C.3       5 GLY6        0.0000 
     52 CA         79.7500  -15.8000   29.0600 C.3       5 GLY6        0.0000 
     53 CA         80.9300  -16.2800   28.2700 C.3       5 GLY6        0.0000 
     54 CA         74.6500  -12.9500   31.0900 C.3       5 GLY6        0.0000 
     55 CA         75.8300  -13.4300   30.3000 C.3       5 GLY6        0.0000 
     56 CA         77.0200  -13.9100   29.5200 C.3       5 GLY6        0.0000 
     57 CA         78.2000  -14.3900   28.7300 C.3       5 GLY6        0.0000 
     58 CA         79.3900  -14.8600   27.9500 C.3       5 GLY6        0.0000 
     59 CA         80.5700  -15.3400   27.1600 C.3       5 GLY6        0.0000 
     60 CA         77.0400  -13.3000   32.0400 C.3       5 GLY6        0.0000 
     61 CA         80.5900  -14.7300   29.6800 C.3       5 GLY6        0.0000 
     62 CA         76.6800  -12.3600   30.9300 C.3       5 GLY6        0.0000 
     63 CA         80.2300  -13.7900   28.5700 C.3       5 GLY6        0.0000 
     64 CA         75.1300  -10.9500   30.6000 C.3       5 GLY6        0.0000 
     65 CA         76.3100  -11.4200   29.8100 C.3       5 GLY6        0.0000 
     66 CA         79.8700  -12.8600   27.4500 C.3       5 GLY6        0.0000 
     67 CA         77.5200  -11.2900   31.5500 C.3       5 GLY6        0.0000 
     68 CA         78.7100  -11.7700   30.7600 C.3       5 GLY6        0.0000 
     69 CA         79.8900  -12.2500   29.9800 C.3       5 GLY6        0.0000 
     70 CA         75.9700   -9.8800   31.2200 C.3       5 GLY6        0.0000 
     71 CA         79.5500  -10.7000   31.3900 C.3       5 GLY6        0.0000 
     72 CA         79.8400  -13.3500   39.1600 C.3       5 GLY6        0.0000 
     73 CA         81.0300  -13.8200   38.3700 C.3       5 GLY6        0.0000 
     74 CA         80.4000   -9.6300   32.0100 C.3       5 GLY6        0.0000 
     75 DU         77.8600  -12.8400   30.1400 H         6 CUB7        0.0000 
     76 DU         79.0500  -13.3200   29.3500 H         6 CUB7        0.0000 
     77 DU         80.6900  -12.2800   39.7800 H         6 CUB7        0.0000 
@<TRIPOS>BOND
@<TRIPOS>SUBSTRUCTURE
     1 SER1        1 GROUP   
     2 ALA2        9 GROUP   
     3 ASP3       39 GROUP   
     4 PHE5       48 GROUP   
     5 GLY6       50 GROUP   
     6 CUB7       75 GROUP   
@<TRIPOS>SET

