#    Name: 6pxs_1_FAD
#    Modification time : Fri May 22 19:39:48 2020

@<TRIPOS>MOLECULE
6pxs_1_FAD
   84    89     1     0     1
SMALL
NO_CHARGES


@<TRIPOS>ATOM
      1 PA         56.0770  -20.1240   12.1450 P.3       1 FAD401      0.0000 
      2 O1A        57.3420  -19.4230   11.8170 O.co2     1 FAD401      0.0000 
      3 O2A        54.8760  -19.1940   12.3380 O.co2     1 FAD401      0.0000 
      4 O5B        56.2310  -21.0450   13.4060 O.3       1 FAD401      0.0000 
      5 C5B        57.5120  -21.5890   13.7860 C.3       1 FAD401      0.0000 
      6 C4B        57.6720  -21.4430   15.2770 C.3       1 FAD401      0.0000 
      7 O4B        58.5130  -22.5080   15.7810 O.3       1 FAD401      0.0000 
      8 C3B        58.3260  -20.1350   15.7240 C.3       1 FAD401      0.0000 
      9 O3B        57.6870  -19.6320   16.8910 O.3       1 FAD401      0.0000 
     10 C2B        59.7690  -20.5570   16.0080 C.3       1 FAD401      0.0000 
     11 O2B        60.4030  -19.7120   16.9610 O.3       1 FAD401      0.0000 
     12 C1B        59.5390  -21.9540   16.5740 C.3       1 FAD401      0.0000 
     13 N9A        60.7030  -22.8320   16.5140 N.pl3     1 FAD401      0.0000 
     14 C8A        61.4250  -23.1810   15.4040 C.2       1 FAD401      0.0000 
     15 N7A        62.4290  -23.9880   15.6530 N.2       1 FAD401      0.0000 
     16 C5A        62.3610  -24.1820   17.0250 C.ar      1 FAD401      0.0000 
     17 C6A        63.1450  -24.9380   17.9170 C.ar      1 FAD401      0.0000 
     18 N6A        64.1980  -25.6710   17.5450 N.pl3     1 FAD401      0.0000 
     19 N1A        62.8060  -24.9130   19.2250 N.ar      1 FAD401      0.0000 
     20 C2A        61.7560  -24.1820   19.6080 C.ar      1 FAD401      0.0000 
     21 N3A        60.9470  -23.4320   18.8560 N.ar      1 FAD401      0.0000 
     22 C4A        61.3040  -23.4740   17.5680 C.ar      1 FAD401      0.0000 
     23 N1         49.6190  -17.1160    4.3170 N.2       1 FAD401      0.0000 
     24 C2         48.3270  -16.9900    3.8950 C.2       1 FAD401      0.0000 
     25 O2         47.5510  -17.9520    3.8890 O.2       1 FAD401      0.0000 
     26 N3         47.8600  -15.7600    3.4650 N.am      1 FAD401      0.0000 
     27 C4         48.5920  -14.5920    3.4090 C.2       1 FAD401      0.0000 
     28 O4         48.0690  -13.5550    3.0060 O.2       1 FAD401      0.0000 
     29 C4X        49.9650  -14.7360    3.8560 C.2       1 FAD401      0.0000 
     30 N5         50.7290  -13.6810    3.8360 N.2       1 FAD401      0.0000 
     31 C5X        52.0400  -13.8170    4.2640 C.ar      1 FAD401      0.0000 
     32 C6         52.8700  -12.6970    4.2480 C.ar      1 FAD401      0.0000 
     33 C7         54.1930  -12.7790    4.6720 C.ar      1 FAD401      0.0000 
     34 C7M        55.0590  -11.5480    4.6400 C.3       1 FAD401      0.0000 
     35 C8         54.7040  -14.0090    5.1140 C.ar      1 FAD401      0.0000 
     36 C8M        56.1330  -14.1310    5.5760 C.3       1 FAD401      0.0000 
     37 C9         53.8770  -15.1280    5.1310 C.ar      1 FAD401      0.0000 
     38 C9A        52.5540  -15.0430    4.7110 C.ar      1 FAD401      0.0000 
     39 N10        51.6920  -16.1590    4.7200 N.pl3     1 FAD401      0.0000 
     40 C10        50.3890  -16.0410    4.2930 C.2       1 FAD401      0.0000 
     41 C1'        52.1730  -17.4780    5.1630 C.3       1 FAD401      0.0000 
     42 C2'        52.0260  -17.7010    6.6670 C.3       1 FAD401      0.0000 
     43 O2'        52.3410  -16.5040    7.3790 O.3       1 FAD401      0.0000 
     44 C3'        52.9850  -18.8090    7.1020 C.3       1 FAD401      0.0000 
     45 O3'        52.9600  -19.8540    6.1360 O.3       1 FAD401      0.0000 
     46 C4'        52.6740  -19.4160    8.4700 C.3       1 FAD401      0.0000 
     47 O4'        52.6740  -18.3780    9.4490 O.3       1 FAD401      0.0000 
     48 C5'        53.6770  -20.4870    8.8430 C.3       1 FAD401      0.0000 
     49 O5'        53.3970  -20.9560   10.1780 O.3       1 FAD401      0.0000 
     50 P          54.3560  -21.9760   10.8960 P.3       1 FAD401      0.0000 
     51 O1P        54.6100  -23.1610    9.9580 O.co2     1 FAD401      0.0000 
     52 O2P        53.8740  -22.3330   12.2550 O.co2     1 FAD401      0.0000 
     53 O3P        55.7120  -21.1520   10.9950 O.3       1 FAD401      0.0000 
     54 H51A       58.1970  -21.1200   13.3470 H         1 FAD401      0.0000 
     55 H52A       57.5530  -22.4970   13.5510 H         1 FAD401      0.0000 
     56 H4B        56.8350  -21.5150   15.6970 H         1 FAD401      0.0000 
     57 H3B        58.3070  -19.5060   15.0270 H         1 FAD401      0.0000 
     58 HO3A       57.9520  -18.8580   17.0410 H         1 FAD401      0.0000 
     59 H2B        60.2770  -20.5910   15.2190 H         1 FAD401      0.0000 
     60 HO2A       59.8260  -19.3690   17.4510 H         1 FAD401      0.0000 
     61 H1B        59.2570  -21.8920   17.4670 H         1 FAD401      0.0000 
     62 H8A        61.2210  -22.8740   14.5510 H         1 FAD401      0.0000 
     63 H61A       64.7370  -25.9910   18.1450 H         1 FAD401      0.0000 
     64 H62A       64.3420  -25.8270   16.7040 H         1 FAD401      0.0000 
     65 H2A        61.5630  -24.1970   20.5160 H         1 FAD401      0.0000 
     66 HN3        47.0330  -15.7200    3.2050 H         1 FAD401      0.0000 
     67 H6         52.4020  -11.9610    3.9290 H         1 FAD401      0.0000 
     68 HM71       55.7470  -11.6650    4.0110 H         1 FAD401      0.0000 
     69 HM72       55.4330  -11.4070    5.4900 H         1 FAD401      0.0000 
     70 HM73       54.5390  -10.8040    4.4000 H         1 FAD401      0.0000 
     71 HM81       56.2800  -14.9930    5.9160 H         1 FAD401      0.0000 
     72 HM82       56.3000  -13.4960    6.2480 H         1 FAD401      0.0000 
     73 HM83       56.7100  -13.9780    4.8510 H         1 FAD401      0.0000 
     74 H9         54.4770  -15.8370    5.1400 H         1 FAD401      0.0000 
     75 H1'1       51.6830  -18.1410    4.7140 H         1 FAD401      0.0000 
     76 H1'2       53.0820  -17.5550    4.9380 H         1 FAD401      0.0000 
     77 H2'        51.1420  -17.9550    6.8580 H         1 FAD401      0.0000 
     78 HO2'       53.1670  -16.4210    7.4290 H         1 FAD401      0.0000 
     79 H3'        53.8490  -18.4410    7.1290 H         1 FAD401      0.0000 
     80 HO3'       52.2110  -19.8860    5.7760 H         1 FAD401      0.0000 
     81 H4'        51.8160  -19.7970    8.4480 H         1 FAD401      0.0000 
     82 HO4'       53.1300  -17.7380    9.1750 H         1 FAD401      0.0000 
     83 H5'1       53.6110  -21.2020    8.2380 H         1 FAD401      0.0000 
     84 H5'2       54.5440  -20.1280    8.8120 H         1 FAD401      0.0000 
@<TRIPOS>BOND
     1    1    2 ar   
     2    1    3 ar   
     3    1    4 1    
     4    1   53 1    
     5    4    5 1    
     6    5    6 1    
     7    6    7 1    
     8    5   54 1    
     9    5   55 1    
    10    6    8 1    
    11    7   12 1    
    12    6   56 1    
    13    8    9 1    
    14    8   10 1    
    15   10   11 1    
    16    8   57 1    
    17    9   58 1    
    18   10   12 1    
    19   12   13 1    
    20   10   59 1    
    21   11   60 1    
    22   13   14 1    
    23   12   61 1    
    24   13   22 1    
    25   14   15 2    
    26   15   16 1    
    27   14   62 1    
    28   16   17 ar   
    29   16   22 ar   
    30   17   18 1    
    31   17   19 ar   
    32   19   20 ar   
    33   18   63 1    
    34   18   64 1    
    35   20   21 ar   
    36   21   22 ar   
    37   20   65 1    
    38   23   24 1    
    39   23   40 2    
    40   24   25 2    
    41   24   26 am   
    42   26   27 am   
    43   27   28 2    
    44   26   66 1    
    45   27   29 1    
    46   29   30 2    
    47   29   40 1    
    48   30   31 1    
    49   31   32 ar   
    50   31   38 ar   
    51   32   33 ar   
    52   33   34 1    
    53   32   67 1    
    54   33   35 ar   
    55   35   36 1    
    56   34   68 1    
    57   34   69 1    
    58   34   70 1    
    59   35   37 ar   
    60   37   74 1    
    61   37   38 ar   
    62   36   71 1    
    63   36   72 1    
    64   36   73 1    
    65   38   39 1    
    66   39   40 1    
    67   39   41 1    
    68   41   42 1    
    69   42   43 1    
    70   41   75 1    
    71   41   76 1    
    72   42   44 1    
    73   44   45 1    
    74   42   77 1    
    75   43   78 1    
    76   44   46 1    
    77   46   47 1    
    78   44   79 1    
    79   45   80 1    
    80   46   48 1    
    81   48   49 1    
    82   46   81 1    
    83   47   82 1    
    84   49   50 1    
    85   48   83 1    
    86   48   84 1    
    87   50   51 ar   
    88   50   52 ar   
    89   50   53 1    
@<TRIPOS>SUBSTRUCTURE
     1 FAD401      1 GROUP   
@<TRIPOS>SET
ATOM$ORANGE STATIC     ATOMS   COLORGROUP SYSTEM 
54 5 5 6 6 8 8 10 10 12 12 14 14 16 16 17 17 20 \
20 22 22 24 24 27 27 29 29 31 31 32 32 33 33 34 34 35 \
35 36 36 37 37 38 38 40 40 41 41 42 42 44 44 46 46 48 \
48 

