#    Name: 6pxs_4_FAD
#    Modification time : Fri May 22 19:39:57 2020

@<TRIPOS>MOLECULE
6pxs_4_FAD
   84    89     1     0     1
SMALL
NO_CHARGES


@<TRIPOS>ATOM
      1 PA         77.7410  -17.2650   24.0100 P.3       1 FAD401      0.0000 
      2 O1A        78.0870  -15.8270   24.0950 O.co2     1 FAD401      0.0000 
      3 O2A        76.2970  -17.5750   24.4130 O.co2     1 FAD401      0.0000 
      4 O5B        78.0680  -17.8280   22.5740 O.3       1 FAD401      0.0000 
      5 C5B        77.4900  -19.0630   22.1000 C.3       1 FAD401      0.0000 
      6 C4B        77.3250  -18.9650   20.6040 C.3       1 FAD401      0.0000 
      7 O4B        77.3080  -20.2920   20.0250 O.3       1 FAD401      0.0000 
      8 C3B        76.0320  -18.2820   20.1510 C.3       1 FAD401      0.0000 
      9 O3B        76.2730  -17.3850   19.0720 O.3       1 FAD401      0.0000 
     10 C2B        75.1590  -19.4580   19.7090 C.3       1 FAD401      0.0000 
     11 O2B        74.2060  -19.0900   18.7210 O.3       1 FAD401      0.0000 
     12 C1B        76.2210  -20.3840   19.1310 C.3       1 FAD401      0.0000 
     13 N9A        75.8050  -21.7790   19.0240 N.pl3     1 FAD401      0.0000 
     14 C8A        75.3800  -22.5970   20.0360 C.2       1 FAD401      0.0000 
     15 N7A        75.0560  -23.8070   19.6420 N.2       1 FAD401      0.0000 
     16 C5A        75.2760  -23.7770   18.2740 C.ar      1 FAD401      0.0000 
     17 C6A        75.1210  -24.7470   17.2650 C.ar      1 FAD401      0.0000 
     18 N6A        74.6880  -25.9910   17.4910 N.pl3     1 FAD401      0.0000 
     19 N1A        75.4290  -24.3910   15.9980 N.ar      1 FAD401      0.0000 
     20 C2A        75.8620  -23.1500   15.7630 C.ar      1 FAD401      0.0000 
     21 N3A        76.0470  -22.1550   16.6340 N.ar      1 FAD401      0.0000 
     22 C4A        75.7340  -22.5330   17.8780 C.ar      1 FAD401      0.0000 
     23 N1         80.5320  -11.7410   32.5020 N.2       1 FAD401      0.0000 
     24 C2         81.4450  -10.8810   33.0400 C.2       1 FAD401      0.0000 
     25 O2         82.6350  -11.1910   33.1550 O.2       1 FAD401      0.0000 
     26 N3         81.0420   -9.6270   33.4670 N.am      1 FAD401      0.0000 
     27 C4         79.7560   -9.1270   33.4080 C.2       1 FAD401      0.0000 
     28 O4         79.5140   -7.9940   33.8210 O.2       1 FAD401      0.0000 
     29 C4X        78.7920  -10.0490   32.8360 C.2       1 FAD401      0.0000 
     30 N5         77.5510   -9.6590   32.7420 N.2       1 FAD401      0.0000 
     31 C5X        76.6300  -10.5400   32.1960 C.ar      1 FAD401      0.0000 
     32 C6         75.2990  -10.1380   32.0860 C.ar      1 FAD401      0.0000 
     33 C7         74.3370  -10.9840   31.5430 C.ar      1 FAD401      0.0000 
     34 C7M        72.9090  -10.5150   31.4430 C.3       1 FAD401      0.0000 
     35 C8         74.7090  -12.2630   31.1000 C.ar      1 FAD401      0.0000 
     36 C8M        73.6920  -13.2030   30.5080 C.3       1 FAD401      0.0000 
     37 C9         76.0370  -12.6640   31.2060 C.ar      1 FAD401      0.0000 
     38 C9A        76.9970  -11.8180   31.7490 C.ar      1 FAD401      0.0000 
     39 N10        78.3510  -12.1980   31.8680 N.pl3     1 FAD401      0.0000 
     40 C10        79.2760  -11.3370   32.4110 C.2       1 FAD401      0.0000 
     41 C1'        78.8020  -13.5270   31.4260 C.3       1 FAD401      0.0000 
     42 C2'        79.3410  -13.5320   29.9990 C.3       1 FAD401      0.0000 
     43 O2'        78.5950  -12.6300   29.1810 O.3       1 FAD401      0.0000 
     44 C3'        79.2230  -14.9440   29.4260 C.3       1 FAD401      0.0000 
     45 O3'        79.7480  -15.8630   30.3770 O.3       1 FAD401      0.0000 
     46 C4'        79.9630  -15.1350   28.1030 C.3       1 FAD401      0.0000 
     47 O4'        79.6250  -14.0580   27.2300 O.3       1 FAD401      0.0000 
     48 C5'        79.6330  -16.4580   27.4460 C.3       1 FAD401      0.0000 
     49 O5'        80.1140  -16.4400   26.0850 O.3       1 FAD401      0.0000 
     50 P          80.2150  -17.7620   25.2380 P.3       1 FAD401      0.0000 
     51 O1P        80.8940  -17.4730   23.8950 O.co2     1 FAD401      0.0000 
     52 O2P        80.8420  -18.8450   26.0310 O.co2     1 FAD401      0.0000 
     53 O3P        78.6940  -18.1100   24.9550 O.3       1 FAD401      0.0000 
     54 H51A       76.6530  -19.1970   22.5030 H         1 FAD401      0.0000 
     55 H52A       78.0580  -19.7800   22.3100 H         1 FAD401      0.0000 
     56 H4B        78.0530  -18.5030   20.2320 H         1 FAD401      0.0000 
     57 H3B        75.6400  -17.8370   20.8790 H         1 FAD401      0.0000 
     58 HO3A       77.0790  -17.1780   19.0530 H         1 FAD401      0.0000 
     59 H2B        74.7250  -19.8540   20.4420 H         1 FAD401      0.0000 
     60 HO2A       74.4060  -18.3400   18.4210 H         1 FAD401      0.0000 
     61 H1B        76.4850  -20.0870   18.2800 H         1 FAD401      0.0000 
     62 H8A        75.3320  -22.3230   20.9220 H         1 FAD401      0.0000 
     63 H61A       74.8260  -26.6120   16.9010 H         1 FAD401      0.0000 
     64 H62A       74.2650  -26.1750   18.2260 H         1 FAD401      0.0000 
     65 H2A        76.0610  -22.9530   14.8770 H         1 FAD401      0.0000 
     66 HN3        81.6520   -9.1090   33.8030 H         1 FAD401      0.0000 
     67 H6         75.2010   -9.2760   32.4180 H         1 FAD401      0.0000 
     68 HM71       72.6300  -10.5500   30.5470 H         1 FAD401      0.0000 
     69 HM72       72.8470   -9.6320   31.7560 H         1 FAD401      0.0000 
     70 HM73       72.3600  -11.0710   31.9640 H         1 FAD401      0.0000 
     71 HM81       74.1280  -13.9590   30.1620 H         1 FAD401      0.0000 
     72 HM82       73.2270  -12.7670   29.8180 H         1 FAD401      0.0000 
     73 HM83       73.0860  -13.4690   31.1750 H         1 FAD401      0.0000 
     74 H9         75.9840  -13.5910   31.1650 H         1 FAD401      0.0000 
     75 H1'1       79.4820  -13.8190   32.0040 H         1 FAD401      0.0000 
     76 H1'2       78.0760  -14.1200   31.4730 H         1 FAD401      0.0000 
     77 H2'        80.2430  -13.2700   30.0060 H         1 FAD401      0.0000 
     78 HO2'       77.8320  -12.9350   29.0570 H         1 FAD401      0.0000 
     79 H3'        78.3140  -15.1380   29.2920 H         1 FAD401      0.0000 
     80 HO3'       79.1220  -16.2170   30.7960 H         1 FAD401      0.0000 
     81 H4'        80.8870  -15.1090   28.2700 H         1 FAD401      0.0000 
     82 HO4'       80.2010  -13.9930   26.6330 H         1 FAD401      0.0000 
     83 H5'1       80.0480  -17.1560   27.9170 H         1 FAD401      0.0000 
     84 H5'2       78.7030  -16.5870   27.4490 H         1 FAD401      0.0000 
@<TRIPOS>BOND
     1    1    2 ar   
     2    1    3 ar   
     3    1    4 1    
     4    1   53 1    
     5    4    5 1    
     6    5    6 1    
     7    6    7 1    
     8    5   54 1    
     9    5   55 1    
    10    6    8 1    
    11    7   12 1    
    12    6   56 1    
    13    8    9 1    
    14    8   10 1    
    15   10   11 1    
    16    8   57 1    
    17    9   58 1    
    18   10   12 1    
    19   12   13 1    
    20   10   59 1    
    21   11   60 1    
    22   13   14 1    
    23   12   61 1    
    24   13   22 1    
    25   14   15 2    
    26   15   16 1    
    27   14   62 1    
    28   16   17 ar   
    29   16   22 ar   
    30   17   18 1    
    31   17   19 ar   
    32   19   20 ar   
    33   18   63 1    
    34   18   64 1    
    35   20   21 ar   
    36   21   22 ar   
    37   20   65 1    
    38   23   24 1    
    39   23   40 2    
    40   24   25 2    
    41   24   26 am   
    42   26   27 am   
    43   27   28 2    
    44   26   66 1    
    45   27   29 1    
    46   29   30 2    
    47   29   40 1    
    48   30   31 1    
    49   31   32 ar   
    50   31   38 ar   
    51   32   33 ar   
    52   33   34 1    
    53   32   67 1    
    54   33   35 ar   
    55   35   36 1    
    56   34   68 1    
    57   34   69 1    
    58   34   70 1    
    59   35   37 ar   
    60   37   74 1    
    61   37   38 ar   
    62   36   71 1    
    63   36   72 1    
    64   36   73 1    
    65   38   39 1    
    66   39   40 1    
    67   39   41 1    
    68   41   42 1    
    69   42   43 1    
    70   41   75 1    
    71   41   76 1    
    72   42   44 1    
    73   44   45 1    
    74   42   77 1    
    75   43   78 1    
    76   44   46 1    
    77   46   47 1    
    78   44   79 1    
    79   45   80 1    
    80   46   48 1    
    81   48   49 1    
    82   46   81 1    
    83   47   82 1    
    84   49   50 1    
    85   48   83 1    
    86   48   84 1    
    87   50   51 ar   
    88   50   52 ar   
    89   50   53 1    
@<TRIPOS>SUBSTRUCTURE
     1 FAD401      1 GROUP   
@<TRIPOS>SET
ATOM$ORANGE STATIC     ATOMS   COLORGROUP SYSTEM 
54 5 5 6 6 8 8 10 10 12 12 14 14 16 16 17 17 20 \
20 22 22 24 24 27 27 29 29 31 31 32 32 33 33 34 34 35 \
35 36 36 37 37 38 38 40 40 41 41 42 42 44 44 46 46 48 \
48 

