#    Name: 6pxs_2_FAD
#    Modification time : Fri May 22 19:39:52 2020

@<TRIPOS>MOLECULE
6pxs_2_FAD
   84    89     1     0     1
SMALL
NO_CHARGES


@<TRIPOS>ATOM
      1 PA         44.3050   14.6790   24.3670 P.3       1 FAD401      0.0000 
      2 O1A        44.0490   13.2290   24.1820 O.co2     1 FAD401      0.0000 
      3 O2A        45.7520   15.0280   24.7340 O.co2     1 FAD401      0.0000 
      4 O5B        43.8440   15.4840   23.0890 O.3       1 FAD401      0.0000 
      5 C5B        44.5300   16.6820   22.6670 C.3       1 FAD401      0.0000 
      6 C4B        44.8180   16.5850   21.1890 C.3       1 FAD401      0.0000 
      7 O4B        44.8440   17.9120   20.6120 O.3       1 FAD401      0.0000 
      8 C3B        46.1590   15.9360   20.8420 C.3       1 FAD401      0.0000 
      9 O3B        46.0240   15.0420   19.7440 O.3       1 FAD401      0.0000 
     10 C2B        47.0410   17.1360   20.4860 C.3       1 FAD401      0.0000 
     11 O2B        48.0720   16.8000   19.5650 O.3       1 FAD401      0.0000 
     12 C1B        46.0150   18.0610   19.8420 C.3       1 FAD401      0.0000 
     13 N9A        46.4030   19.4680   19.8410 N.pl3     1 FAD401      0.0000 
     14 C8A        46.8320   20.2090   20.9100 C.2       1 FAD401      0.0000 
     15 N7A        47.1250   21.4530   20.6110 N.2       1 FAD401      0.0000 
     16 C5A        46.8780   21.5320   19.2500 C.ar      1 FAD401      0.0000 
     17 C6A        46.9940   22.5840   18.3230 C.ar      1 FAD401      0.0000 
     18 N6A        47.4070   23.8130   18.6430 N.pl3     1 FAD401      0.0000 
     19 N1A        46.6670   22.3270   17.0370 N.ar      1 FAD401      0.0000 
     20 C2A        46.2530   21.1010   16.7070 C.ar      1 FAD401      0.0000 
     21 N3A        46.1040   20.0340   17.4950 N.ar      1 FAD401      0.0000 
     22 C4A        46.4360   20.3150   18.7610 C.ar      1 FAD401      0.0000 
     23 N1         40.9130    8.2840   32.2160 N.2       1 FAD401      0.0000 
     24 C2         39.9450    7.4020   32.6030 C.2       1 FAD401      0.0000 
     25 O2         38.7540    7.7290   32.6540 O.2       1 FAD401      0.0000 
     26 N3         40.2920    6.1050   32.9450 N.am      1 FAD401      0.0000 
     27 C4         41.5710    5.5820   32.9400 C.2       1 FAD401      0.0000 
     28 O4         41.7640    4.4110   33.2650 O.2       1 FAD401      0.0000 
     29 C4X        42.5920    6.5270   32.5310 C.2       1 FAD401      0.0000 
     30 N5         43.8250    6.1160   32.5010 N.2       1 FAD401      0.0000 
     31 C5X        44.8020    7.0150   32.1080 C.ar      1 FAD401      0.0000 
     32 C6         46.1280    6.5860   32.0690 C.ar      1 FAD401      0.0000 
     33 C7         47.1490    7.4480   31.6830 C.ar      1 FAD401      0.0000 
     34 C7M        48.5700    6.9490   31.6560 C.3       1 FAD401      0.0000 
     35 C8         46.8420    8.7700   31.3270 C.ar      1 FAD401      0.0000 
     36 C8M        47.9260    9.7270   30.9040 C.3       1 FAD401      0.0000 
     37 C9         45.5190    9.1990   31.3640 C.ar      1 FAD401      0.0000 
     38 C9A        44.4990    8.3370   31.7510 C.ar      1 FAD401      0.0000 
     39 N10        43.1480    8.7410   31.7960 N.pl3     1 FAD401      0.0000 
     40 C10        42.1670    7.8590   32.1860 C.2       1 FAD401      0.0000 
     41 C1'        42.7600   10.1180   31.4430 C.3       1 FAD401      0.0000 
     42 C2'        42.4050   10.2830   29.9680 C.3       1 FAD401      0.0000 
     43 O2'        43.2850    9.5040   29.1570 O.3       1 FAD401      0.0000 
     44 C3'        42.5410   11.7560   29.5800 C.3       1 FAD401      0.0000 
     45 O3'        42.0560   12.5630   30.6480 O.3       1 FAD401      0.0000 
     46 C4'        41.7890   12.1310   28.3020 C.3       1 FAD401      0.0000 
     47 O4'        42.0510   11.1410   27.3060 O.3       1 FAD401      0.0000 
     48 C5'        42.1770   13.4970   27.7800 C.3       1 FAD401      0.0000 
     49 O5'        41.7580   13.6120   26.4030 O.3       1 FAD401      0.0000 
     50 P          41.8100   14.9920   25.6450 P.3       1 FAD401      0.0000 
     51 O1P        41.2250   14.8400   24.2370 O.co2     1 FAD401      0.0000 
     52 O2P        41.1860   16.0670   26.4550 O.co2     1 FAD401      0.0000 
     53 O3P        43.3700   15.2510   25.5130 O.3       1 FAD401      0.0000 
     54 H51A       45.3360   16.7670   23.1400 H         1 FAD401      0.0000 
     55 H52A       43.9880   17.4310   22.8340 H         1 FAD401      0.0000 
     56 H4B        44.1360   16.1010   20.7610 H         1 FAD401      0.0000 
     57 H3B        46.5030   15.4950   21.5960 H         1 FAD401      0.0000 
     58 HO3A       46.7680   14.7190   19.5600 H         1 FAD401      0.0000 
     59 H2B        47.4080   17.5220   21.2590 H         1 FAD401      0.0000 
     60 HO2A       48.2160   17.4480   19.0640 H         1 FAD401      0.0000 
     61 H1B        45.8470   17.7910   18.9580 H         1 FAD401      0.0000 
     62 H8A        46.9030   19.8640   21.7690 H         1 FAD401      0.0000 
     63 H61A       47.8330   23.9480   19.3870 H         1 FAD401      0.0000 
     64 H62A       47.2510   24.4770   18.1060 H         1 FAD401      0.0000 
     65 H2A        46.0400   20.9730   15.8120 H         1 FAD401      0.0000 
     66 HN3        39.6490    5.5740   33.1850 H         1 FAD401      0.0000 
     67 H6         46.1810    5.6960   32.3290 H         1 FAD401      0.0000 
     68 HM71       48.9210    7.0510   30.7910 H         1 FAD401      0.0000 
     69 HM72       48.5880    6.0420   31.8970 H         1 FAD401      0.0000 
     70 HM73       49.0870    7.4440   32.2640 H         1 FAD401      0.0000 
     71 HM81       47.5390   10.5340   30.6200 H         1 FAD401      0.0000 
     72 HM82       48.4180    9.3500   30.1970 H         1 FAD401      0.0000 
     73 HM83       48.4990    9.8930   31.6290 H         1 FAD401      0.0000 
     74 H9         45.5950   10.1240   31.4110 H         1 FAD401      0.0000 
     75 H1'1       42.0130   10.3590   31.9590 H         1 FAD401      0.0000 
     76 H1'2       43.4770   10.6900   31.6440 H         1 FAD401      0.0000 
     77 H2'        41.5200   10.0020   29.8280 H         1 FAD401      0.0000 
     78 HO2'       44.0330    9.8670   29.1310 H         1 FAD401      0.0000 
     79 H3'        43.4520   11.9460   29.4580 H         1 FAD401      0.0000 
     80 HO3'       41.3650   12.2240   30.9640 H         1 FAD401      0.0000 
     81 H4'        40.8690   12.1350   28.4910 H         1 FAD401      0.0000 
     82 HO4'       42.8140   11.2560   26.9960 H         1 FAD401      0.0000 
     83 H5'1       41.7570   14.1620   28.2930 H         1 FAD401      0.0000 
     84 H5'2       43.1090   13.6020   27.8340 H         1 FAD401      0.0000 
@<TRIPOS>BOND
     1    1    2 ar   
     2    1    3 ar   
     3    1    4 1    
     4    1   53 1    
     5    4    5 1    
     6    5    6 1    
     7    6    7 1    
     8    5   54 1    
     9    5   55 1    
    10    6    8 1    
    11    7   12 1    
    12    6   56 1    
    13    8    9 1    
    14    8   10 1    
    15   10   11 1    
    16    8   57 1    
    17    9   58 1    
    18   10   12 1    
    19   12   13 1    
    20   10   59 1    
    21   11   60 1    
    22   13   14 1    
    23   12   61 1    
    24   13   22 1    
    25   14   15 2    
    26   15   16 1    
    27   14   62 1    
    28   16   17 ar   
    29   16   22 ar   
    30   17   18 1    
    31   17   19 ar   
    32   19   20 ar   
    33   18   63 1    
    34   18   64 1    
    35   20   21 ar   
    36   21   22 ar   
    37   20   65 1    
    38   23   24 1    
    39   23   40 2    
    40   24   25 2    
    41   24   26 am   
    42   26   27 am   
    43   27   28 2    
    44   26   66 1    
    45   27   29 1    
    46   29   30 2    
    47   29   40 1    
    48   30   31 1    
    49   31   32 ar   
    50   31   38 ar   
    51   32   33 ar   
    52   33   34 1    
    53   32   67 1    
    54   33   35 ar   
    55   35   36 1    
    56   34   68 1    
    57   34   69 1    
    58   34   70 1    
    59   35   37 ar   
    60   37   74 1    
    61   37   38 ar   
    62   36   71 1    
    63   36   72 1    
    64   36   73 1    
    65   38   39 1    
    66   39   40 1    
    67   39   41 1    
    68   41   42 1    
    69   42   43 1    
    70   41   75 1    
    71   41   76 1    
    72   42   44 1    
    73   44   45 1    
    74   42   77 1    
    75   43   78 1    
    76   44   46 1    
    77   46   47 1    
    78   44   79 1    
    79   45   80 1    
    80   46   48 1    
    81   48   49 1    
    82   46   81 1    
    83   47   82 1    
    84   49   50 1    
    85   48   83 1    
    86   48   84 1    
    87   50   51 ar   
    88   50   52 ar   
    89   50   53 1    
@<TRIPOS>SUBSTRUCTURE
     1 FAD401      1 GROUP   
@<TRIPOS>SET
ATOM$ORANGE STATIC     ATOMS   COLORGROUP SYSTEM 
54 5 5 6 6 8 8 10 10 12 12 14 14 16 16 17 17 20 \
20 22 22 24 24 27 27 29 29 31 31 32 32 33 33 34 34 35 \
35 36 36 37 37 38 38 40 40 41 41 42 42 44 44 46 46 48 \
48 

