#    Name: 6a8c_2_ADP
#    Modification time : Fri May 22 19:27:47 2020

@<TRIPOS>MOLECULE
6a8c_2_ADP
   27    29     1     0     1
SMALL
NO_CHARGES


@<TRIPOS>ATOM
      1 PB         -6.8890  -39.1700  -20.7060 P.3       1 ADP511      0.0000 
      2 O1B        -7.4460  -39.6350  -19.3830 O.co2     1 ADP511      0.0000 
      3 O2B        -6.4570  -37.7400  -20.6860 O.co2     1 ADP511      0.0000 
      4 O3B        -7.7100  -39.5150  -21.9170 O.co2     1 ADP511      0.0000 
      5 PA         -5.5500  -41.4720  -21.7440 P.3       1 ADP511      0.0000 
      6 O1A        -6.4210  -42.4840  -21.0470 O.co2     1 ADP511      0.0000 
      7 O2A        -5.8040  -41.1120  -23.1890 O.co2     1 ADP511      0.0000 
      8 O3A        -5.5630  -40.0840  -20.8900 O.3       1 ADP511      0.0000 
      9 O5'        -4.0390  -41.9520  -21.5720 O.3       1 ADP511      0.0000 
     10 C5'        -3.0000  -41.2550  -22.2310 C.3       1 ADP511      0.0000 
     11 C4'        -1.6650  -41.6470  -21.6200 C.3       1 ADP511      0.0000 
     12 O4'        -1.6820  -41.4050  -20.2070 O.3       1 ADP511      0.0000 
     13 C3'        -1.3550  -43.1280  -21.7820 C.3       1 ADP511      0.0000 
     14 O3'        -0.6620  -43.3820  -23.0030 O.3       1 ADP511      0.0000 
     15 C2'        -0.5050  -43.4200  -20.5680 C.3       1 ADP511      0.0000 
     16 O2'         0.8580  -43.0460  -20.8250 O.3       1 ADP511      0.0000 
     17 C1'        -1.0530  -42.4830  -19.5160 C.3       1 ADP511      0.0000 
     18 N9         -2.0560  -43.1500  -18.6730 N.pl3     1 ADP511      0.0000 
     19 C8         -3.3950  -42.9430  -18.7100 C.2       1 ADP511      0.0000 
     20 N7         -4.0070  -43.6840  -17.7560 N.2       1 ADP511      0.0000 
     21 C5         -3.0570  -44.3660  -17.1030 C.ar      1 ADP511      0.0000 
     22 C6         -3.0260  -45.3220  -15.9880 C.ar      1 ADP511      0.0000 
     23 N6         -4.1650  -45.6860  -15.3890 N.pl3     1 ADP511      0.0000 
     24 N1         -1.8240  -45.8210  -15.6000 N.ar      1 ADP511      0.0000 
     25 C2         -0.6800  -45.4440  -16.2020 C.ar      1 ADP511      0.0000 
     26 N3         -0.6490  -44.5790  -17.2380 N.ar      1 ADP511      0.0000 
     27 C4         -1.7830  -44.0150  -17.7050 C.ar      1 ADP511      0.0000 
@<TRIPOS>BOND
     1    1    2 ar   
     2    1    3 ar   
     3    1    4 ar   
     4    1    8 1    
     5    5    6 ar   
     6    5    7 ar   
     7    5    8 1    
     8    5    9 1    
     9    9   10 1    
    10   10   11 1    
    11   11   12 1    
    12   11   13 1    
    13   12   17 1    
    14   13   14 1    
    15   13   15 1    
    16   15   16 1    
    17   15   17 1    
    18   17   18 1    
    19   18   19 1    
    20   18   27 1    
    21   19   20 2    
    22   20   21 1    
    23   21   22 ar   
    24   21   27 ar   
    25   22   23 1    
    26   22   24 ar   
    27   24   25 ar   
    28   25   26 ar   
    29   26   27 ar   
@<TRIPOS>SUBSTRUCTURE
     1 ADP511      1 GROUP   
@<TRIPOS>SET
ATOM$ORANGE STATIC     ATOMS   COLORGROUP SYSTEM 
20 10 10 11 11 13 13 15 15 17 17 19 19 21 21 22 22 25 \
25 27 27 

