#    Name: 6fox_3_FAD
#    Modification time : Fri May 22 19:27:39 2020

@<TRIPOS>MOLECULE
6fox_3_FAD
   84    89     1     0     1
SMALL
NO_CHARGES


@<TRIPOS>ATOM
      1 PA        124.8210   27.9400 -122.6200 P.3       1 FAD502      0.0000 
      2 O1A       125.6890   28.6410 -121.6210 O.co2     1 FAD502      0.0000 
      3 O2A       125.4550   26.6690 -123.1220 O.co2     1 FAD502      0.0000 
      4 O5B       124.5110   28.9520 -123.9290 O.3       1 FAD502      0.0000 
      5 C5B       124.2460   30.3450 -123.6860 C.3       1 FAD502      0.0000 
      6 C4B       124.5190   31.0150 -124.8620 C.3       1 FAD502      0.0000 
      7 O4B       123.8200   32.3760 -124.8690 O.3       1 FAD502      0.0000 
      8 C3B       126.0660   31.3530 -124.9990 C.3       1 FAD502      0.0000 
      9 O3B       126.4520   31.0900 -126.4310 O.3       1 FAD502      0.0000 
     10 C2B       126.1720   32.5680 -124.6750 C.3       1 FAD502      0.0000 
     11 O2B       127.2670   33.2400 -125.4080 O.3       1 FAD502      0.0000 
     12 C1B       124.7480   33.2470 -125.1380 C.3       1 FAD502      0.0000 
     13 N9A       124.3880   34.4580 -124.4740 N.pl3     1 FAD502      0.0000 
     14 C8A       124.4780   34.7520 -123.2000 C.2       1 FAD502      0.0000 
     15 N7A       124.0010   36.0060 -122.9990 N.2       1 FAD502      0.0000 
     16 C5A       123.5890   36.4820 -124.1940 C.ar      1 FAD502      0.0000 
     17 C6A       123.0040   37.6820 -124.6450 C.ar      1 FAD502      0.0000 
     18 N6A       122.7260   38.7900 -123.7050 N.pl3     1 FAD502      0.0000 
     19 N1A       122.7120   37.8150 -125.9350 N.ar      1 FAD502      0.0000 
     20 C2A       122.9600   36.8470 -126.8000 C.ar      1 FAD502      0.0000 
     21 N3A       123.5080   35.7010 -126.4230 N.ar      1 FAD502      0.0000 
     22 C4A       123.8230   35.5090 -125.1240 C.ar      1 FAD502      0.0000 
     23 N1        126.4650   19.8010 -117.7760 N.2       1 FAD502      0.0000 
     24 C2        126.3920   18.3650 -118.1270 C.2       1 FAD502      0.0000 
     25 O2        125.3800   17.9040 -118.5510 O.2       1 FAD502      0.0000 
     26 N3        127.5800   17.5150 -117.9430 N.am      1 FAD502      0.0000 
     27 C4        128.7830   18.1010 -117.4170 C.2       1 FAD502      0.0000 
     28 O4        129.7400   17.4290 -117.2670 O.2       1 FAD502      0.0000 
     29 C4X       128.8370   19.5910 -117.0620 C.2       1 FAD502      0.0000 
     30 N5        129.9680   20.1650 -116.5590 N.2       1 FAD502      0.0000 
     31 C5X       129.9770   21.4500 -116.2810 C.ar      1 FAD502      0.0000 
     32 C6        131.1980   21.9710 -115.8000 C.ar      1 FAD502      0.0000 
     33 C7        131.3100   23.3060 -115.4980 C.ar      1 FAD502      0.0000 
     34 C7M       132.6570   23.8330 -114.9750 C.3       1 FAD502      0.0000 
     35 C8        130.2110   24.1470 -115.6690 C.ar      1 FAD502      0.0000 
     36 C8M       130.2910   25.6480 -115.3420 C.3       1 FAD502      0.0000 
     37 C9        129.0320   23.6390 -116.1370 C.ar      1 FAD502      0.0000 
     38 C9A       128.9030   22.2550 -116.4530 C.ar      1 FAD502      0.0000 
     39 N10       127.7560   21.7450 -116.9170 N.pl3     1 FAD502      0.0000 
     40 C10       127.6980   20.4110 -117.2370 C.2       1 FAD502      0.0000 
     41 C1'       126.5680   22.5610 -117.1140 C.3       1 FAD502      0.0000 
     42 C2'       126.4210   23.0350 -118.5780 C.3       1 FAD502      0.0000 
     43 O2'       127.5800   23.7090 -118.9620 O.3       1 FAD502      0.0000 
     44 C3'       125.2290   23.9840 -118.7150 C.3       1 FAD502      0.0000 
     45 O3'       124.1470   23.4980 -117.9990 O.3       1 FAD502      0.0000 
     46 C4'       124.8250   24.0920 -120.2140 C.3       1 FAD502      0.0000 
     47 O4'       125.7990   24.7830 -120.9270 O.3       1 FAD502      0.0000 
     48 C5'       123.5010   24.8460 -120.3350 C.3       1 FAD502      0.0000 
     49 O5'       123.2280   24.9810 -121.6670 O.3       1 FAD502      0.0000 
     50 P         122.4580   26.3320 -122.2170 P.3       1 FAD502      0.0000 
     51 O1P       121.1570   26.5640 -121.4840 O.co2     1 FAD502      0.0000 
     52 O2P       122.2270   26.2170 -123.7030 O.co2     1 FAD502      0.0000 
     53 O3P       123.3950   27.6160 -121.8860 O.3       1 FAD502      0.0000 
     54 H51A      124.7990   30.6640 -122.9980 H         1 FAD502      0.0000 
     55 H52A      123.3450   30.4650 -123.4500 H         1 FAD502      0.0000 
     56 H4B       124.2440   30.4890 -125.5900 H         1 FAD502      0.0000 
     57 H3B       126.6080   30.8600 -124.4110 H         1 FAD502      0.0000 
     58 HO3A      127.0740   30.5380 -126.4540 H         1 FAD502      0.0000 
     59 H2B       126.3170   32.6280 -123.7490 H         1 FAD502      0.0000 
     60 HO2A      127.6470   33.7830 -124.9060 H         1 FAD502      0.0000 
     61 H1B       124.8550   33.4180 -126.0550 H         1 FAD502      0.0000 
     62 H8A       124.8150   34.1920 -122.5400 H         1 FAD502      0.0000 
     63 H61A      122.4700   39.5630 -124.0070 H         1 FAD502      0.0000 
     64 H62A      122.8180   38.6690 -122.8510 H         1 FAD502      0.0000 
     65 H2A       122.7440   36.9730 -127.6950 H         1 FAD502      0.0000 
     66 HN3       127.5530   16.6720 -118.1490 H         1 FAD502      0.0000 
     67 H6        131.9280   21.4080 -115.6860 H         1 FAD502      0.0000 
     68 HM71      132.5340   24.2170 -114.1270 H         1 FAD502      0.0000 
     69 HM72      132.9900   24.4810 -115.5680 H         1 FAD502      0.0000 
     70 HM73      133.2670   23.1220 -114.9120 H         1 FAD502      0.0000 
     71 HM81      130.0180   26.1620 -116.1170 H         1 FAD502      0.0000 
     72 HM82      131.2030   25.8780 -115.1050 H         1 FAD502      0.0000 
     73 HM83      129.7030   25.8470 -114.5970 H         1 FAD502      0.0000 
     74 H9        128.3040   24.2050 -116.2500 H         1 FAD502      0.0000 
     75 H1'1      125.8110   22.0560 -116.8830 H         1 FAD502      0.0000 
     76 H1'2      126.6210   23.3140 -116.5560 H         1 FAD502      0.0000 
     77 H2'       126.2820   22.2850 -119.1250 H         1 FAD502      0.0000 
     78 HO2'      127.4080   24.2180 -119.5980 H         1 FAD502      0.0000 
     79 H3'       125.4710   24.8280 -118.3800 H         1 FAD502      0.0000 
     80 HO3'      124.1610   23.8110 -117.2280 H         1 FAD502      0.0000 
     81 H4'       124.7380   23.2250 -120.5640 H         1 FAD502      0.0000 
     82 HO4'      125.8590   25.5590 -120.6350 H         1 FAD502      0.0000 
     83 H5'1      122.8160   24.3600 -119.9150 H         1 FAD502      0.0000 
     84 H5'2      123.5770   25.6930 -119.9360 H         1 FAD502      0.0000 
@<TRIPOS>BOND
     1    1    2 ar   
     2    1    3 ar   
     3    1    4 1    
     4    1   53 1    
     5    4    5 1    
     6    5    6 1    
     7    5   54 1    
     8    5   55 1    
     9    6    7 1    
    10    6    8 1    
    11    6   56 1    
    12    7   12 1    
    13    8    9 1    
    14    8   10 1    
    15    8   57 1    
    16   10   59 1    
    17    9   58 1    
    18   10   11 1    
    19   10   12 1    
    20   11   60 1    
    21   12   13 1    
    22   12   61 1    
    23   13   14 1    
    24   13   22 1    
    25   14   15 2    
    26   14   62 1    
    27   15   16 1    
    28   16   17 ar   
    29   16   22 ar   
    30   17   18 1    
    31   17   19 ar   
    32   18   63 1    
    33   18   64 1    
    34   19   20 ar   
    35   20   21 ar   
    36   20   65 1    
    37   21   22 ar   
    38   23   24 1    
    39   23   40 2    
    40   24   25 2    
    41   24   26 am   
    42   26   27 am   
    43   26   66 1    
    44   27   28 2    
    45   27   29 1    
    46   29   30 2    
    47   29   40 1    
    48   30   31 1    
    49   31   32 ar   
    50   31   38 ar   
    51   32   33 ar   
    52   32   67 1    
    53   33   34 1    
    54   33   35 ar   
    55   34   68 1    
    56   34   69 1    
    57   34   70 1    
    58   35   36 1    
    59   35   37 ar   
    60   36   71 1    
    61   36   72 1    
    62   36   73 1    
    63   37   38 ar   
    64   37   74 1    
    65   38   39 1    
    66   39   40 1    
    67   39   41 1    
    68   41   42 1    
    69   41   75 1    
    70   41   76 1    
    71   42   43 1    
    72   42   44 1    
    73   42   77 1    
    74   43   78 1    
    75   44   45 1    
    76   44   46 1    
    77   44   79 1    
    78   45   80 1    
    79   46   47 1    
    80   46   48 1    
    81   46   81 1    
    82   47   82 1    
    83   48   49 1    
    84   48   83 1    
    85   48   84 1    
    86   49   50 1    
    87   50   51 ar   
    88   50   52 ar   
    89   50   53 1    
@<TRIPOS>SUBSTRUCTURE
     1 FAD502      1 GROUP   
@<TRIPOS>SET
ATOM$ORANGE STATIC     ATOMS   COLORGROUP SYSTEM 
54 5 5 6 6 8 8 10 10 12 12 14 14 16 16 17 17 20 \
20 22 22 24 24 27 27 29 29 31 31 32 32 33 33 34 34 35 \
35 36 36 37 37 38 38 40 40 41 41 42 42 44 44 46 46 48 \
48 

