#    Name: 6k28_1_TZE
#    Modification time : Fri May 22 19:26:12 2020

@<TRIPOS>MOLECULE
6k28_1_TZE
   18    18     1     0     0
SMALL
NO_CHARGES


@<TRIPOS>ATOM
      1 C1         24.2400   64.2580   36.6610 C.2       1 TZE301      0.0000 
      2 N1         23.1750   65.1320   37.0160 N.2       1 TZE301      0.0000 
      3 C2         21.8120   64.4100   36.7580 C.2       1 TZE301      0.0000 
      4 C3         22.1070   63.0910   36.2320 C.2       1 TZE301      0.0000 
      5 S1         23.6480   62.9130   36.1510 S.3       1 TZE301      0.0000 
      6 CM         20.4150   65.0140   36.9950 C.3       1 TZE301      0.0000 
      7 C1'        21.0630   62.0970   35.8480 C.3       1 TZE301      0.0000 
      8 C2'        20.8940   62.0750   34.3020 C.3       1 TZE301      0.0000 
      9 OXT        21.8920   61.2100   33.7420 O.3       1 TZE301      0.0000 
     10 H1         25.1920   64.4650   36.7390 H         1 TZE301      0.0000 
     11 H1M        20.2910   65.7970   36.4150 H         1 TZE301      0.0000 
     12 H2M        19.7290   64.3380   36.7760 H         1 TZE301      0.0000 
     13 H3M        20.3230   65.2730   37.9330 H         1 TZE301      0.0000 
     14 H11'       21.3280   61.1920   36.1710 H         1 TZE301      0.0000 
     15 H12'       20.2170   62.3410   36.2650 H         1 TZE301      0.0000 
     16 H21'       20.9990   62.9800   33.9430 H         1 TZE301      0.0000 
     17 H22'       19.9880   61.7270   34.0720 H         1 TZE301      0.0000 
     18 HXT        21.9940   61.3950   32.8590 H         1 TZE301      0.0000 
@<TRIPOS>BOND
     1    1    2 2    
     2    1    5 1    
     3    1   10 1    
     4    2    3 1    
     5    3    4 2    
     6    3    6 1    
     7    4    5 1    
     8    4    7 1    
     9    6   11 1    
    10    6   12 1    
    11    6   13 1    
    12    7    8 1    
    13    7   14 1    
    14    7   15 1    
    15    8    9 1    
    16    8   16 1    
    17    8   17 1    
    18    9   18 1    
@<TRIPOS>SUBSTRUCTURE
     1 TZE301      1 GROUP   
@<TRIPOS>SET

