#    Name: 6k28_2_TZE
#    Modification time : Fri May 22 19:26:18 2020

@<TRIPOS>MOLECULE
6k28_2_TZE
   18    18     1     0     0
SMALL
NO_CHARGES


@<TRIPOS>ATOM
      1 C1         22.8190   62.8080   56.2120 C.2       1 TZE302      0.0000 
      2 N1         22.0530   61.7800   56.8480 N.2       1 TZE302      0.0000 
      3 C2         20.5790   61.8460   56.3270 C.2       1 TZE302      0.0000 
      4 C3         20.4840   62.9400   55.3780 C.2       1 TZE302      0.0000 
      5 S1         21.8900   63.5910   55.2460 S.3       1 TZE302      0.0000 
      6 CM         19.4470   60.9170   56.7920 C.3       1 TZE302      0.0000 
      7 C1'        19.2350   63.3180   54.6440 C.3       1 TZE302      0.0000 
      8 C2'        18.2490   64.1020   55.5520 C.3       1 TZE302      0.0000 
      9 OXT        18.4600   65.5030   55.3390 O.3       1 TZE302      0.0000 
     10 H1         23.7690   62.9820   56.3560 H         1 TZE302      0.0000 
     11 H1M        19.1160   60.3940   56.0300 H         1 TZE302      0.0000 
     12 H2M        19.7980   60.3000   57.4800 H         1 TZE302      0.0000 
     13 H3M        18.7220   61.4480   57.1760 H         1 TZE302      0.0000 
     14 H11'       19.4700   63.8720   53.8490 H         1 TZE302      0.0000 
     15 H12'       18.7950   62.5060   54.3360 H         1 TZE302      0.0000 
     16 H21'       18.4140   63.8790   56.4920 H         1 TZE302      0.0000 
     17 H22'       17.3120   63.8650   55.3100 H         1 TZE302      0.0000 
     18 HXT        17.7230   65.9640   55.5990 H         1 TZE302      0.0000 
@<TRIPOS>BOND
     1    1    2 2    
     2    1    5 1    
     3    1   10 1    
     4    2    3 1    
     5    3    4 2    
     6    3    6 1    
     7    4    5 1    
     8    4    7 1    
     9    6   11 1    
    10    6   12 1    
    11    6   13 1    
    12    7    8 1    
    13    7   14 1    
    14    7   15 1    
    15    8    9 1    
    16    8   16 1    
    17    8   17 1    
    18    9   18 1    
@<TRIPOS>SUBSTRUCTURE
     1 TZE302      1 GROUP   
@<TRIPOS>SET

