#    Name: 6k28_3_TZE
#    Modification time : Fri May 22 19:26:24 2020

@<TRIPOS>MOLECULE
6k28_3_TZE
   18    18     1     0     0
SMALL
NO_CHARGES


@<TRIPOS>ATOM
      1 C1         27.1110   46.7080   45.3620 C.2       1 TZE301      0.0000 
      2 N1         26.3570   46.4610   44.1760 N.2       1 TZE301      0.0000 
      3 C2         24.8440   46.3210   44.5400 C.2       1 TZE301      0.0000 
      4 C3         24.7180   46.4960   45.9860 C.2       1 TZE301      0.0000 
      5 S1         26.1170   46.7600   46.5560 S.3       1 TZE301      0.0000 
      6 CM         23.7310   46.0510   43.5100 C.3       1 TZE301      0.0000 
      7 C1'        23.4790   46.4580   46.8180 C.3       1 TZE301      0.0000 
      8 C2'        22.7520   45.0900   46.6900 C.3       1 TZE301      0.0000 
      9 OXT        21.6110   45.1100   47.5590 O.3       1 TZE301      0.0000 
     10 H1         28.0780   46.8390   45.4120 H         1 TZE301      0.0000 
     11 H1M        23.1070   46.8090   43.4930 H         1 TZE301      0.0000 
     12 H2M        24.1370   45.9450   42.6160 H         1 TZE301      0.0000 
     13 H3M        23.2560   45.2300   43.7460 H         1 TZE301      0.0000 
     14 H11'       22.8690   47.1960   46.5430 H         1 TZE301      0.0000 
     15 H12'       23.7300   46.5820   47.7510 H         1 TZE301      0.0000 
     16 H21'       22.4590   44.9560   45.7650 H         1 TZE301      0.0000 
     17 H22'       23.3690   44.3540   46.9570 H         1 TZE301      0.0000 
     18 HXT        21.8640   44.8690   48.3970 H         1 TZE301      0.0000 
@<TRIPOS>BOND
     1    1    2 2    
     2    1    5 1    
     3    1   10 1    
     4    2    3 1    
     5    3    4 2    
     6    3    6 1    
     7    4    5 1    
     8    4    7 1    
     9    6   11 1    
    10    6   12 1    
    11    6   13 1    
    12    7    8 1    
    13    7   14 1    
    14    7   15 1    
    15    8    9 1    
    16    8   16 1    
    17    8   17 1    
    18    9   18 1    
@<TRIPOS>SUBSTRUCTURE
     1 TZE301      1 GROUP   
@<TRIPOS>SET

