#    Name: 6k28_1_TZE_CAVITY_N1_4
#    Modification time : Fri May 22 19:26:13 2020

@<TRIPOS>MOLECULE
6k28_1_TZE_CAVITY_N1_4
   45     0     4     0     0
SMALL
NO_CHARGES


@<TRIPOS>ATOM
      1 N          20.8800   62.0300   34.1300 N.am      1 ALA2        0.0000 
      2 N          19.7000   65.4700   33.6000 N.am      1 ALA2        0.0000 
      3 O          22.6200   62.1700   35.3500 O.2       1 ALA2        0.0000 
      4 N          21.9000   61.4300   36.4500 N.am      1 ALA2        0.0000 
      5 N          19.5100   65.7300   35.7000 N.am      1 ALA2        0.0000 
      6 N          22.1400   66.3300   33.7200 N.am      1 ALA2        0.0000 
      7 N          21.4300   65.6000   34.8100 N.am      1 ALA2        0.0000 
      8 N          20.7200   64.8700   35.9100 N.am      1 ALA2        0.0000 
      9 N          23.8500   63.8900   35.2500 N.am      1 ALA2        0.0000 
     10 N          23.1400   63.1600   36.3500 N.am      1 ALA2        0.0000 
     11 N          21.2400   65.8600   36.9100 N.am      1 ALA2        0.0000 
     12 O          23.1700   65.7300   36.0300 O.2       1 ALA2        0.0000 
     13 O          22.4500   65.0000   37.1300 O.2       1 ALA2        0.0000 
     14 N          25.0900   65.6100   35.1500 N.am      1 ALA2        0.0000 
     15 N          24.3800   64.8800   36.2400 N.am      1 ALA2        0.0000 
     16 N          23.6600   64.1500   37.3400 N.am      1 ALA2        0.0000 
     17 O          24.4000   67.4500   35.9300 O.2       1 ALA2        0.0000 
     18 OD1        25.8000   66.3400   34.0500 O.co2     2 ASP3        0.0000 
     19 CA         21.1000   64.3500   31.7200 C.3       3 GLY6        0.0000 
     20 CA         21.6000   62.7600   33.0300 C.3       3 GLY6        0.0000 
     21 CA         18.9800   64.7400   34.7000 C.3       3 GLY6        0.0000 
     22 CA         20.1900   63.8800   34.9200 C.3       3 GLY6        0.0000 
     23 CA         22.8300   64.4800   32.9300 C.3       3 GLY6        0.0000 
     24 CA         22.1200   63.7500   34.0300 C.3       3 GLY6        0.0000 
     25 CA         20.6900   62.2900   36.2300 C.3       3 GLY6        0.0000 
     26 CA         23.3300   62.9000   34.2500 C.3       3 GLY6        0.0000 
     27 CA         18.7900   65.0000   36.8000 C.3       3 GLY6        0.0000 
     28 CA         20.0000   64.1400   37.0100 C.3       3 GLY6        0.0000 
     29 CA         23.3600   65.4700   33.9300 C.3       3 GLY6        0.0000 
     30 CA         21.2200   63.2800   37.2300 C.3       3 GLY6        0.0000 
     31 CA         25.2800   65.3500   33.0500 C.3       3 GLY6        0.0000 
     32 CA         24.5700   64.6200   34.1500 C.3       3 GLY6        0.0000 
     33 CA         22.4300   62.4200   37.4400 C.3       3 GLY6        0.0000 
     34 CA         22.6700   67.3200   34.7100 C.3       3 GLY6        0.0000 
     35 CA         21.9500   66.5900   35.8100 C.3       3 GLY6        0.0000 
     36 CA         20.5300   65.1300   38.0100 C.3       3 GLY6        0.0000 
     37 CA         23.8800   66.4600   34.9300 C.3       3 GLY6        0.0000 
     38 CA         21.7400   64.2700   38.2300 C.3       3 GLY6        0.0000 
     39 DU         19.8600   62.6300   31.8200 H         4 CUB7        0.0000 
     40 DU         20.3800   63.6200   32.8200 H         4 CUB7        0.0000 
     41 DU         21.6200   65.3400   32.7200 H         4 CUB7        0.0000 
     42 DU         20.9100   64.6100   33.8200 H         4 CUB7        0.0000 
     43 DU         21.4100   63.0200   35.1300 H         4 CUB7        0.0000 
     44 DU         22.6400   64.7400   35.0300 H         4 CUB7        0.0000 
     45 DU         21.9300   64.0100   36.1300 H         4 CUB7        0.0000 
@<TRIPOS>BOND
@<TRIPOS>SUBSTRUCTURE
     1 ALA2        1 GROUP   
     2 ASP3       18 GROUP   
     3 GLY6       19 GROUP   
     4 CUB7       39 GROUP   
@<TRIPOS>SET

