#    Name: 6k28_2_TZE_CAVITY_N1_4
#    Modification time : Fri May 22 19:26:19 2020

@<TRIPOS>MOLECULE
6k28_2_TZE_CAVITY_N1_4
   62     0     3     0     0
SMALL
NO_CHARGES


@<TRIPOS>ATOM
      1 O          14.6100   63.8900   55.8700 O.2       1 ALA2        0.0000 
      2 O          16.5300   63.7700   54.9900 O.2       1 ALA2        0.0000 
      3 N          19.4500   60.4600   56.7300 N.am      1 ALA2        0.0000 
      4 N          15.8400   65.6100   55.7700 N.am      1 ALA2        0.0000 
      5 N          17.7700   65.4900   54.8900 N.am      1 ALA2        0.0000 
      6 N          17.0600   64.7600   55.9800 N.am      1 ALA2        0.0000 
      7 N          18.9800   64.6300   55.1000 N.am      1 ALA2        0.0000 
      8 O          20.1900   63.7700   55.3200 O.2       1 ALA2        0.0000 
      9 N          18.7700   62.3100   57.5100 N.am      1 ALA2        0.0000 
     10 N          18.0500   61.5800   58.6100 N.am      1 ALA2        0.0000 
     11 N          22.1200   63.6400   54.4300 N.am      1 ALA2        0.0000 
     12 N          19.9800   61.4500   57.7300 N.am      1 ALA2        0.0000 
     13 N          22.6100   62.0500   55.7500 N.am      1 ALA2        0.0000 
     14 O          21.9000   61.3200   56.8500 O.2       1 ALA2        0.0000 
     15 N          19.2900   63.3000   58.5100 N.am      1 ALA2        0.0000 
     16 N          18.5800   62.5700   59.6100 N.am      1 ALA2        0.0000 
     17 N          21.9300   63.9000   56.5300 N.am      1 ALA2        0.0000 
     18 N          20.5000   62.4400   58.7300 N.am      1 ALA2        0.0000 
     19 N          23.1400   63.0400   56.7500 N.am      1 ALA2        0.0000 
     20 O          22.4200   62.3100   57.8500 O.2       1 ALA2        0.0000 
     21 N          23.6600   64.0300   57.7500 N.am      1 ALA2        0.0000 
     22 N          22.9500   63.3000   58.8400 N.am      1 ALA2        0.0000 
     23 CA         15.8200   63.0300   56.0800 C.3       2 GLY6        0.0000 
     24 CA         15.1100   62.3000   57.1800 C.3       2 GLY6        0.0000 
     25 CA         18.4600   63.6400   54.1000 C.3       2 GLY6        0.0000 
     26 CA         17.7400   62.9100   55.2000 C.3       2 GLY6        0.0000 
     27 CA         17.0300   62.1800   56.3000 C.3       2 GLY6        0.0000 
     28 CA         16.3200   61.4500   57.4000 C.3       2 GLY6        0.0000 
     29 CA         19.6700   62.7800   54.3200 C.3       2 GLY6        0.0000 
     30 CA         18.9600   62.0500   55.4200 C.3       2 GLY6        0.0000 
     31 CA         18.2400   61.3200   56.5200 C.3       2 GLY6        0.0000 
     32 CA         17.5300   60.5900   57.6200 C.3       2 GLY6        0.0000 
     33 CA         20.8800   61.9200   54.5400 C.3       2 GLY6        0.0000 
     34 CA         20.1700   61.1900   55.6300 C.3       2 GLY6        0.0000 
     35 CA         21.4000   62.9100   55.5300 C.3       2 GLY6        0.0000 
     36 CA         19.5000   65.6200   56.1000 C.3       2 GLY6        0.0000 
     37 CA         18.7900   64.8900   57.2000 C.3       2 GLY6        0.0000 
     38 CA         21.4300   65.4900   55.2200 C.3       2 GLY6        0.0000 
     39 CA         20.7200   64.7600   56.3200 C.3       2 GLY6        0.0000 
     40 CA         20.0000   64.0300   57.4100 C.3       2 GLY6        0.0000 
     41 CA         22.6400   64.6300   55.4300 C.3       2 GLY6        0.0000 
     42 CA         19.3100   65.8800   58.2000 C.3       2 GLY6        0.0000 
     43 CA         20.5300   65.0200   58.4100 C.3       2 GLY6        0.0000 
     44 CA         22.4500   64.8900   57.5300 C.3       2 GLY6        0.0000 
     45 CA         21.7400   64.1600   58.6300 C.3       2 GLY6        0.0000 
     46 CA         22.2300   62.5700   59.9400 C.3       2 GLY6        0.0000 
     47 CA         24.1600   62.4500   59.0600 C.3       2 GLY6        0.0000 
     48 CA         23.4700   64.2900   59.8400 C.3       2 GLY6        0.0000 
     49 DU         15.1300   64.8800   56.8700 H         3 CUB7        0.0000 
     50 DU         16.3400   64.0300   57.0800 H         3 CUB7        0.0000 
     51 DU         15.6300   63.2900   58.1800 H         3 CUB7        0.0000 
     52 DU         18.2700   63.9000   56.2000 H         3 CUB7        0.0000 
     53 DU         17.5500   63.1700   57.3000 H         3 CUB7        0.0000 
     54 DU         16.8400   62.4400   58.4000 H         3 CUB7        0.0000 
     55 DU         19.4800   63.0400   56.4200 H         3 CUB7        0.0000 
     56 DU         20.6900   62.1800   56.6300 H         3 CUB7        0.0000 
     57 DU         17.5800   65.7500   56.9800 H         3 CUB7        0.0000 
     58 DU         18.0800   64.1600   58.3000 H         3 CUB7        0.0000 
     59 DU         21.2100   63.1700   57.6300 H         3 CUB7        0.0000 
     60 DU         17.3900   66.0100   59.0800 H         3 CUB7        0.0000 
     61 DU         18.6000   65.1500   59.2900 H         3 CUB7        0.0000 
     62 DU         21.0200   63.4300   59.7300 H         3 CUB7        0.0000 
@<TRIPOS>BOND
@<TRIPOS>SUBSTRUCTURE
     1 ALA2        1 GROUP   
     2 GLY6       23 GROUP   
     3 CUB7       49 GROUP   
@<TRIPOS>SET

