#    Name: 6pbp_2_NAP
#    Modification time : Fri May 22 19:31:00 2020

@<TRIPOS>MOLECULE
6pbp_2_NAP
   73    77     1     0     1
SMALL
NO_CHARGES


@<TRIPOS>ATOM
      1 PA         80.3980   30.5780  -27.5510 P.3       1 NAP501      0.0000 
      2 O1A        81.4140   29.6820  -26.8250 O.co2     1 NAP501      0.0000 
      3 O2A        80.7740   32.0500  -27.5890 O.co2     1 NAP501      0.0000 
      4 O5B        80.1910   29.9750  -29.0710 O.3       1 NAP501      0.0000 
      5 C5B        79.2870   30.5740  -29.9730 C.3       1 NAP501      0.0000 
      6 C4B        79.9720   30.2390  -31.3330 C.3       1 NAP501      0.0000 
      7 O4B        79.1630   30.5140  -32.3440 O.3       1 NAP501      0.0000 
      8 C3B        81.2170   31.1420  -31.4720 C.3       1 NAP501      0.0000 
      9 O3B        82.2890   30.4930  -32.0090 O.3       1 NAP501      0.0000 
     10 C2B        80.6450   32.2250  -32.4240 C.3       1 NAP501      0.0000 
     11 O2B        81.8140   32.8800  -33.0800 O.3       1 NAP501      0.0000 
     12 C1B        79.9060   31.5630  -33.2940 C.3       1 NAP501      0.0000 
     13 N9A        78.7930   32.3090  -33.8410 N.pl3     1 NAP501      0.0000 
     14 C8A        77.9980   33.2680  -33.3370 C.2       1 NAP501      0.0000 
     15 N7A        77.1210   33.6410  -34.2640 N.2       1 NAP501      0.0000 
     16 C5A        77.3420   32.8690  -35.3540 C.ar      1 NAP501      0.0000 
     17 C6A        76.6940   32.8560  -36.5690 C.ar      1 NAP501      0.0000 
     18 N6A        75.5830   33.7080  -36.9560 N.pl3     1 NAP501      0.0000 
     19 N1A        77.0810   32.0040  -37.5020 N.ar      1 NAP501      0.0000 
     20 C2A        78.1360   31.1760  -37.2510 C.ar      1 NAP501      0.0000 
     21 N3A        78.7860   31.1880  -36.0520 N.ar      1 NAP501      0.0000 
     22 C4A        78.3710   32.0510  -35.0950 C.ar      1 NAP501      0.0000 
     23 O3         78.8990   30.4890  -26.9160 O.3       1 NAP501      0.0000 
     24 PN         78.2220   29.1400  -26.2160 P.3       1 NAP501      0.0000 
     25 O1N        78.6630   29.1010  -24.8010 O.co2     1 NAP501      0.0000 
     26 O2N        78.5730   27.9510  -27.0940 O.co2     1 NAP501      0.0000 
     27 O5D        76.6050   29.4300  -26.1970 O.3       1 NAP501      0.0000 
     28 C5D        75.9430   29.5230  -27.4510 C.3       1 NAP501      0.0000 
     29 C4D        74.5100   29.9750  -27.0590 C.3       1 NAP501      0.0000 
     30 O4D        74.0810   29.1100  -26.1840 O.3       1 NAP501      0.0000 
     31 C3D        74.6420   31.3570  -26.4070 C.3       1 NAP501      0.0000 
     32 O3D        73.6450   32.1930  -26.7770 O.3       1 NAP501      0.0000 
     33 C2D        74.4690   30.9910  -24.9060 C.3       1 NAP501      0.0000 
     34 O2D        73.9430   32.1890  -24.1670 O.3       1 NAP501      0.0000 
     35 C1D        73.6290   29.9500  -24.9240 C.3       1 NAP501      0.0000 
     36 N1N        73.7910   29.1150  -23.7380 N.pl3     1 NAP501      0.0000 
     37 C2N        75.0230   28.6290  -23.4410 C.ar      1 NAP501      0.0000 
     38 C3N        75.2190   27.9140  -22.2950 C.ar      1 NAP501      0.0000 
     39 C7N        76.6100   27.4200  -21.9730 C.2       1 NAP501      0.0000 
     40 O7N        77.5960   27.4830  -22.6870 O.2       1 NAP501      0.0000 
     41 N7N        76.7110   26.8470  -20.6940 N.am      1 NAP501      0.0000 
     42 C4N        74.1660   27.6820  -21.4490 C.ar      1 NAP501      0.0000 
     43 C5N        72.9250   28.1400  -21.7500 C.ar      1 NAP501      0.0000 
     44 C6N        72.7430   28.8770  -22.9150 C.ar      1 NAP501      0.0000 
     45 P2B        82.0900   34.4210  -32.6410 P.3       1 NAP501      0.0000 
     46 O1X        83.1720   34.9160  -33.5440 O.co2     1 NAP501      0.0000 
     47 O2X        80.8090   35.2110  -32.8040 O.co2     1 NAP501      0.0000 
     48 O3X        82.4930   34.3520  -31.1820 O.co2     1 NAP501      0.0000 
     49 H51A       78.4040   30.1780  -29.9110 H         1 NAP501      0.0000 
     50 H52A       79.2220   31.5320  -29.8320 H         1 NAP501      0.0000 
     51 H4B        80.2220   29.3040  -31.4000 H         1 NAP501      0.0000 
     52 H3B        81.5240   31.4960  -30.6220 H         1 NAP501      0.0000 
     53 HO3A       82.2390   29.6640  -31.8270 H         1 NAP501      0.0000 
     54 H2B        80.0800   32.8700  -31.9720 H         1 NAP501      0.0000 
     55 H1B        80.4960   31.2440  -33.9950 H         1 NAP501      0.0000 
     56 H8A        78.0540   33.6170  -32.4770 H         1 NAP501      0.0000 
     57 H61A       74.7840   33.5140  -36.7030 H         1 NAP501      0.0000 
     58 H62A       75.7230   34.4060  -37.4380 H         1 NAP501      0.0000 
     59 H2A        78.4200   30.5890  -37.9140 H         1 NAP501      0.0000 
     60 H51N       75.9270   28.6640  -27.9010 H         1 NAP501      0.0000 
     61 H52N       76.3710   30.1790  -28.0230 H         1 NAP501      0.0000 
     62 H4D        73.8660   30.0390  -27.7820 H         1 NAP501      0.0000 
     63 H3D        75.4910   31.7720  -26.6220 H         1 NAP501      0.0000 
     64 HO3N       73.9010   32.9980  -26.6840 H         1 NAP501      0.0000 
     65 H2D        75.2950   30.7080  -24.4820 H         1 NAP501      0.0000 
     66 HO2N       74.4970   32.4170  -23.5640 H         1 NAP501      0.0000 
     67 H1D        72.7160   30.2680  -24.9910 H         1 NAP501      0.0000 
     68 H2N        75.7350   28.7830  -24.0190 H         1 NAP501      0.0000 
     69 H71N       77.4720   26.5630  -20.4100 H         1 NAP501      0.0000 
     70 H72N       76.0130   26.7800  -20.1960 H         1 NAP501      0.0000 
     71 H4N        74.3040   27.2070  -20.6610 H         1 NAP501      0.0000 
     72 H5N        72.2060   27.9630  -21.1860 H         1 NAP501      0.0000 
     73 H6N        71.9010   29.2070  -23.1280 H         1 NAP501      0.0000 
@<TRIPOS>BOND
     1    1    2 ar   
     2    1    3 ar   
     3    1    4 1    
     4    1   23 1    
     5    4    5 1    
     6    5    6 1    
     7    5   49 1    
     8    5   50 1    
     9    6    7 1    
    10    6    8 1    
    11    6   51 1    
    12    7   12 1    
    13    8    9 1    
    14    8   10 1    
    15    8   52 1    
    16    9   53 1    
    17   10   11 1    
    18   10   12 1    
    19   10   54 1    
    20   12   55 1    
    21   11   45 1    
    22   12   13 1    
    23   13   14 1    
    24   13   22 1    
    25   14   15 2    
    26   15   16 1    
    27   14   56 1    
    28   16   17 ar   
    29   16   22 ar   
    30   17   18 1    
    31   17   19 ar   
    32   19   20 ar   
    33   18   57 1    
    34   18   58 1    
    35   20   21 ar   
    36   21   22 ar   
    37   20   59 1    
    38   23   24 1    
    39   24   25 ar   
    40   24   26 ar   
    41   24   27 1    
    42   27   28 1    
    43   28   29 1    
    44   28   60 1    
    45   28   61 1    
    46   29   30 1    
    47   29   31 1    
    48   29   62 1    
    49   30   35 1    
    50   31   32 1    
    51   31   33 1    
    52   31   63 1    
    53   32   64 1    
    54   33   34 1    
    55   33   35 1    
    56   33   65 1    
    57   35   67 1    
    58   35   36 1    
    59   34   66 1    
    60   36   37 ar   
    61   36   44 ar   
    62   37   38 ar   
    63   38   39 1    
    64   37   68 1    
    65   38   42 ar   
    66   39   40 2    
    67   39   41 am   
    68   42   43 ar   
    69   41   69 1    
    70   41   70 1    
    71   43   44 ar   
    72   42   71 1    
    73   45   46 ar   
    74   43   72 1    
    75   44   73 1    
    76   45   47 ar   
    77   45   48 ar   
@<TRIPOS>SUBSTRUCTURE
     1 NAP501      1 GROUP   
@<TRIPOS>SET
ATOM$ORANGE STATIC     ATOMS   COLORGROUP SYSTEM 
42 5 5 6 6 8 8 10 10 12 12 14 14 16 16 17 17 20 \
20 22 22 28 28 29 29 31 31 33 33 35 35 37 37 38 38 39 \
39 42 42 43 43 44 44 

