#    Name: 6pbp_2_NAP_CAVITY_N1_ALL
#    Modification time : Fri May 22 19:31:02 2020

@<TRIPOS>MOLECULE
6pbp_2_NAP_CAVITY_N1_ALL
   71     0     7     0     0
SMALL
NO_CHARGES


@<TRIPOS>ATOM
      1 OG         73.4200   28.1600  -24.2400 O.3       1 SER1        0.0000 
      2 N          77.6100   30.4700  -30.0100 N.am      2 ALA2        0.0000 
      3 N          78.4300   29.2200  -29.9200 N.am      2 ALA2        0.0000 
      4 O          75.8000   31.2100  -28.3000 O.2       2 ALA2        0.0000 
      5 O          74.5700   30.4300  -27.9500 O.2       2 ALA2        0.0000 
      6 N          76.6200   29.9600  -28.2100 N.am      2 ALA2        0.0000 
      7 N          75.3900   29.1800  -27.8500 N.am      2 ALA2        0.0000 
      8 N          78.6700   29.4900  -28.4600 N.am      2 ALA2        0.0000 
      9 N          77.4400   28.7100  -28.1100 N.am      2 ALA2        0.0000 
     10 N          76.2100   27.9300  -27.7600 N.am      2 ALA2        0.0000 
     11 O          80.9700   29.2800  -27.2700 O.2       2 ALA2        0.0000 
     12 O          78.5100   27.7200  -26.5600 O.2       2 ALA2        0.0000 
     13 N          79.0000   28.2600  -23.6500 N.am      2 ALA2        0.0000 
     14 N          77.7700   27.4900  -23.3000 N.am      2 ALA2        0.0000 
     15 N          77.2000   29.0100  -21.9400 N.am      2 ALA2        0.0000 
     16 N          76.7800   26.9800  -21.4900 N.am      2 ALA2        0.0000 
     17 N          74.9800   27.7200  -19.7800 N.am      2 ALA2        0.0000 
     18 OD1        77.0400   31.9900  -28.6500 O.co2     3 ASP3        0.0000 
     19 OD1        79.0900   31.5200  -28.9100 O.co2     3 ASP3        0.0000 
     20 OD1        77.8500   30.7400  -28.5600 O.co2     3 ASP3        0.0000 
     21 OD1        76.0500   31.4800  -26.8400 O.co2     3 ASP3        0.0000 
     22 OD1        78.1000   31.0100  -27.1000 O.co2     3 ASP3        0.0000 
     23 OD1        76.8700   30.2300  -26.7500 O.co2     3 ASP3        0.0000 
     24 OD1        80.1500   30.5400  -27.3600 O.co2     3 ASP3        0.0000 
     25 OD1        78.9200   29.7600  -27.0100 O.co2     3 ASP3        0.0000 
     26 OD1        75.0600   30.9700  -25.0400 O.co2     3 ASP3        0.0000 
     27 OD1        75.8800   29.7200  -24.9400 O.co2     3 ASP3        0.0000 
     28 OD1        80.4000   30.8100  -25.9100 O.co2     3 ASP3        0.0000 
     29 OD1        79.1700   30.0300  -25.5600 O.co2     3 ASP3        0.0000 
     30 OD1        77.9400   29.2500  -25.2000 O.co2     3 ASP3        0.0000 
     31 OD1        75.3100   31.2400  -23.5800 O.co2     3 ASP3        0.0000 
     32 OD1        76.1300   29.9900  -23.4900 O.co2     3 ASP3        0.0000 
     33 OD1        75.5600   31.5100  -22.1300 O.co2     3 ASP3        0.0000 
     34 OD1        77.6100   31.0400  -22.3900 O.co2     3 ASP3        0.0000 
     35 NZ         74.0000   31.9600  -26.5900 N.4       4 LYS4        0.0000 
     36 NZ         74.2400   32.2300  -25.1300 N.4       4 LYS4        0.0000 
     37 NZ         73.0100   31.4500  -24.7800 N.4       4 LYS4        0.0000 
     38 NZ         74.4900   32.5000  -23.6800 N.4       4 LYS4        0.0000 
     39 NZ         73.2600   31.7200  -23.3200 N.4       4 LYS4        0.0000 
     40 NZ         73.5000   31.9900  -21.8700 N.4       4 LYS4        0.0000 
     41 CZ         74.4900   27.1800  -22.6900 C.ar      5 PHE5        0.0000 
     42 CZ         74.7300   27.4500  -21.2300 C.ar      5 PHE5        0.0000 
     43 CZ         73.5000   26.6700  -20.8800 C.ar      5 PHE5        0.0000 
     44 CA         75.6400   29.4500  -26.4000 C.3       6 GLY6        0.0000 
     45 CA         74.4100   28.6700  -26.0400 C.3       6 GLY6        0.0000 
     46 CA         77.6900   28.9800  -26.6600 C.3       6 GLY6        0.0000 
     47 CA         76.4600   28.2000  -26.3000 C.3       6 GLY6        0.0000 
     48 CA         74.6500   28.9400  -24.5900 C.3       6 GLY6        0.0000 
     49 CA         76.7000   28.4700  -24.8500 C.3       6 GLY6        0.0000 
     50 CA         74.2400   26.9100  -24.1400 C.3       6 GLY6        0.0000 
     51 CA         79.9900   28.7700  -25.4600 C.3       6 GLY6        0.0000 
     52 CA         78.7500   27.9900  -25.1100 C.3       6 GLY6        0.0000 
     53 CA         72.4300   27.6500  -22.4300 C.3       6 GLY6        0.0000 
     54 CA         76.9500   28.7400  -23.3900 C.3       6 GLY6        0.0000 
     55 CA         75.7200   27.9600  -23.0400 C.3       6 GLY6        0.0000 
     56 CA         76.5400   26.7100  -22.9500 C.3       6 GLY6        0.0000 
     57 CA         74.7400   32.7700  -22.2200 C.3       6 GLY6        0.0000 
     58 DU         74.8200   30.7000  -26.4900 H         7 CUB7        0.0000 
     59 DU         73.5900   29.9200  -26.1400 H         7 CUB7        0.0000 
     60 DU         73.8300   30.1900  -24.6800 H         7 CUB7        0.0000 
     61 DU         74.0800   30.4600  -23.2300 H         7 CUB7        0.0000 
     62 DU         72.8500   29.6800  -22.8800 H         7 CUB7        0.0000 
     63 DU         74.9000   29.2100  -23.1300 H         7 CUB7        0.0000 
     64 DU         73.6700   28.4300  -22.7800 H         7 CUB7        0.0000 
     65 DU         74.3200   30.7300  -21.7700 H         7 CUB7        0.0000 
     66 DU         76.3800   30.2600  -22.0300 H         7 CUB7        0.0000 
     67 DU         73.9100   28.7000  -21.3300 H         7 CUB7        0.0000 
     68 DU         72.6800   27.9200  -20.9700 H         7 CUB7        0.0000 
     69 DU         75.9600   28.2300  -21.5900 H         7 CUB7        0.0000 
     70 DU         73.7500   32.2600  -20.4100 H         7 CUB7        0.0000 
     71 DU         74.1600   28.9700  -19.8700 H         7 CUB7        0.0000 
@<TRIPOS>BOND
@<TRIPOS>SUBSTRUCTURE
     1 SER1        1 GROUP   
     2 ALA2        2 GROUP   
     3 ASP3       18 GROUP   
     4 LYS4       35 GROUP   
     5 PHE5       41 GROUP   
     6 GLY6       44 GROUP   
     7 CUB7       58 GROUP   
@<TRIPOS>SET

