#    Name: 6pbp_1_NAP
#    Modification time : Fri May 22 19:30:52 2020

@<TRIPOS>MOLECULE
6pbp_1_NAP
   73    77     1     0     1
SMALL
NO_CHARGES


@<TRIPOS>ATOM
      1 PA         71.8980   38.3680   33.3230 P.3       1 NAP501      0.0000 
      2 O1A        73.0530   39.1600   32.7480 O.co2     1 NAP501      0.0000 
      3 O2A        72.1330   36.8690   33.4040 O.co2     1 NAP501      0.0000 
      4 O5B        71.5220   38.9840   34.8190 O.3       1 NAP501      0.0000 
      5 C5B        70.3720   38.5630   35.5130 C.3       1 NAP501      0.0000 
      6 C4B        70.6520   38.8580   37.0120 C.3       1 NAP501      0.0000 
      7 O4B        69.6850   38.2940   37.7170 O.3       1 NAP501      0.0000 
      8 C3B        71.9840   38.2290   37.4420 C.3       1 NAP501      0.0000 
      9 O3B        72.6340   39.0150   38.3730 O.3       1 NAP501      0.0000 
     10 C2B        71.4540   36.9110   38.0580 C.3       1 NAP501      0.0000 
     11 O2B        72.5160   36.4810   39.0150 O.3       1 NAP501      0.0000 
     12 C1B        70.2920   37.1380   38.6340 C.3       1 NAP501      0.0000 
     13 N9A        69.3850   35.9930   38.5110 N.pl3     1 NAP501      0.0000 
     14 C8A        69.2170   35.0760   37.5400 C.2       1 NAP501      0.0000 
     15 N7A        68.2800   34.1830   37.9010 N.2       1 NAP501      0.0000 
     16 C5A        67.8550   34.5740   39.1190 C.ar      1 NAP501      0.0000 
     17 C6A        66.9180   34.0370   39.9530 C.ar      1 NAP501      0.0000 
     18 N6A        66.1280   32.8650   39.6740 N.pl3     1 NAP501      0.0000 
     19 N1A        66.6520   34.5640   41.1320 N.ar      1 NAP501      0.0000 
     20 C2A        67.3320   35.6800   41.5130 C.ar      1 NAP501      0.0000 
     21 N3A        68.2600   36.2270   40.6950 N.ar      1 NAP501      0.0000 
     22 C4A        68.5230   35.6700   39.4940 C.ar      1 NAP501      0.0000 
     23 O3         70.5190   38.5180   32.4430 O.3       1 NAP501      0.0000 
     24 PN         70.1030   39.9290   31.6920 P.3       1 NAP501      0.0000 
     25 O1N        70.7340   39.8990   30.3110 O.co2     1 NAP501      0.0000 
     26 O2N        70.3420   41.1180   32.5690 O.co2     1 NAP501      0.0000 
     27 O5D        68.5000   39.7250   31.3870 O.3       1 NAP501      0.0000 
     28 C5D        67.6210   39.6190   32.4730 C.3       1 NAP501      0.0000 
     29 C4D        66.2420   39.4930   31.8070 C.3       1 NAP501      0.0000 
     30 O4D        66.0150   40.5220   30.9900 O.3       1 NAP501      0.0000 
     31 C3D        66.2210   38.2380   30.8960 C.3       1 NAP501      0.0000 
     32 O3D        66.0390   37.0860   31.5870 O.3       1 NAP501      0.0000 
     33 C2D        65.0070   38.6620   30.0500 C.3       1 NAP501      0.0000 
     34 O2D        63.7870   38.4650   30.9030 O.3       1 NAP501      0.0000 
     35 C1D        65.1020   39.9650   29.8020 C.3       1 NAP501      0.0000 
     36 N1N        65.7290   40.2600   28.5430 N.pl3     1 NAP501      0.0000 
     37 C2N        67.0280   40.6660   28.4780 C.ar      1 NAP501      0.0000 
     38 C3N        67.6290   40.9210   27.2780 C.ar      1 NAP501      0.0000 
     39 C7N        69.0750   41.3970   27.2160 C.2       1 NAP501      0.0000 
     40 O7N        69.8950   41.2480   28.0880 O.2       1 NAP501      0.0000 
     41 N7N        69.4010   42.1010   26.0230 N.am      1 NAP501      0.0000 
     42 C4N        66.9030   40.7860   26.1370 C.ar      1 NAP501      0.0000 
     43 C5N        65.6080   40.3790   26.2000 C.ar      1 NAP501      0.0000 
     44 C6N        65.0130   40.1130   27.4170 C.ar      1 NAP501      0.0000 
     45 P2B        73.0570   34.9410   38.8840 P.3       1 NAP501      0.0000 
     46 O1X        73.6670   34.8900   37.5140 O.co2     1 NAP501      0.0000 
     47 O2X        74.0610   34.7310   39.9830 O.co2     1 NAP501      0.0000 
     48 O3X        71.8310   34.0490   39.0810 O.co2     1 NAP501      0.0000 
     49 H51A       70.2240   37.6140   35.3770 H         1 NAP501      0.0000 
     50 H52A       69.5950   39.0580   35.2110 H         1 NAP501      0.0000 
     51 H4B        70.7030   39.8070   37.2080 H         1 NAP501      0.0000 
     52 H3B        72.6060   38.0850   36.7120 H         1 NAP501      0.0000 
     53 HO3A       73.1990   39.5120   37.9780 H         1 NAP501      0.0000 
     54 H2B        71.2520   36.2410   37.3860 H         1 NAP501      0.0000 
     55 H1B        70.4230   37.3720   39.5670 H         1 NAP501      0.0000 
     56 H8A        69.6830   35.0620   36.7360 H         1 NAP501      0.0000 
     57 H61A       66.4550   32.2310   39.1940 H         1 NAP501      0.0000 
     58 H62A       65.3300   32.8000   39.9860 H         1 NAP501      0.0000 
     59 H2A        67.1570   36.0690   42.3400 H         1 NAP501      0.0000 
     60 H51N       67.8210   38.8340   33.0070 H         1 NAP501      0.0000 
     61 H52N       67.6650   40.4100   33.0330 H         1 NAP501      0.0000 
     62 H4D        65.5430   39.4480   32.4780 H         1 NAP501      0.0000 
     63 H3D        67.0300   38.0770   30.3860 H         1 NAP501      0.0000 
     64 HO3N       66.7230   36.9320   32.0680 H         1 NAP501      0.0000 
     65 H2D        65.0080   38.1730   29.2120 H         1 NAP501      0.0000 
     66 HO2N       63.2310   37.9720   30.4920 H         1 NAP501      0.0000 
     67 H1D        64.2110   40.3490   29.8010 H         1 NAP501      0.0000 
     68 H2N        67.5150   40.7700   29.2630 H         1 NAP501      0.0000 
     69 H71N       68.8070   42.2070   25.4100 H         1 NAP501      0.0000 
     70 H72N       70.1920   42.4210   25.9150 H         1 NAP501      0.0000 
     71 H4N        67.2930   40.9720   25.3130 H         1 NAP501      0.0000 
     72 H5N        65.1180   40.2790   25.4160 H         1 NAP501      0.0000 
     73 H6N        64.1270   39.8350   27.4560 H         1 NAP501      0.0000 
@<TRIPOS>BOND
     1    1    2 ar   
     2    1    3 ar   
     3    1    4 1    
     4    1   23 1    
     5    4    5 1    
     6    5    6 1    
     7    5   49 1    
     8    5   50 1    
     9    6    7 1    
    10    6    8 1    
    11    6   51 1    
    12    7   12 1    
    13    8    9 1    
    14    8   10 1    
    15    8   52 1    
    16    9   53 1    
    17   10   11 1    
    18   10   12 1    
    19   10   54 1    
    20   12   55 1    
    21   11   45 1    
    22   12   13 1    
    23   13   14 1    
    24   13   22 1    
    25   14   15 2    
    26   15   16 1    
    27   14   56 1    
    28   16   17 ar   
    29   16   22 ar   
    30   17   18 1    
    31   17   19 ar   
    32   19   20 ar   
    33   18   57 1    
    34   18   58 1    
    35   20   21 ar   
    36   21   22 ar   
    37   20   59 1    
    38   23   24 1    
    39   24   25 ar   
    40   24   26 ar   
    41   24   27 1    
    42   27   28 1    
    43   28   29 1    
    44   28   60 1    
    45   28   61 1    
    46   29   30 1    
    47   29   31 1    
    48   29   62 1    
    49   30   35 1    
    50   31   32 1    
    51   31   33 1    
    52   31   63 1    
    53   32   64 1    
    54   33   34 1    
    55   33   35 1    
    56   33   65 1    
    57   35   67 1    
    58   35   36 1    
    59   34   66 1    
    60   36   37 ar   
    61   36   44 ar   
    62   37   38 ar   
    63   38   39 1    
    64   37   68 1    
    65   38   42 ar   
    66   39   40 2    
    67   39   41 am   
    68   42   43 ar   
    69   41   69 1    
    70   41   70 1    
    71   43   44 ar   
    72   42   71 1    
    73   45   46 ar   
    74   43   72 1    
    75   44   73 1    
    76   45   47 ar   
    77   45   48 ar   
@<TRIPOS>SUBSTRUCTURE
     1 NAP501      1 GROUP   
@<TRIPOS>SET
ATOM$ORANGE STATIC     ATOMS   COLORGROUP SYSTEM 
42 5 5 6 6 8 8 10 10 12 12 14 14 16 16 17 17 20 \
20 22 22 28 28 29 29 31 31 33 33 35 35 37 37 38 38 39 \
39 42 42 43 43 44 44 

