#    Name: 5z2r_4_TD6_CAVITY_N1_ALL
#    Modification time : Fri May 22 19:32:19 2020

@<TRIPOS>MOLECULE
5z2r_4_TD6_CAVITY_N1_ALL
   71     0     6     0     0
SMALL
NO_CHARGES


@<TRIPOS>ATOM
      1 OG        -18.6500   20.2800  -14.3100 O.3       1 SER1        0.0000 
      2 OG        -18.3500   20.6400  -12.8800 O.3       1 SER1        0.0000 
      3 N         -21.5100   16.8100  -14.4400 N.am      2 ALA2        0.0000 
      4 N         -21.3300   15.3600  -14.1100 N.am      2 ALA2        0.0000 
      5 N         -20.0500   16.9200  -14.7600 N.am      2 ALA2        0.0000 
      6 N         -21.2700   20.4300  -12.2300 N.am      2 ALA2        0.0000 
      7 N         -21.1000   18.9700  -11.9000 N.am      2 ALA2        0.0000 
      8 N         -20.9200   17.5200  -11.5800 N.am      2 ALA2        0.0000 
      9 O         -19.9900   21.9900  -12.8800 O.2       2 ALA2        0.0000 
     10 N         -19.6300   19.0800  -12.2300 N.am      2 ALA2        0.0000 
     11 N         -19.4600   17.6200  -11.9100 N.am      2 ALA2        0.0000 
     12 N         -18.1700   19.1800  -12.5600 N.am      2 ALA2        0.0000 
     13 O         -19.6900   22.3400  -11.4500 O.2       2 ALA2        0.0000 
     14 N         -19.5200   20.8800  -11.1300 N.am      2 ALA2        0.0000 
     15 O         -18.2300   22.4400  -11.7800 O.2       2 ALA2        0.0000 
     16 N         -18.0600   20.9900  -11.4500 N.am      2 ALA2        0.0000 
     17 N         -17.8800   19.5300  -11.1300 N.am      2 ALA2        0.0000 
     18 O         -17.7600   21.3400  -10.0300 O.2       2 ALA2        0.0000 
     19 N         -16.1300   19.9900  -10.0300 N.am      2 ALA2        0.0000 
     20 O         -16.0100   21.8000   -8.9300 O.2       2 ALA2        0.0000 
     21 O         -15.8300   20.3500   -8.6000 O.2       2 ALA2        0.0000 
     22 O         -14.5500   21.9000   -9.2500 O.2       2 ALA2        0.0000 
     23 O         -14.3700   20.4500   -8.9300 O.2       2 ALA2        0.0000 
     24 OD1       -17.9400   22.8000  -10.3500 O.co2     3 ASP3        0.0000 
     25 OD1       -16.1800   23.2500   -9.2500 O.co2     3 ASP3        0.0000 
     26 OD1       -11.6300   22.1100   -9.9100 O.co2     3 ASP3        0.0000 
     27 CZ        -20.5200   18.0200  -16.5100 C.ar      4 PHE5        0.0000 
     28 CZ        -20.2200   18.3700  -15.0900 C.ar      4 PHE5        0.0000 
     29 CZ        -18.7600   18.4700  -15.4100 C.ar      4 PHE5        0.0000 
     30 CZ        -18.4700   18.8300  -13.9900 C.ar      4 PHE5        0.0000 
     31 CZ        -18.2900   17.3700  -13.6600 C.ar      4 PHE5        0.0000 
     32 CZ        -17.0100   18.9300  -14.3100 C.ar      4 PHE5        0.0000 
     33 CZ        -16.7100   19.2900  -12.8900 C.ar      4 PHE5        0.0000 
     34 CA        -20.7000   19.4700  -16.8400 C.3       5 GLY6        0.0000 
     35 CA        -22.9700   16.7100  -14.1100 C.3       5 GLY6        0.0000 
     36 CA        -21.6800   18.2700  -14.7600 C.3       5 GLY6        0.0000 
     37 CA        -20.4000   19.8200  -15.4100 C.3       5 GLY6        0.0000 
     38 CA        -18.9400   19.9300  -15.7400 C.3       5 GLY6        0.0000 
     39 CA        -22.8500   18.5200  -13.0000 C.3       5 GLY6        0.0000 
     40 CA        -22.6700   17.0600  -12.6800 C.3       5 GLY6        0.0000 
     41 CA        -21.3900   18.6200  -13.3300 C.3       5 GLY6        0.0000 
     42 CA        -21.0400   15.7100  -12.6800 C.3       5 GLY6        0.0000 
     43 CA        -20.2800   21.6300  -14.3100 C.3       5 GLY6        0.0000 
     44 CA        -20.1100   20.1800  -13.9800 C.3       5 GLY6        0.0000 
     45 CA        -19.5800   15.8200  -13.0100 C.3       5 GLY6        0.0000 
     46 CA        -19.8100   20.5300  -12.5500 C.3       5 GLY6        0.0000 
     47 CA        -18.5300   22.0900  -13.2100 C.3       5 GLY6        0.0000 
     48 CA        -16.8900   20.7400  -13.2100 C.3       5 GLY6        0.0000 
     49 CA        -16.6000   21.0900  -11.7800 C.3       5 GLY6        0.0000 
     50 CA        -16.4800   22.9000  -10.6800 C.3       5 GLY6        0.0000 
     51 CA        -16.3000   21.4500  -10.3500 C.3       5 GLY6        0.0000 
     52 CA        -15.0200   23.0000  -11.0000 C.3       5 GLY6        0.0000 
     53 CA        -14.8400   21.5500  -10.6800 C.3       5 GLY6        0.0000 
     54 CA        -13.3800   21.6600  -11.0100 C.3       5 GLY6        0.0000 
     55 CA        -11.9200   21.7600  -11.3300 C.3       5 GLY6        0.0000 
     56 CA        -11.7400   20.3100  -11.0100 C.3       5 GLY6        0.0000 
     57 CA         -9.9900   20.7600   -9.9100 C.3       5 GLY6        0.0000 
     58 CA         -9.8100   19.3100   -9.5900 C.3       5 GLY6        0.0000 
     59 CA        -11.1600   21.0100   -8.1600 C.3       5 GLY6        0.0000 
     60 CA         -9.7000   21.1200   -8.4800 C.3       5 GLY6        0.0000 
     61 CA         -9.5200   19.6600   -8.1600 C.3       5 GLY6        0.0000 
     62 DU        -21.2100   17.1700  -13.0100 H         6 CUB7        0.0000 
     63 DU        -19.9300   18.7200  -13.6600 H         6 CUB7        0.0000 
     64 DU        -19.7500   17.2700  -13.3300 H         6 CUB7        0.0000 
     65 DU        -14.6700   20.1000  -10.3600 H         6 CUB7        0.0000 
     66 DU        -13.2000   20.2000  -10.6800 H         6 CUB7        0.0000 
     67 DU        -13.0900   22.0100   -9.5800 H         6 CUB7        0.0000 
     68 DU        -12.7300   19.1000   -8.9300 H         6 CUB7        0.0000 
     69 DU        -11.4500   20.6600   -9.5800 H         6 CUB7        0.0000 
     70 DU        -12.6200   20.9100   -7.8300 H         6 CUB7        0.0000 
     71 DU        -12.4400   19.4500   -7.5100 H         6 CUB7        0.0000 
@<TRIPOS>BOND
@<TRIPOS>SUBSTRUCTURE
     1 SER1        1 GROUP   
     2 ALA2        3 GROUP   
     3 ASP3       24 GROUP   
     4 PHE5       27 GROUP   
     5 GLY6       34 GROUP   
     6 CUB7       62 GROUP   
@<TRIPOS>SET

