#    Name: 5z2r_5_TDP
#    Modification time : Fri May 22 19:32:33 2020

@<TRIPOS>MOLECULE
5z2r_5_TDP
   26    27     1     0     0
SMALL
NO_CHARGES


@<TRIPOS>ATOM
      1 N1'       -15.0080  -35.0080  -56.0150 N.ar      1 TDP607      0.0000 
      2 C2'       -15.6720  -34.0120  -55.3530 C.ar      1 TDP607      0.0000 
      3 C2A       -15.0410  -32.6250  -55.2350 C.3       1 TDP607      0.0000 
      4 N3'       -16.9040  -34.2400  -54.8080 N.ar      1 TDP607      0.0000 
      5 C4'       -17.4700  -35.4400  -54.9120 C.ar      1 TDP607      0.0000 
      6 N4'       -18.7840  -35.6750  -54.3230 N.pl3     1 TDP607      0.0000 
      7 C5'       -16.8140  -36.4530  -55.5660 C.ar      1 TDP607      0.0000 
      8 C6'       -15.5830  -36.2000  -56.1090 C.ar      1 TDP607      0.0000 
      9 C35       -17.4530  -37.8500  -55.7140 C.3       1 TDP607      0.0000 
     10 N3        -17.6080  -38.4540  -54.4160 N.pl3     1 TDP607      0.0000 
     11 C2        -18.8160  -38.6230  -53.6620 C.2       1 TDP607      0.0000 
     12 S1        -18.3870  -39.3210  -52.3220 S.3       1 TDP607      0.0000 
     13 C5        -16.8740  -39.5430  -52.3590 C.2       1 TDP607      0.0000 
     14 C4        -16.4020  -39.0240  -53.6170 C.2       1 TDP607      0.0000 
     15 C4A       -14.9650  -39.0290  -54.0980 C.3       1 TDP607      0.0000 
     16 C5A       -16.0030  -40.2130  -51.2830 C.3       1 TDP607      0.0000 
     17 C5B       -16.0670  -39.4660  -49.9590 C.3       1 TDP607      0.0000 
     18 O5G       -15.2270  -40.1450  -49.0700 O.3       1 TDP607      0.0000 
     19 P1        -15.4310  -39.8300  -47.4700 P.3       1 TDP607      0.0000 
     20 O11       -16.9660  -40.1900  -47.0520 O.3       1 TDP607      0.0000 
     21 O12       -15.1880  -38.3520  -47.2560 O.co2     1 TDP607      0.0000 
     22 O13       -14.5080  -40.6370  -46.6000 O.co2     1 TDP607      0.0000 
     23 P2        -17.4840  -41.7420  -47.0100 P.3       1 TDP607      0.0000 
     24 O21       -17.7010  -42.1960  -48.4390 O.co2     1 TDP607      0.0000 
     25 O22       -16.4680  -42.6110  -46.2840 O.co2     1 TDP607      0.0000 
     26 O23       -18.7940  -41.8130  -46.2790 O.co2     1 TDP607      0.0000 
@<TRIPOS>BOND
     1    1    2 ar   
     2    1    8 ar   
     3    2    3 1    
     4    2    4 ar   
     5    4    5 ar   
     6    5    6 1    
     7    5    7 ar   
     8    7    8 ar   
     9    7    9 1    
    10    9   10 1    
    11   10   11 2    
    12   10   14 1    
    13   11   12 1    
    14   12   13 1    
    15   13   14 2    
    16   13   16 1    
    17   14   15 1    
    18   16   17 1    
    19   17   18 1    
    20   18   19 1    
    21   19   20 1    
    22   19   21 ar   
    23   19   22 ar   
    24   20   23 1    
    25   23   24 ar   
    26   23   25 ar   
    27   23   26 ar   
@<TRIPOS>SUBSTRUCTURE
     1 TDP607      1 GROUP   
@<TRIPOS>SET

