#    Name: 5z2r_6_TD6_CAVITY_N1_4
#    Modification time : Fri May 22 19:32:50 2020

@<TRIPOS>MOLECULE
5z2r_6_TD6_CAVITY_N1_4
   72     0     6     0     0
SMALL
NO_CHARGES


@<TRIPOS>ATOM
      1 OG          3.7300  -14.1600  -56.1000 O.3       1 SER1        0.0000 
      2 OG          2.7400  -15.3700  -54.0200 O.3       1 SER1        0.0000 
      3 OG          3.0300  -15.0100  -52.6000 O.3       1 SER1        0.0000 
      4 OG          3.2100  -16.4700  -52.2700 O.3       1 SER1        0.0000 
      5 OG          3.3800  -17.9200  -51.9500 O.3       1 SER1        0.0000 
      6 O           5.2300  -10.6500  -62.0100 O.2       2 ALA2        0.0000 
      7 O          -1.2400  -15.1800  -57.9800 O.2       2 ALA2        0.0000 
      8 N          -1.0700  -16.6400  -57.6500 N.am      2 ALA2        0.0000 
      9 N           2.6100  -10.5100  -59.9300 N.am      2 ALA2        0.0000 
     10 O           4.0700  -10.4000  -60.2500 O.2       2 ALA2        0.0000 
     11 O           4.2500  -11.8600  -59.9300 O.2       2 ALA2        0.0000 
     12 O           4.4200  -13.3100  -59.6100 O.2       2 ALA2        0.0000 
     13 O           5.5300  -10.3000  -60.5800 O.2       2 ALA2        0.0000 
     14 O          -1.1200  -13.3700  -56.8700 O.2       2 ALA2        0.0000 
     15 O          -0.9500  -14.8300  -56.5500 O.2       2 ALA2        0.0000 
     16 N           0.3400  -13.2700  -57.2000 N.am      2 ALA2        0.0000 
     17 N           0.5100  -14.7200  -56.8700 N.am      2 ALA2        0.0000 
     18 N           0.6900  -16.1800  -56.5500 N.am      2 ALA2        0.0000 
     19 N           1.9700  -14.6200  -57.2000 N.am      2 ALA2        0.0000 
     20 N           2.1500  -16.0700  -56.8800 N.am      2 ALA2        0.0000 
     21 N           2.9000  -10.1500  -58.5000 N.am      2 ALA2        0.0000 
     22 N           3.0800  -11.6100  -58.1800 N.am      2 ALA2        0.0000 
     23 N           3.2600  -13.0600  -57.8500 N.am      2 ALA2        0.0000 
     24 N           3.4300  -14.5200  -57.5300 N.am      2 ALA2        0.0000 
     25 N           3.6100  -15.9700  -57.2100 N.am      2 ALA2        0.0000 
     26 O           4.8900  -14.4100  -57.8600 O.2       2 ALA2        0.0000 
     27 O           5.0700  -15.8700  -57.5300 O.2       2 ALA2        0.0000 
     28 N          -2.1100  -14.5800  -54.7900 N.am      2 ALA2        0.0000 
     29 N          -0.6500  -14.4800  -55.1200 N.am      2 ALA2        0.0000 
     30 N          -0.3600  -14.1200  -53.6900 N.am      2 ALA2        0.0000 
     31 NZ         -2.2300  -16.3900  -55.9000 N.4       3 LYS4        0.0000 
     32 NZ         -1.9400  -16.0300  -54.4700 N.4       3 LYS4        0.0000 
     33 CZ          0.6300  -12.9200  -55.7700 C.ar      4 PHE5        0.0000 
     34 CZ          1.9100  -11.3600  -56.4200 C.ar      4 PHE5        0.0000 
     35 CZ          2.0900  -12.8100  -56.1000 C.ar      4 PHE5        0.0000 
     36 CZ          1.1000  -14.0200  -54.0200 C.ar      4 PHE5        0.0000 
     37 CZ          2.3900  -12.4600  -54.6700 C.ar      4 PHE5        0.0000 
     38 CZ          2.5600  -13.9100  -54.3500 C.ar      4 PHE5        0.0000 
     39 CZ          1.5700  -15.1200  -52.2700 C.ar      4 PHE5        0.0000 
     40 CZ          1.8700  -14.7600  -50.8400 C.ar      4 PHE5        0.0000 
     41 CA          4.6000  -14.7700  -59.2800 C.3       5 GLY6        0.0000 
     42 CA         -2.4100  -14.9300  -56.2200 C.3       5 GLY6        0.0000 
     43 CA         -0.7700  -16.2800  -56.2200 C.3       5 GLY6        0.0000 
     44 CA          6.0000  -11.4000  -58.8300 C.3       5 GLY6        0.0000 
     45 CA         -0.8300  -13.0200  -55.4400 C.3       5 GLY6        0.0000 
     46 CA         -0.4800  -15.9300  -54.8000 C.3       5 GLY6        0.0000 
     47 CA          0.9800  -15.8300  -55.1200 C.3       5 GLY6        0.0000 
     48 CA          2.4400  -15.7200  -55.4500 C.3       5 GLY6        0.0000 
     49 CA          3.2000   -9.8000  -57.0700 C.3       5 GLY6        0.0000 
     50 CA          3.5500  -12.7100  -56.4200 C.3       5 GLY6        0.0000 
     51 CA          3.9000  -15.6200  -55.7800 C.3       5 GLY6        0.0000 
     52 CA          5.1900  -14.0600  -56.4300 C.3       5 GLY6        0.0000 
     53 CA         -0.1800  -15.5800  -53.3700 C.3       5 GLY6        0.0000 
     54 CA          1.2800  -15.4700  -53.7000 C.3       5 GLY6        0.0000 
     55 CA          1.4500  -16.9300  -53.3700 C.3       5 GLY6        0.0000 
     56 CA          2.9100  -16.8200  -53.7000 C.3       5 GLY6        0.0000 
     57 CA          3.6700  -10.9000  -55.3200 C.3       5 GLY6        0.0000 
     58 CA          4.0200  -13.8100  -54.6700 C.3       5 GLY6        0.0000 
     59 CA          5.1300  -10.8000  -55.6500 C.3       5 GLY6        0.0000 
     60 CA          0.1100  -15.2200  -51.9400 C.3       5 GLY6        0.0000 
     61 CA          1.7500  -16.5700  -51.9400 C.3       5 GLY6        0.0000 
     62 CA          2.8600  -13.5600  -52.9200 C.3       5 GLY6        0.0000 
     63 CA          4.8500  -17.8200  -52.2700 C.3       5 GLY6        0.0000 
     64 CA          2.0400  -16.2200  -50.5200 C.3       5 GLY6        0.0000 
     65 CA          3.5000  -16.1100  -50.8400 C.3       5 GLY6        0.0000 
     66 CA          3.6800  -17.5700  -50.5200 C.3       5 GLY6        0.0000 
     67 CA          5.1400  -17.4600  -50.8500 C.3       5 GLY6        0.0000 
     68 DU          6.9900  -10.1900  -60.9100 H         6 CUB7        0.0000 
     69 DU          4.3600  -10.0500  -58.8300 H         6 CUB7        0.0000 
     70 DU          0.8100  -14.3700  -55.4500 H         6 CUB7        0.0000 
     71 DU          2.2700  -14.2700  -55.7700 H         6 CUB7        0.0000 
     72 DU          3.3700  -11.2500  -56.7500 H         6 CUB7        0.0000 
@<TRIPOS>BOND
@<TRIPOS>SUBSTRUCTURE
     1 SER1        1 GROUP   
     2 ALA2        6 GROUP   
     3 LYS4       31 GROUP   
     4 PHE5       33 GROUP   
     5 GLY6       41 GROUP   
     6 CUB7       68 GROUP   
@<TRIPOS>SET

