#    Name: 5z2r_2_TD6
#    Modification time : Fri May 22 19:31:49 2020

@<TRIPOS>MOLECULE
5z2r_2_TD6
   33    34     1     0     0
SMALL
NO_CHARGES


@<TRIPOS>ATOM
      1 S1        -43.7560   -7.7530   32.5830 S.3       1 TD6601      0.0000 
      2 C2        -43.6520   -7.1550   31.1340 C.2       1 TD6601      0.0000 
      3 N3        -43.2030   -8.1540   30.2280 N.pl3     1 TD6601      0.0000 
      4 C4        -42.9900   -9.4580   31.0450 C.2       1 TD6601      0.0000 
      5 C5        -43.3190   -9.2120   32.4320 C.2       1 TD6601      0.0000 
      6 C6        -43.2300  -10.2890   33.5190 C.3       1 TD6601      0.0000 
      7 C7        -42.2980   -9.8610   34.6460 C.3       1 TD6601      0.0000 
      8 O7        -42.1440  -10.9550   35.5030 O.3       1 TD6601      0.0000 
      9 PA        -41.6250  -10.7170   37.0580 P.3       1 TD6601      0.0000 
     10 PB        -44.0370   -9.4480   38.1730 P.3       1 TD6601      0.0000 
     11 N1'       -39.5870   -9.0920   27.5260 N.ar      1 TD6601      0.0000 
     12 C11       -43.9790   -5.7320   30.6810 C.3       1 TD6601      0.0000 
     13 C13       -44.1180   -3.4970   31.7070 C.3       1 TD6601      0.0000 
     14 O1A       -40.1870  -10.2560   36.9820 O.co2     1 TD6601      0.0000 
     15 O1B       -44.1630   -8.2290   39.0520 O.co2     1 TD6601      0.0000 
     16 C2'       -38.7820   -8.0680   27.9150 C.ar      1 TD6601      0.0000 
     17 O2A       -41.7540  -12.0140   37.8300 O.co2     1 TD6601      0.0000 
     18 O2B       -44.9170   -9.2970   36.9410 O.co2     1 TD6601      0.0000 
     19 N3'       -39.3180   -7.0170   28.5790 N.ar      1 TD6601      0.0000 
     20 O3A       -42.4450   -9.5060   37.7890 O.3       1 TD6601      0.0000 
     21 O3B       -44.4220  -10.7170   38.9210 O.co2     1 TD6601      0.0000 
     22 C4'       -40.6030   -7.0090   28.8460 C.ar      1 TD6601      0.0000 
     23 N4'       -41.0630   -5.8590   29.5460 N.pl3     1 TD6601      0.0000 
     24 C5'       -41.4360   -8.0270   28.4740 C.ar      1 TD6601      0.0000 
     25 C6'       -40.8910   -9.0760   27.8070 C.ar      1 TD6601      0.0000 
     26 C7'       -42.9480   -8.0170   28.7850 C.3       1 TD6601      0.0000 
     27 OL1       -45.3440   -5.5060   30.8600 O.3       1 TD6601      0.0000 
     28 OL2       -42.5370   -3.2680   33.5000 O.co2     1 TD6601      0.0000 
     29 OL3       -44.4660   -2.1670   33.6890 O.co2     1 TD6601      0.0000 
     30 CLB       -43.2250   -4.7170   31.5180 C.3       1 TD6601      0.0000 
     31 CLC       -43.6810   -2.9380   33.0550 C.2       1 TD6601      0.0000 
     32 CM2       -37.2840   -8.0920   27.6050 C.3       1 TD6601      0.0000 
     33 CM4       -42.5140  -10.7720   30.4360 C.3       1 TD6601      0.0000 
@<TRIPOS>BOND
     1    1    2 1    
     2    1    5 1    
     3    2    3 2    
     4    2   12 1    
     5    3    4 1    
     6    3   26 1    
     7    4    5 2    
     8    4   33 1    
     9    5    6 1    
    10    6    7 1    
    11    7    8 1    
    12    8    9 1    
    13    9   14 ar   
    14    9   17 ar   
    15    9   20 1    
    16   10   15 ar   
    17   10   18 ar   
    18   10   20 1    
    19   10   21 ar   
    20   11   16 ar   
    21   11   25 ar   
    22   12   27 1    
    23   12   30 1    
    24   13   30 1    
    25   13   31 1    
    26   16   19 ar   
    27   16   32 1    
    28   19   22 ar   
    29   22   23 1    
    30   22   24 ar   
    31   24   25 ar   
    32   24   26 1    
    33   28   31 ar   
    34   29   31 ar   
@<TRIPOS>SUBSTRUCTURE
     1 TD6601      1 GROUP   
@<TRIPOS>SET

