#    Name: 5z2r_1_TD6
#    Modification time : Fri May 22 19:31:33 2020

@<TRIPOS>MOLECULE
5z2r_1_TD6
   33    34     1     0     0
SMALL
NO_CHARGES


@<TRIPOS>ATOM
      1 S1        -14.9690  -18.4820   21.6280 S.3       1 TD6601      0.0000 
      2 C2        -15.4170  -17.3880   20.6020 C.2       1 TD6601      0.0000 
      3 N3        -15.8940  -16.2390   21.2940 N.pl3     1 TD6601      0.0000 
      4 C4        -15.7680  -16.5320   22.8160 C.2       1 TD6601      0.0000 
      5 C5        -15.2280  -17.8570   22.9980 C.2       1 TD6601      0.0000 
      6 C6        -14.9790  -18.4620   24.3760 C.3       1 TD6601      0.0000 
      7 C7        -15.7490  -19.7660   24.5550 C.3       1 TD6601      0.0000 
      8 O7        -15.6390  -20.0760   25.9190 O.3       1 TD6601      0.0000 
      9 PA        -16.0370  -21.5870   26.4450 P.3       1 TD6601      0.0000 
     10 PB        -13.6570  -22.8970   25.4360 P.3       1 TD6601      0.0000 
     11 N1'       -19.6660  -13.6670   21.9180 N.ar      1 TD6601      0.0000 
     12 C11       -15.3880  -17.4780   19.0890 C.3       1 TD6601      0.0000 
     13 C13       -16.0160  -19.2520   17.4920 C.3       1 TD6601      0.0000 
     14 O1A       -17.5040  -21.8130   26.3060 O.co2     1 TD6601      0.0000 
     15 O1B       -13.4770  -24.1920   24.6810 O.co2     1 TD6601      0.0000 
     16 C2'       -20.5400  -14.5050   21.2980 C.ar      1 TD6601      0.0000 
     17 O2A       -15.5870  -21.7530   27.8950 O.co2     1 TD6601      0.0000 
     18 O2B       -13.0020  -21.7970   24.6320 O.co2     1 TD6601      0.0000 
     19 N3'       -20.0810  -15.4870   20.4960 N.ar      1 TD6601      0.0000 
     20 O3A       -15.2840  -22.7180   25.5120 O.3       1 TD6601      0.0000 
     21 O3B       -13.0970  -22.9160   26.8460 O.co2     1 TD6601      0.0000 
     22 C4'       -18.7850  -15.6410   20.3240 C.ar      1 TD6601      0.0000 
     23 N4'       -18.3420  -16.7190   19.4610 N.pl3     1 TD6601      0.0000 
     24 C5'       -17.8960  -14.8120   20.9450 C.ar      1 TD6601      0.0000 
     25 C6'       -18.3560  -13.8100   21.7480 C.ar      1 TD6601      0.0000 
     26 C7'       -16.3890  -14.9970   20.7190 C.3       1 TD6601      0.0000 
     27 OL1       -14.3720  -16.6430   18.6450 O.3       1 TD6601      0.0000 
     28 OL2       -15.7290  -21.6470   17.6060 O.co2     1 TD6601      0.0000 
     29 OL3       -15.0370  -20.6560   15.7660 O.co2     1 TD6601      0.0000 
     30 CLB       -15.1240  -18.9190   18.6800 C.3       1 TD6601      0.0000 
     31 CLC       -15.5660  -20.5990   16.9160 C.2       1 TD6601      0.0000 
     32 CM2       -22.0470  -14.3340   21.4930 C.3       1 TD6601      0.0000 
     33 CM4       -16.1600  -15.5670   23.9190 C.3       1 TD6601      0.0000 
@<TRIPOS>BOND
     1    1    2 1    
     2    1    5 1    
     3    2    3 2    
     4    2   12 1    
     5    3    4 1    
     6    3   26 1    
     7    4    5 2    
     8    4   33 1    
     9    5    6 1    
    10    6    7 1    
    11    7    8 1    
    12    8    9 1    
    13    9   14 ar   
    14    9   17 ar   
    15    9   20 1    
    16   10   15 ar   
    17   10   18 ar   
    18   10   20 1    
    19   10   21 ar   
    20   11   16 ar   
    21   11   25 ar   
    22   12   27 1    
    23   12   30 1    
    24   13   30 1    
    25   13   31 1    
    26   16   19 ar   
    27   16   32 1    
    28   19   22 ar   
    29   22   23 1    
    30   22   24 ar   
    31   24   25 ar   
    32   24   26 1    
    33   28   31 ar   
    34   29   31 ar   
@<TRIPOS>SUBSTRUCTURE
     1 TD6601      1 GROUP   
@<TRIPOS>SET

