#    Name: 5z2r_3_TD6
#    Modification time : Fri May 22 19:32:03 2020

@<TRIPOS>MOLECULE
5z2r_3_TD6
   33    34     1     0     0
SMALL
NO_CHARGES


@<TRIPOS>ATOM
      1 S1        -50.4760   11.7790  -16.7830 S.3       1 TD6601      0.0000 
      2 C2        -49.9900   11.1650  -15.4390 C.2       1 TD6601      0.0000 
      3 N3        -49.3240   12.1630  -14.6540 N.pl3     1 TD6601      0.0000 
      4 C4        -49.3720   13.4880  -15.4650 C.2       1 TD6601      0.0000 
      5 C5        -50.0540   13.2480  -16.7120 C.2       1 TD6601      0.0000 
      6 C6        -50.2970   14.3100  -17.7780 C.3       1 TD6601      0.0000 
      7 C7        -49.5320   13.9020  -19.0370 C.3       1 TD6601      0.0000 
      8 O7        -49.7080   14.9310  -19.9630 O.3       1 TD6601      0.0000 
      9 PA        -49.5100   14.6860  -21.5760 P.3       1 TD6601      0.0000 
     10 PB        -52.2450   13.6280  -21.9670 P.3       1 TD6601      0.0000 
     11 N1'       -45.0810   13.0130  -13.1040 N.ar      1 TD6601      0.0000 
     12 C11       -50.1550    9.7000  -15.0410 C.3       1 TD6601      0.0000 
     13 C13       -51.0390    7.4790  -15.4570 C.3       1 TD6601      0.0000 
     14 O1A       -48.1390   14.1170  -21.8510 O.co2     1 TD6601      0.0000 
     15 O1B       -52.6790   12.3930  -22.6800 O.co2     1 TD6601      0.0000 
     16 C2'       -44.4340   11.9600  -13.6640 C.ar      1 TD6601      0.0000 
     17 O2A       -49.7120   15.9760  -22.3470 O.co2     1 TD6601      0.0000 
     18 O2B       -52.7330   13.5180  -20.5360 O.co2     1 TD6601      0.0000 
     19 N3'       -45.1520   10.9080  -14.1150 N.ar      1 TD6601      0.0000 
     20 O3A       -50.6080   13.5740  -22.0700 O.3       1 TD6601      0.0000 
     21 O3B       -52.7750   14.9000  -22.6360 O.co2     1 TD6601      0.0000 
     22 C4'       -46.4760   10.9180  -14.0250 C.ar      1 TD6601      0.0000 
     23 N4'       -47.1490    9.7560  -14.5340 N.pl3     1 TD6601      0.0000 
     24 C5'       -47.1480   11.9770  -13.4780 C.ar      1 TD6601      0.0000 
     25 C6'       -46.4040   13.0120  -13.0150 C.ar      1 TD6601      0.0000 
     26 C7'       -48.6910   12.0330  -13.3430 C.3       1 TD6601      0.0000 
     27 OL1       -50.5300    9.6170  -13.6970 O.3       1 TD6601      0.0000 
     28 OL2       -50.7190    6.8620  -17.7900 O.co2     1 TD6601      0.0000 
     29 OL3       -51.6050    5.3730  -16.4150 O.co2     1 TD6601      0.0000 
     30 CLB       -51.1390    8.9310  -15.9240 C.3       1 TD6601      0.0000 
     31 CLC       -51.1220    6.5170  -16.6370 C.2       1 TD6601      0.0000 
     32 CM2       -42.9030   11.9620  -13.7650 C.3       1 TD6601      0.0000 
     33 CM4       -48.7860   14.8100  -14.9890 C.3       1 TD6601      0.0000 
@<TRIPOS>BOND
     1    1    2 1    
     2    1    5 1    
     3    2    3 2    
     4    2   12 1    
     5    3    4 1    
     6    3   26 1    
     7    4    5 2    
     8    4   33 1    
     9    5    6 1    
    10    6    7 1    
    11    7    8 1    
    12    8    9 1    
    13    9   14 ar   
    14    9   17 ar   
    15    9   20 1    
    16   10   15 ar   
    17   10   18 ar   
    18   10   20 1    
    19   10   21 ar   
    20   11   16 ar   
    21   11   25 ar   
    22   12   27 1    
    23   12   30 1    
    24   13   30 1    
    25   13   31 1    
    26   16   19 ar   
    27   16   32 1    
    28   19   22 ar   
    29   22   23 1    
    30   22   24 ar   
    31   24   25 ar   
    32   24   26 1    
    33   28   31 ar   
    34   29   31 ar   
@<TRIPOS>SUBSTRUCTURE
     1 TD6601      1 GROUP   
@<TRIPOS>SET

