#    Name: 5z2r_6_TD6
#    Modification time : Fri May 22 19:32:48 2020

@<TRIPOS>MOLECULE
5z2r_6_TD6
   33    34     1     0     0
SMALL
NO_CHARGES


@<TRIPOS>ATOM
      1 S1          2.9120  -14.8240  -54.1830 S.3       1 TD6601      0.0000 
      2 C2          1.8690  -14.5100  -55.2960 C.2       1 TD6601      0.0000 
      3 N3          0.5410  -14.6460  -54.7610 N.pl3     1 TD6601      0.0000 
      4 C4          0.6800  -15.0660  -53.2680 C.2       1 TD6601      0.0000 
      5 C5          2.0920  -15.1690  -52.9440 C.2       1 TD6601      0.0000 
      6 C6          2.6370  -15.5350  -51.5690 C.3       1 TD6601      0.0000 
      7 C7          3.3040  -16.9010  -51.5450 C.3       1 TD6601      0.0000 
      8 O7          3.6410  -17.1340  -50.2080 O.3       1 TD6601      0.0000 
      9 PA          4.8360  -18.1980  -49.8620 P.3       1 TD6601      0.0000 
     10 PB          6.9190  -16.2300  -50.2520 P.3       1 TD6601      0.0000 
     11 N1'        -3.1380  -17.3080  -55.3390 N.ar      1 TD6601      0.0000 
     12 C11         2.1960  -14.0980  -56.7300 C.3       1 TD6601      0.0000 
     13 C13         3.8430  -14.6990  -58.5370 C.3       1 TD6601      0.0000 
     14 O1A         4.4950  -19.5420  -50.4770 O.co2     1 TD6601      0.0000 
     15 O1B         8.2570  -16.2490  -50.9490 O.co2     1 TD6601      0.0000 
     16 C2'        -2.5700  -18.1970  -56.1900 C.ar      1 TD6601      0.0000 
     17 O2A         4.9870  -18.3240  -48.3540 O.co2     1 TD6601      0.0000 
     18 O2B         6.2050  -15.0110  -50.8070 O.co2     1 TD6601      0.0000 
     19 N3'        -1.4170  -17.8910  -56.8020 N.ar      1 TD6601      0.0000 
     20 O3A         6.2190  -17.6660  -50.5510 O.3       1 TD6601      0.0000 
     21 O3B         7.0700  -16.1360  -48.7390 O.co2     1 TD6601      0.0000 
     22 C4'        -0.8370  -16.7260  -56.5820 C.ar      1 TD6601      0.0000 
     23 N4'         0.3970  -16.4850  -57.2920 N.pl3     1 TD6601      0.0000 
     24 C5'        -1.3970  -15.8070  -55.7330 C.ar      1 TD6601      0.0000 
     25 C6'        -2.5700  -16.1240  -55.1150 C.ar      1 TD6601      0.0000 
     26 C7'        -0.7310  -14.4480  -55.4560 C.3       1 TD6601      0.0000 
     27 OL1         1.9360  -12.7300  -56.8460 O.3       1 TD6601      0.0000 
     28 OL2         6.0720  -15.6060  -58.4200 O.co2     1 TD6601      0.0000 
     29 OL3         5.8320  -13.6670  -59.4700 O.co2     1 TD6601      0.0000 
     30 CLB         3.6660  -14.3680  -57.0520 C.3       1 TD6601      0.0000 
     31 CLC         5.3440  -14.6530  -58.8320 C.2       1 TD6601      0.0000 
     32 CM2        -3.2260  -19.5440  -56.4680 C.3       1 TD6601      0.0000 
     33 CM4        -0.4840  -15.3120  -52.3200 C.3       1 TD6601      0.0000 
@<TRIPOS>BOND
     1    1    2 1    
     2    1    5 1    
     3    2    3 2    
     4    2   12 1    
     5    3    4 1    
     6    3   26 1    
     7    4    5 2    
     8    4   33 1    
     9    5    6 1    
    10    6    7 1    
    11    7    8 1    
    12    8    9 1    
    13    9   14 ar   
    14    9   17 ar   
    15    9   20 1    
    16   10   15 ar   
    17   10   18 ar   
    18   10   20 1    
    19   10   21 ar   
    20   11   16 ar   
    21   11   25 ar   
    22   12   27 1    
    23   12   30 1    
    24   13   30 1    
    25   13   31 1    
    26   16   19 ar   
    27   16   32 1    
    28   19   22 ar   
    29   22   23 1    
    30   22   24 ar   
    31   24   25 ar   
    32   24   26 1    
    33   28   31 ar   
    34   29   31 ar   
@<TRIPOS>SUBSTRUCTURE
     1 TD6601      1 GROUP   
@<TRIPOS>SET

