#    Name: 5z2r_8_TD6
#    Modification time : Fri May 22 19:33:02 2020

@<TRIPOS>MOLECULE
5z2r_8_TD6
   33    34     1     0     0
SMALL
NO_CHARGES


@<TRIPOS>ATOM
      1 S1        -32.8110  -24.6840 -101.7240 S.3       1 TD6601      0.0000 
      2 C2        -32.1790  -24.8360 -100.3110 C.2       1 TD6601      0.0000 
      3 N3        -32.9410  -24.0620  -99.3730 N.pl3     1 TD6601      0.0000 
      4 C4        -34.0990  -23.3770 -100.1570 C.2       1 TD6601      0.0000 
      5 C5        -34.0070  -23.7480 -101.5480 C.2       1 TD6601      0.0000 
      6 C6        -34.9620  -23.2800 -102.6530 C.3       1 TD6601      0.0000 
      7 C7        -34.1880  -22.5020 -103.7270 C.3       1 TD6601      0.0000 
      8 O7        -35.1070  -21.9990 -104.6550 O.3       1 TD6601      0.0000 
      9 PA        -34.6390  -21.5170 -106.1590 P.3       1 TD6601      0.0000 
     10 PB        -34.6230  -24.2000 -107.2770 P.3       1 TD6601      0.0000 
     11 N1'       -32.3010  -20.4160  -96.7150 N.ar      1 TD6601      0.0000 
     12 C11       -30.9410  -25.6790  -99.9790 C.3       1 TD6601      0.0000 
     13 C13       -29.0140  -26.4380 -101.4260 C.3       1 TD6601      0.0000 
     14 O1A       -33.6340  -20.3900 -106.0460 O.co2     1 TD6601      0.0000 
     15 O1B       -33.5970  -24.9370 -108.0870 O.co2     1 TD6601      0.0000 
     16 C2'       -31.0300  -20.1320  -97.1030 C.ar      1 TD6601      0.0000 
     17 O2A       -35.8740  -21.1060 -106.9410 O.co2     1 TD6601      0.0000 
     18 O2B       -34.9240  -24.9560 -106.0040 O.co2     1 TD6601      0.0000 
     19 N3'       -30.2920  -21.0570  -97.7470 N.ar      1 TD6601      0.0000 
     20 O3A       -33.9120  -22.7580 -106.9390 O.3       1 TD6601      0.0000 
     21 O3B       -35.9070  -24.0160 -108.0690 O.co2     1 TD6601      0.0000 
     22 C4'       -30.8090  -22.2360  -98.0050 C.ar      1 TD6601      0.0000 
     23 N4'       -29.9520  -23.1590  -98.7040 N.pl3     1 TD6601      0.0000 
     24 C5'       -32.0880  -22.5430  -97.6270 C.ar      1 TD6601      0.0000 
     25 C6'       -32.8220  -21.6070  -96.9810 C.ar      1 TD6601      0.0000 
     26 C7'       -32.7140  -23.9090  -97.9300 C.3       1 TD6601      0.0000 
     27 OL1       -31.2480  -26.4330  -98.8500 O.3       1 TD6601      0.0000 
     28 OL2       -28.9670  -28.4700 -102.7340 O.co2     1 TD6601      0.0000 
     29 OL3       -27.4570  -28.2830 -101.1670 O.co2     1 TD6601      0.0000 
     30 CLB       -30.5140  -26.5910 -101.1340 C.3       1 TD6601      0.0000 
     31 CLC       -28.4420  -27.8090 -101.7980 C.2       1 TD6601      0.0000 
     32 CM2       -30.4230  -18.7610  -96.8050 C.3       1 TD6601      0.0000 
     33 CM4       -35.1480  -22.4600  -99.5290 C.3       1 TD6601      0.0000 
@<TRIPOS>BOND
     1    1    2 1    
     2    1    5 1    
     3    2    3 2    
     4    2   12 1    
     5    3    4 1    
     6    3   26 1    
     7    4    5 2    
     8    4   33 1    
     9    5    6 1    
    10    6    7 1    
    11    7    8 1    
    12    8    9 1    
    13    9   14 ar   
    14    9   17 ar   
    15    9   20 1    
    16   10   15 ar   
    17   10   18 ar   
    18   10   20 1    
    19   10   21 ar   
    20   11   16 ar   
    21   11   25 ar   
    22   12   27 1    
    23   12   30 1    
    24   13   30 1    
    25   13   31 1    
    26   16   19 ar   
    27   16   32 1    
    28   19   22 ar   
    29   22   23 1    
    30   22   24 ar   
    31   24   25 ar   
    32   24   26 1    
    33   28   31 ar   
    34   29   31 ar   
@<TRIPOS>SUBSTRUCTURE
     1 TD6601      1 GROUP   
@<TRIPOS>SET

