#    Name: 5z2r_4_TD6
#    Modification time : Fri May 22 19:32:18 2020

@<TRIPOS>MOLECULE
5z2r_4_TD6
   33    34     1     0     0
SMALL
NO_CHARGES


@<TRIPOS>ATOM
      1 S1        -19.2190   20.3910  -14.7980 S.3       1 TD6601      0.0000 
      2 C2        -19.3810   19.3540  -13.6450 C.2       1 TD6601      0.0000 
      3 N3        -19.9880   18.1480  -14.1410 N.pl3     1 TD6601      0.0000 
      4 C4        -20.2620   18.3670  -15.6620 C.2       1 TD6601      0.0000 
      5 C5        -19.7980   19.6910  -16.0300 C.2       1 TD6601      0.0000 
      6 C6        -19.8840   20.2510  -17.4460 C.3       1 TD6601      0.0000 
      7 C7        -20.6980   21.5360  -17.4670 C.3       1 TD6601      0.0000 
      8 O7        -20.7300   21.9590  -18.8020 O.3       1 TD6601      0.0000 
      9 PA        -21.1940   23.4940  -19.1530 P.3       1 TD6601      0.0000 
     10 PB        -18.5300   24.5620  -18.7180 P.3       1 TD6601      0.0000 
     11 N1'       -23.9420   15.9110  -13.5550 N.ar      1 TD6601      0.0000 
     12 C11       -18.9550   19.5780  -12.2030 C.3       1 TD6601      0.0000 
     13 C13       -17.7500   20.8870  -10.5490 C.3       1 TD6601      0.0000 
     14 O1A       -22.5710   23.6970  -18.5540 O.co2     1 TD6601      0.0000 
     15 O1B       -17.9940   25.6650  -17.8460 O.co2     1 TD6601      0.0000 
     16 C2'       -24.5290   16.7640  -12.6740 C.ar      1 TD6601      0.0000 
     17 O2A       -21.2230   23.7120  -20.6550 O.co2     1 TD6601      0.0000 
     18 O2B       -17.7870   23.3300  -18.2940 O.co2     1 TD6601      0.0000 
     19 N3'       -23.7760   17.6640  -12.0180 N.ar      1 TD6601      0.0000 
     20 O3A       -20.1500   24.5090  -18.4450 O.3       1 TD6601      0.0000 
     21 O3B       -18.3890   24.8220  -20.2180 O.co2     1 TD6601      0.0000 
     22 C4'       -22.4690   17.7240  -12.2360 C.ar      1 TD6601      0.0000 
     23 N4'       -21.7440   18.7310  -11.4880 N.pl3     1 TD6601      0.0000 
     24 C5'       -21.8580   16.8750  -13.1270 C.ar      1 TD6601      0.0000 
     25 C6'       -22.6350   15.9700  -13.7840 C.ar      1 TD6601      0.0000 
     26 C7'       -20.3380   16.9310  -13.4030 C.3       1 TD6601      0.0000 
     27 OL1       -18.2280   18.4650  -11.7990 O.3       1 TD6601      0.0000 
     28 OL2       -18.5210   23.1770  -10.6950 O.co2     1 TD6601      0.0000 
     29 OL3       -17.2860   22.6330   -8.9670 O.co2     1 TD6601      0.0000 
     30 CLB       -18.0980   20.8260  -12.0340 C.3       1 TD6601      0.0000 
     31 CLC       -17.8630   22.3220  -10.0420 C.2       1 TD6601      0.0000 
     32 CM2       -26.0350   16.7030  -12.4100 C.3       1 TD6601      0.0000 
     33 CM4       -20.8920   17.3430  -16.5990 C.3       1 TD6601      0.0000 
@<TRIPOS>BOND
     1    1    2 1    
     2    1    5 1    
     3    2    3 2    
     4    2   12 1    
     5    3    4 1    
     6    3   26 1    
     7    4    5 2    
     8    4   33 1    
     9    5    6 1    
    10    6    7 1    
    11    7    8 1    
    12    8    9 1    
    13    9   14 ar   
    14    9   17 ar   
    15    9   20 1    
    16   10   15 ar   
    17   10   18 ar   
    18   10   20 1    
    19   10   21 ar   
    20   11   16 ar   
    21   11   25 ar   
    22   12   27 1    
    23   12   30 1    
    24   13   30 1    
    25   13   31 1    
    26   16   19 ar   
    27   16   32 1    
    28   19   22 ar   
    29   22   23 1    
    30   22   24 ar   
    31   24   25 ar   
    32   24   26 1    
    33   28   31 ar   
    34   29   31 ar   
@<TRIPOS>SUBSTRUCTURE
     1 TD6601      1 GROUP   
@<TRIPOS>SET

