#    Name: 5z2r_2_TD6_CAVITY_N1_4
#    Modification time : Fri May 22 19:31:51 2020

@<TRIPOS>MOLECULE
5z2r_2_TD6_CAVITY_N1_4
   77     0     6     0     0
SMALL
NO_CHARGES


@<TRIPOS>ATOM
      1 OG        -43.1500   -7.8800   32.3900 O.3       1 SER1        0.0000 
      2 OG        -42.8600   -7.5300   33.8200 O.3       1 SER1        0.0000 
      3 OG        -42.6800   -8.9800   34.1500 O.3       1 SER1        0.0000 
      4 OG        -42.2100  -10.0900   35.9000 O.3       1 SER1        0.0000 
      5 OG        -40.9300   -8.5300   35.2500 O.3       1 SER1        0.0000 
      6 OG        -40.7500   -9.9800   35.5700 O.3       1 SER1        0.0000 
      7 N         -44.0400   -8.9400   28.1100 N.am      2 ALA2        0.0000 
      8 N         -42.5800   -8.8400   27.7800 N.am      2 ALA2        0.0000 
      9 N         -45.5600   -5.7900   29.2200 N.am      2 ALA2        0.0000 
     10 N         -44.1000   -5.6800   28.8900 N.am      2 ALA2        0.0000 
     11 O         -43.9200   -7.1400   29.2200 O.2       2 ALA2        0.0000 
     12 N         -43.5700  -10.0500   29.8600 N.am      2 ALA2        0.0000 
     13 O         -42.6400   -5.5800   28.5700 O.2       2 ALA2        0.0000 
     14 O         -42.4600   -7.0300   28.8900 O.2       2 ALA2        0.0000 
     15 N         -42.2800   -8.4900   29.2100 N.am      2 ALA2        0.0000 
     16 N         -42.1100   -9.9400   29.5400 N.am      2 ALA2        0.0000 
     17 N         -41.1700   -5.4700   28.2400 N.am      2 ALA2        0.0000 
     18 O         -39.5400   -6.8200   28.2300 O.2       2 ALA2        0.0000 
     19 N         -46.9000   -4.0800   30.6500 N.am      2 ALA2        0.0000 
     20 N         -45.4400   -3.9800   30.3200 N.am      2 ALA2        0.0000 
     21 N         -45.2600   -5.4300   30.6500 N.am      2 ALA2        0.0000 
     22 N         -43.8000   -5.3300   30.3200 N.am      2 ALA2        0.0000 
     23 N         -42.5200   -3.7700   29.6700 N.am      2 ALA2        0.0000 
     24 N         -42.3400   -5.2300   29.9900 N.am      2 ALA2        0.0000 
     25 N         -45.1400   -3.6300   31.7500 N.am      2 ALA2        0.0000 
     26 N         -43.6800   -3.5200   31.4200 N.am      2 ALA2        0.0000 
     27 N         -42.2200   -3.4200   31.1000 N.am      2 ALA2        0.0000 
     28 N         -42.0500   -4.8700   31.4200 N.am      2 ALA2        0.0000 
     29 O         -43.3900   -3.1700   32.8500 O.2       2 ALA2        0.0000 
     30 O         -43.2100   -4.6200   33.1800 O.2       2 ALA2        0.0000 
     31 NZ        -41.1200   -8.7400   27.4600 N.4       3 LYS4        0.0000 
     32 NZ        -39.6600   -8.6300   27.1300 N.4       3 LYS4        0.0000 
     33 CZ        -47.0200   -5.8900   29.5500 C.ar      4 PHE5        0.0000 
     34 CZ        -45.3800   -7.2400   29.5400 C.ar      4 PHE5        0.0000 
     35 CZ        -43.7400   -8.5900   29.5400 C.ar      4 PHE5        0.0000 
     36 CZ        -48.1800   -5.6400   31.3000 C.ar      4 PHE5        0.0000 
     37 CZ        -46.7200   -5.5400   30.9700 C.ar      4 PHE5        0.0000 
     38 CZ        -45.0800   -6.8900   30.9700 C.ar      4 PHE5        0.0000 
     39 CZ        -43.4500   -8.2400   30.9700 C.ar      4 PHE5        0.0000 
     40 CZ        -43.2700   -9.6900   31.2900 C.ar      4 PHE5        0.0000 
     41 CZ        -43.1000  -11.1500   31.6100 C.ar      4 PHE5        0.0000 
     42 CZ        -44.4400   -9.4400   33.0500 C.ar      4 PHE5        0.0000 
     43 CA        -44.2100   -7.4900   27.7900 C.3       5 GLY6        0.0000 
     44 CA        -42.7500   -7.3900   27.4600 C.3       5 GLY6        0.0000 
     45 CA        -41.2900   -7.2800   27.1300 C.3       5 GLY6        0.0000 
     46 CA        -48.6500   -4.5400   29.5500 C.3       5 GLY6        0.0000 
     47 CA        -48.4800   -6.0000   29.8700 C.3       5 GLY6        0.0000 
     48 CA        -40.8200   -8.3800   28.8900 C.3       5 GLY6        0.0000 
     49 CA        -39.3600   -8.2800   28.5600 C.3       5 GLY6        0.0000 
     50 CA        -42.1600   -6.6800   30.3200 C.3       5 GLY6        0.0000 
     51 CA        -41.9900   -8.1300   30.6400 C.3       5 GLY6        0.0000 
     52 CA        -41.8100   -9.5900   30.9600 C.3       5 GLY6        0.0000 
     53 CA        -41.6400  -11.0400   31.2900 C.3       5 GLY6        0.0000 
     54 CA        -40.7000   -6.5800   29.9900 C.3       5 GLY6        0.0000 
     55 CA        -40.5300   -8.0300   30.3100 C.3       5 GLY6        0.0000 
     56 CA        -47.8900   -5.2900   32.7300 C.3       5 GLY6        0.0000 
     57 CA        -46.4300   -5.1800   32.4000 C.3       5 GLY6        0.0000 
     58 CA        -44.7900   -6.5300   32.4000 C.3       5 GLY6        0.0000 
     59 CA        -44.6100   -7.9900   32.7200 C.3       5 GLY6        0.0000 
     60 CA        -42.8000  -10.7900   33.0400 C.3       5 GLY6        0.0000 
     61 CA        -41.8700   -6.3300   31.7400 C.3       5 GLY6        0.0000 
     62 CA        -41.6900   -7.7800   32.0700 C.3       5 GLY6        0.0000 
     63 CA        -41.5200   -9.2300   32.3900 C.3       5 GLY6        0.0000 
     64 CA        -44.6700   -4.7300   33.5000 C.3       5 GLY6        0.0000 
     65 CA        -43.0400   -6.0800   33.5000 C.3       5 GLY6        0.0000 
     66 CA        -42.5100  -10.4400   34.4700 C.3       5 GLY6        0.0000 
     67 CA        -41.7500   -4.5200   32.8500 C.3       5 GLY6        0.0000 
     68 CA        -41.5700   -5.9700   33.1700 C.3       5 GLY6        0.0000 
     69 CA        -41.2200   -8.8800   33.8200 C.3       5 GLY6        0.0000 
     70 CA        -41.0500  -10.3300   34.1400 C.3       5 GLY6        0.0000 
     71 DU        -41.0000   -6.9300   28.5600 H         6 CUB7        0.0000 
     72 DU        -48.3600   -4.1900   30.9800 H         6 CUB7        0.0000 
     73 DU        -43.6200   -6.7800   30.6400 H         6 CUB7        0.0000 
     74 DU        -44.9700   -5.0800   32.0700 H         6 CUB7        0.0000 
     75 DU        -43.5100   -4.9800   31.7500 H         6 CUB7        0.0000 
     76 DU        -43.3300   -6.4300   32.0700 H         6 CUB7        0.0000 
     77 DU        -42.9800   -9.3400   32.7200 H         6 CUB7        0.0000 
@<TRIPOS>BOND
@<TRIPOS>SUBSTRUCTURE
     1 SER1        1 GROUP   
     2 ALA2        7 GROUP   
     3 LYS4       31 GROUP   
     4 PHE5       33 GROUP   
     5 GLY6       43 GROUP   
     6 CUB7       71 GROUP   
@<TRIPOS>SET

