#    Name: 6a2o_4_UMP
#    Modification time : Fri May 22 19:29:02 2020

@<TRIPOS>MOLECULE
6a2o_4_UMP
   20    21     1     0     1
SMALL
NO_CHARGES


@<TRIPOS>ATOM
      1 N1         14.7680   14.3580    9.3760 N.am      1 UMP703      0.0000 
      2 C2         15.5170   13.1690    9.3630 C.2       1 UMP703      0.0000 
      3 N3         16.3230   12.9240    8.3450 N.am      1 UMP703      0.0000 
      4 C4         16.4560   13.7950    7.3240 C.2       1 UMP703      0.0000 
      5 C5         15.7190   14.9670    7.3160 C.2       1 UMP703      0.0000 
      6 C6         14.8770   15.2320    8.3570 C.2       1 UMP703      0.0000 
      7 O2         15.4480   12.3530   10.2840 O.2       1 UMP703      0.0000 
      8 O4         17.2370   13.5550    6.3380 O.2       1 UMP703      0.0000 
      9 C1'        13.7960   14.6630   10.4080 C.3       1 UMP703      0.0000 
     10 C2'        14.2610   15.0780   11.8000 C.3       1 UMP703      0.0000 
     11 C3'        13.0380   15.8870   12.2310 C.3       1 UMP703      0.0000 
     12 C4'        12.6180   16.6280   10.9540 C.3       1 UMP703      0.0000 
     13 O3'        12.0300   14.9660   12.6820 O.3       1 UMP703      0.0000 
     14 O4'        13.0470   15.7910    9.9240 O.3       1 UMP703      0.0000 
     15 C5'        13.3300   17.9670   10.7610 C.3       1 UMP703      0.0000 
     16 O5'        12.7720   18.8960   11.6910 O.3       1 UMP703      0.0000 
     17 P          13.6360   19.9270   12.4730 P.3       1 UMP703      0.0000 
     18 OP1        12.7530   20.7620   13.3580 O.co2     1 UMP703      0.0000 
     19 OP2        14.5750   19.0790   13.2590 O.co2     1 UMP703      0.0000 
     20 OP3        14.3450   20.7220   11.4170 O.co2     1 UMP703      0.0000 
@<TRIPOS>BOND
     1    1    2 1    
     2    1    6 1    
     3    1    9 1    
     4    2    3 1    
     5    2    7 2    
     6    3    4 1    
     7    4    5 1    
     8    4    8 2    
     9    5    6 2    
    10    9   10 1    
    11    9   14 1    
    12   10   11 1    
    13   11   12 1    
    14   11   13 1    
    15   12   14 1    
    16   12   15 1    
    17   15   16 1    
    18   16   17 1    
    19   17   18 ar   
    20   17   19 ar   
    21   17   20 ar   
@<TRIPOS>SUBSTRUCTURE
     1 UMP703      1 GROUP   
@<TRIPOS>SET
ATOM$ORANGE STATIC     ATOMS   COLORGROUP SYSTEM 
18 2 2 4 4 5 5 6 6 9 9 10 10 11 11 12 12 15 \
15 

