#    Name: 6a2o_2_UMP_CAVITY_N1_12
#    Modification time : Fri May 22 19:28:48 2020

@<TRIPOS>MOLECULE
6a2o_2_UMP_CAVITY_N1_12
   90     0     7     0     0
SMALL
NO_CHARGES


@<TRIPOS>ATOM
      1 OG         45.1700   18.7700   16.8600 O.3       1 SER1        0.0000 
      2 OG         46.5100   18.9700   16.2200 O.3       1 SER1        0.0000 
      3 OG         47.4300   18.9800   18.1300 O.3       1 SER1        0.0000 
      4 OG         46.8400   20.0300   17.2300 O.3       1 SER1        0.0000 
      5 N          44.5800   19.8100   15.9700 N.am      2 ALA2        0.0000 
      6 N          42.8200   19.4100   19.1700 N.am      2 ALA2        0.0000 
      7 N          44.1600   19.6200   18.5200 N.am      2 ALA2        0.0000 
      8 N          43.5700   20.6600   17.6200 N.am      2 ALA2        0.0000 
      9 N          44.9000   20.8700   16.9800 N.am      2 ALA2        0.0000 
     10 N          43.1500   20.4700   20.1800 N.am      2 ALA2        0.0000 
     11 O          41.2100   21.3100   19.9300 O.2       2 ALA2        0.0000 
     12 N          42.5500   21.5200   19.2800 N.am      2 ALA2        0.0000 
     13 N          43.8900   21.7200   18.6400 N.am      2 ALA2        0.0000 
     14 N          41.9600   22.5600   18.3800 N.am      2 ALA2        0.0000 
     15 N          42.1300   21.3200   21.8400 N.am      2 ALA2        0.0000 
     16 O          41.5400   22.3700   20.9400 O.2       2 ALA2        0.0000 
     17 O          46.3200   20.7000   23.3600 O.2       2 ALA2        0.0000 
     18 O          42.4600   22.3800   22.8500 O.2       2 ALA2        0.0000 
     19 O          41.8700   23.4200   21.9500 O.2       2 ALA2        0.0000 
     20 O          44.7000   26.1300   18.2200 O.2       2 ALA2        0.0000 
     21 N          45.3100   21.5500   25.0200 N.am      2 ALA2        0.0000 
     22 N          43.3800   22.3900   24.7600 N.am      2 ALA2        0.0000 
     23 O          42.7900   23.4400   23.8600 O.2       2 ALA2        0.0000 
     24 O          40.8600   24.2800   23.6100 O.2       2 ALA2        0.0000 
     25 O          42.1900   24.4800   22.9700 O.2       2 ALA2        0.0000 
     26 N          45.6200   26.1400   20.1300 N.am      2 ALA2        0.0000 
     27 O          46.9600   26.3400   19.4900 O.2       2 ALA2        0.0000 
     28 O          45.0300   27.1800   19.2300 O.2       2 ALA2        0.0000 
     29 N          45.9400   27.2000   21.1500 N.am      2 ALA2        0.0000 
     30 OD1        45.5900   18.9600   14.3100 O.co2     3 ASP3        0.0000 
     31 OD1        45.9200   20.0200   15.3200 O.co2     3 ASP3        0.0000 
     32 OD1        46.2400   21.0700   16.3300 O.co2     3 ASP3        0.0000 
     33 NZ         46.4200   19.8400   19.7900 N.4       4 LYS4        0.0000 
     34 NZ         47.7500   20.0400   19.1400 N.4       4 LYS4        0.0000 
     35 NZ         46.7400   20.8900   20.8000 N.4       4 LYS4        0.0000 
     36 NZ         48.0800   21.1000   20.1600 N.4       4 LYS4        0.0000 
     37 NZ         42.5200   25.5400   23.9800 N.4       4 LYS4        0.0000 
     38 CZ         40.9500   23.4100   20.0400 C.ar      5 PHE5        0.0000 
     39 CZ         43.3600   25.9200   18.8700 C.ar      5 PHE5        0.0000 
     40 CZ         43.6900   26.9800   19.8800 C.ar      5 PHE5        0.0000 
     41 CZ         46.9800   22.8100   25.3900 C.ar      5 PHE5        0.0000 
     42 CZ         45.0400   23.6500   25.1300 C.ar      5 PHE5        0.0000 
     43 CZ         47.3000   23.8700   26.4000 C.ar      5 PHE5        0.0000 
     44 CZ         44.0300   24.5100   26.7900 C.ar      5 PHE5        0.0000 
     45 CZ         45.3700   24.7100   26.1400 C.ar      5 PHE5        0.0000 
     46 CA         46.0900   18.7800   18.7800 C.3       6 GLY6        0.0000 
     47 CA         43.7400   19.4300   21.0800 C.3       6 GLY6        0.0000 
     48 CA         45.0800   19.6300   20.4300 C.3       6 GLY6        0.0000 
     49 CA         45.4000   20.6900   21.4500 C.3       6 GLY6        0.0000 
     50 CA         43.4700   21.5300   21.1900 C.3       6 GLY6        0.0000 
     51 CA         45.7300   21.7400   22.4600 C.3       6 GLY6        0.0000 
     52 CA         43.8000   22.5800   22.2100 C.3       6 GLY6        0.0000 
     53 CA         46.6500   21.7600   24.3700 C.3       6 GLY6        0.0000 
     54 CA         47.9900   21.9600   23.7300 C.3       6 GLY6        0.0000 
     55 CA         44.7200   22.6000   24.1200 C.3       6 GLY6        0.0000 
     56 CA         44.8700   24.8900   21.6800 C.3       6 GLY6        0.0000 
     57 CA         44.2800   25.9400   20.7800 C.3       6 GLY6        0.0000 
     58 CA         43.7100   23.4500   25.7800 C.3       6 GLY6        0.0000 
     59 CA         41.7700   24.2900   25.5200 C.3       6 GLY6        0.0000 
     60 CA         43.1100   24.4900   24.8800 C.3       6 GLY6        0.0000 
     61 CA         44.4500   24.7000   24.2300 C.3       6 GLY6        0.0000 
     62 CA         45.7900   24.9000   23.5900 C.3       6 GLY6        0.0000 
     63 CA         43.8600   25.7400   23.3300 C.3       6 GLY6        0.0000 
     64 CA         46.5400   26.1500   22.0400 C.3       6 GLY6        0.0000 
     65 CA         43.2700   26.7900   22.4400 C.3       6 GLY6        0.0000 
     66 CA         43.4400   25.5500   25.8900 C.3       6 GLY6        0.0000 
     67 CA         44.7800   25.7600   25.2500 C.3       6 GLY6        0.0000 
     68 CA         46.1200   25.9600   24.6000 C.3       6 GLY6        0.0000 
     69 DU         45.5000   19.8200   17.8800 H         7 CUB7        0.0000 
     70 DU         49.0900   20.2400   18.5000 H         7 CUB7        0.0000 
     71 DU         44.4800   20.6800   19.5400 H         7 CUB7        0.0000 
     72 DU         45.8200   20.8800   18.8900 H         7 CUB7        0.0000 
     73 DU         47.1600   21.0800   18.2500 H         7 CUB7        0.0000 
     74 DU         44.8100   21.7300   20.5500 H         7 CUB7        0.0000 
     75 DU         46.1500   21.9400   19.9000 H         7 CUB7        0.0000 
     76 DU         42.8800   22.5700   20.2900 H         7 CUB7        0.0000 
     77 DU         44.2200   22.7800   19.6500 H         7 CUB7        0.0000 
     78 DU         42.2900   23.6200   19.4000 H         7 CUB7        0.0000 
     79 DU         43.6300   23.8200   18.7500 H         7 CUB7        0.0000 
     80 DU         47.0700   21.9500   21.8200 H         7 CUB7        0.0000 
     81 DU         45.1400   22.7900   21.5600 H         7 CUB7        0.0000 
     82 DU         43.2100   23.6300   21.3100 H         7 CUB7        0.0000 
     83 DU         42.6100   24.6700   20.4100 H         7 CUB7        0.0000 
     84 DU         46.0600   22.8000   23.4700 H         7 CUB7        0.0000 
     85 DU         44.1300   23.6400   23.2200 H         7 CUB7        0.0000 
     86 DU         45.4600   23.8500   22.5700 H         7 CUB7        0.0000 
     87 DU         46.8000   24.0500   21.9300 H         7 CUB7        0.0000 
     88 DU         43.5300   24.6900   22.3200 H         7 CUB7        0.0000 
     89 DU         46.2100   25.1000   21.0300 H         7 CUB7        0.0000 
     90 DU         46.3800   23.8600   24.4900 H         7 CUB7        0.0000 
@<TRIPOS>BOND
@<TRIPOS>SUBSTRUCTURE
     1 SER1        1 GROUP   
     2 ALA2        5 GROUP   
     3 ASP3       30 GROUP   
     4 LYS4       33 GROUP   
     5 PHE5       38 GROUP   
     6 GLY6       46 GROUP   
     7 CUB7       69 GROUP   
@<TRIPOS>SET

