#    Name: 6a2o_4_UMP_CAVITY_N1_6
#    Modification time : Fri May 22 19:29:03 2020

@<TRIPOS>MOLECULE
6a2o_4_UMP_CAVITY_N1_6
   98     0     7     0     0
SMALL
NO_CHARGES


@<TRIPOS>ATOM
      1 OG         10.5400   14.7600   10.0000 O.3       1 SER1        0.0000 
      2 OG         11.4600   14.7700   11.9100 O.3       1 SER1        0.0000 
      3 OG         10.8700   15.8200   11.0100 O.3       1 SER1        0.0000 
      4 OG         13.1300   16.0300   12.2800 O.3       1 SER1        0.0000 
      5 OG         14.4700   16.2400   11.6300 O.3       1 SER1        0.0000 
      6 OG         11.2000   16.8700   12.0200 O.3       1 SER1        0.0000 
      7 OG         14.2000   18.3400   11.7500 O.3       1 SER1        0.0000 
      8 N          12.5100    9.9000    5.5500 N.am      2 ALA2        0.0000 
      9 O          15.5100   11.3600    5.2800 O.2       2 ALA2        0.0000 
     10 O          16.2600   12.6100    3.7300 O.2       2 ALA2        0.0000 
     11 O          15.8400   12.4200    6.2900 O.2       2 ALA2        0.0000 
     12 N          12.7200   15.3500    4.2400 N.am      2 ALA2        0.0000 
     13 O          12.1300   16.3900    3.3400 O.2       2 ALA2        0.0000 
     14 O          13.4700   16.6000    2.7000 O.2       2 ALA2        0.0000 
     15 O          16.1600   13.4800    7.3000 O.2       2 ALA2        0.0000 
     16 O          11.1200   17.2400    5.0000 O.2       2 ALA2        0.0000 
     17 O          12.4500   17.4500    4.3500 O.2       2 ALA2        0.0000 
     18 O          13.7900   17.6500    3.7100 O.2       2 ALA2        0.0000 
     19 O          15.7400   13.2800    9.8600 O.2       2 ALA2        0.0000 
     20 N          15.1500   14.3300    8.9600 N.am      2 ALA2        0.0000 
     21 N          16.4900   14.5300    8.3200 N.am      2 ALA2        0.0000 
     22 N          14.5600   15.3700    8.0600 N.am      2 ALA2        0.0000 
     23 N          15.9000   15.5800    7.4200 N.am      2 ALA2        0.0000 
     24 N          15.3100   16.6200    6.5200 N.am      2 ALA2        0.0000 
     25 O          14.7300   14.1400   11.5200 O.2       2 ALA2        0.0000 
     26 N          14.1400   15.1800   10.6200 N.am      2 ALA2        0.0000 
     27 N          13.5500   16.2200    9.7200 N.am      2 ALA2        0.0000 
     28 N          14.2900   17.4700    8.1800 N.am      2 ALA2        0.0000 
     29 N          15.6300   17.6800    7.5300 N.am      2 ALA2        0.0000 
     30 N          13.8700   17.2800   10.7300 N.am      2 ALA2        0.0000 
     31 N          14.6200   18.5300    9.1900 N.am      2 ALA2        0.0000 
     32 N          15.3700   19.7800    7.6500 N.am      2 ALA2        0.0000 
     33 OD1        10.2800   16.8600   10.1100 O.co2     3 ASP3        0.0000 
     34 OD1        12.5300   17.0800   11.3800 O.co2     3 ASP3        0.0000 
     35 OD1        11.9400   18.1200   10.4800 O.co2     3 ASP3        0.0000 
     36 OD1        13.2800   18.3300    9.8400 O.co2     3 ASP3        0.0000 
     37 OD1        12.6900   19.3700    8.9400 O.co2     3 ASP3        0.0000 
     38 OD1        12.8600   18.1300   12.3900 O.co2     3 ASP3        0.0000 
     39 OD1        13.6100   19.3800   10.8500 O.co2     3 ASP3        0.0000 
     40 OD1        14.9500   19.5900   10.2000 O.co2     3 ASP3        0.0000 
     41 OD1        13.0100   20.4300    9.9500 O.co2     3 ASP3        0.0000 
     42 OD1        14.3500   20.6300    9.3100 O.co2     3 ASP3        0.0000 
     43 NZ         15.9900   14.7100    3.8500 N.4       4 LYS4        0.0000 
     44 NZ         11.1300   13.7100   10.9000 N.4       4 LYS4        0.0000 
     45 CZ         13.8400   10.1000    4.9100 C.ar      5 PHE5        0.0000 
     46 CZ         16.5800   13.6700    4.7500 C.ar      5 PHE5        0.0000 
     47 CZ         15.4000   15.7600    2.9500 C.ar      5 PHE5        0.0000 
     48 CZ         17.5000   13.6800    6.6600 C.ar      5 PHE5        0.0000 
     49 CZ         16.9100   14.7200    5.7600 C.ar      5 PHE5        0.0000 
     50 CZ         15.7200   16.8100    3.9600 C.ar      5 PHE5        0.0000 
     51 CZ         15.1300   17.8600    3.0600 C.ar      5 PHE5        0.0000 
     52 CA         14.2600   10.2900    2.3500 C.3       6 GLY6        0.0000 
     53 CA         15.1800   10.3000    4.2700 C.3       6 GLY6        0.0000 
     54 CA         14.5900   11.3500    3.3700 C.3       6 GLY6        0.0000 
     55 CA         12.6600   12.1900    3.1100 C.3       6 GLY6        0.0000 
     56 CA         14.1700   11.1600    5.9200 C.3       6 GLY6        0.0000 
     57 CA         12.9900   13.2500    4.1300 C.3       6 GLY6        0.0000 
     58 CA         14.3300   13.4500    3.4800 C.3       6 GLY6        0.0000 
     59 CA         15.6600   13.6600    2.8400 C.3       6 GLY6        0.0000 
     60 CA         12.3900   14.2900    3.2300 C.3       6 GLY6        0.0000 
     61 CA         14.5000   12.2100    6.9400 C.3       6 GLY6        0.0000 
     62 CA         14.0600   15.5500    3.6000 C.3       6 GLY6        0.0000 
     63 CA         15.4200   12.2300    8.8500 C.3       6 GLY6        0.0000 
     64 CA         14.8200   13.2700    7.9500 C.3       6 GLY6        0.0000 
     65 CA         14.4000   13.0800   10.5100 C.3       6 GLY6        0.0000 
     66 CA         12.4700   13.9200   10.2500 C.3       6 GLY6        0.0000 
     67 CA         13.8100   14.1200    9.6100 C.3       6 GLY6        0.0000 
     68 CA         17.2400   15.7800    6.7700 C.3       6 GLY6        0.0000 
     69 CA         13.3700   17.4600    6.2700 C.3       6 GLY6        0.0000 
     70 CA         14.7100   17.6700    5.6200 C.3       6 GLY6        0.0000 
     71 CA         12.7800   18.5100    5.3700 C.3       6 GLY6        0.0000 
     72 CA         14.1200   18.7100    4.7200 C.3       6 GLY6        0.0000 
     73 CA         13.3900   13.9300   12.1600 C.3       6 GLY6        0.0000 
     74 CA         12.8000   14.9800   11.2700 C.3       6 GLY6        0.0000 
     75 CA         13.7000   18.5200    7.2800 C.3       6 GLY6        0.0000 
     76 CA         15.0400   18.7200    6.6300 C.3       6 GLY6        0.0000 
     77 CA         14.0300   19.5800    8.2900 C.3       6 GLY6        0.0000 
     78 DU         11.9100   10.9400    4.6600 H         7 CUB7        0.0000 
     79 DU         13.2500   11.1400    4.0100 H         7 CUB7        0.0000 
     80 DU         12.2400   12.0000    5.6700 H         7 CUB7        0.0000 
     81 DU         13.5800   12.2000    5.0200 H         7 CUB7        0.0000 
     82 DU         14.9200   12.4100    4.3800 H         7 CUB7        0.0000 
     83 DU         13.9100   13.2600    6.0400 H         7 CUB7        0.0000 
     84 DU         15.2400   13.4600    5.3900 H         7 CUB7        0.0000 
     85 DU         13.3100   14.3000    5.1400 H         7 CUB7        0.0000 
     86 DU         14.6500   14.5100    4.4900 H         7 CUB7        0.0000 
     87 DU         14.2300   14.3200    7.0500 H         7 CUB7        0.0000 
     88 DU         15.5700   14.5200    6.4100 H         7 CUB7        0.0000 
     89 DU         14.9800   15.5600    5.5100 H         7 CUB7        0.0000 
     90 DU         16.3200   15.7700    4.8600 H         7 CUB7        0.0000 
     91 DU         11.7100   16.2000    5.9000 H         7 CUB7        0.0000 
     92 DU         13.0500   16.4000    5.2500 H         7 CUB7        0.0000 
     93 DU         14.3900   16.6100    4.6100 H         7 CUB7        0.0000 
     94 DU         11.8800   14.9600    9.3500 H         7 CUB7        0.0000 
     95 DU         13.2200   15.1700    8.7100 H         7 CUB7        0.0000 
     96 DU         13.9700   16.4200    7.1600 H         7 CUB7        0.0000 
     97 DU         12.2100   16.0200   10.3700 H         7 CUB7        0.0000 
     98 DU         12.9500   17.2700    8.8200 H         7 CUB7        0.0000 
@<TRIPOS>BOND
@<TRIPOS>SUBSTRUCTURE
     1 SER1        1 GROUP   
     2 ALA2        8 GROUP   
     3 ASP3       33 GROUP   
     4 LYS4       43 GROUP   
     5 PHE5       45 GROUP   
     6 GLY6       52 GROUP   
     7 CUB7       78 GROUP   
@<TRIPOS>SET

