#    Name: 6a2o_4_UMP_CAVITY_N1_4
#    Modification time : Fri May 22 19:29:03 2020

@<TRIPOS>MOLECULE
6a2o_4_UMP_CAVITY_N1_4
   72     0     7     0     0
SMALL
NO_CHARGES


@<TRIPOS>ATOM
      1 OG         10.5400   14.7600   10.0000 O.3       1 SER1        0.0000 
      2 OG         11.4600   14.7700   11.9100 O.3       1 SER1        0.0000 
      3 OG         10.8700   15.8200   11.0100 O.3       1 SER1        0.0000 
      4 OG         13.1300   16.0300   12.2800 O.3       1 SER1        0.0000 
      5 OG         14.4700   16.2400   11.6300 O.3       1 SER1        0.0000 
      6 OG         11.2000   16.8700   12.0200 O.3       1 SER1        0.0000 
      7 OG         14.2000   18.3400   11.7500 O.3       1 SER1        0.0000 
      8 O          15.5100   11.3600    5.2800 O.2       2 ALA2        0.0000 
      9 O          16.2600   12.6100    3.7300 O.2       2 ALA2        0.0000 
     10 O          15.8400   12.4200    6.2900 O.2       2 ALA2        0.0000 
     11 O          16.1600   13.4800    7.3000 O.2       2 ALA2        0.0000 
     12 O          15.7400   13.2800    9.8600 O.2       2 ALA2        0.0000 
     13 N          15.1500   14.3300    8.9600 N.am      2 ALA2        0.0000 
     14 N          16.4900   14.5300    8.3200 N.am      2 ALA2        0.0000 
     15 N          14.5600   15.3700    8.0600 N.am      2 ALA2        0.0000 
     16 N          15.9000   15.5800    7.4200 N.am      2 ALA2        0.0000 
     17 N          15.3100   16.6200    6.5200 N.am      2 ALA2        0.0000 
     18 O          14.7300   14.1400   11.5200 O.2       2 ALA2        0.0000 
     19 N          14.1400   15.1800   10.6200 N.am      2 ALA2        0.0000 
     20 N          13.5500   16.2200    9.7200 N.am      2 ALA2        0.0000 
     21 N          14.2900   17.4700    8.1800 N.am      2 ALA2        0.0000 
     22 N          15.6300   17.6800    7.5300 N.am      2 ALA2        0.0000 
     23 N          13.8700   17.2800   10.7300 N.am      2 ALA2        0.0000 
     24 N          14.6200   18.5300    9.1900 N.am      2 ALA2        0.0000 
     25 OD1        10.2800   16.8600   10.1100 O.co2     3 ASP3        0.0000 
     26 OD1        12.5300   17.0800   11.3800 O.co2     3 ASP3        0.0000 
     27 OD1        11.9400   18.1200   10.4800 O.co2     3 ASP3        0.0000 
     28 OD1        13.2800   18.3300    9.8400 O.co2     3 ASP3        0.0000 
     29 OD1        12.6900   19.3700    8.9400 O.co2     3 ASP3        0.0000 
     30 OD1        12.8600   18.1300   12.3900 O.co2     3 ASP3        0.0000 
     31 OD1        13.6100   19.3800   10.8500 O.co2     3 ASP3        0.0000 
     32 OD1        14.9500   19.5900   10.2000 O.co2     3 ASP3        0.0000 
     33 OD1        13.0100   20.4300    9.9500 O.co2     3 ASP3        0.0000 
     34 OD1        14.3500   20.6300    9.3100 O.co2     3 ASP3        0.0000 
     35 NZ         15.9900   14.7100    3.8500 N.4       4 LYS4        0.0000 
     36 NZ         11.1300   13.7100   10.9000 N.4       4 LYS4        0.0000 
     37 CZ         16.5800   13.6700    4.7500 C.ar      5 PHE5        0.0000 
     38 CZ         17.5000   13.6800    6.6600 C.ar      5 PHE5        0.0000 
     39 CZ         16.9100   14.7200    5.7600 C.ar      5 PHE5        0.0000 
     40 CZ         15.7200   16.8100    3.9600 C.ar      5 PHE5        0.0000 
     41 CA         14.1700   11.1600    5.9200 C.3       6 GLY6        0.0000 
     42 CA         15.6600   13.6600    2.8400 C.3       6 GLY6        0.0000 
     43 CA         14.5000   12.2100    6.9400 C.3       6 GLY6        0.0000 
     44 CA         15.4200   12.2300    8.8500 C.3       6 GLY6        0.0000 
     45 CA         14.8200   13.2700    7.9500 C.3       6 GLY6        0.0000 
     46 CA         14.4000   13.0800   10.5100 C.3       6 GLY6        0.0000 
     47 CA         12.4700   13.9200   10.2500 C.3       6 GLY6        0.0000 
     48 CA         13.8100   14.1200    9.6100 C.3       6 GLY6        0.0000 
     49 CA         17.2400   15.7800    6.7700 C.3       6 GLY6        0.0000 
     50 CA         13.3700   17.4600    6.2700 C.3       6 GLY6        0.0000 
     51 CA         14.7100   17.6700    5.6200 C.3       6 GLY6        0.0000 
     52 CA         13.3900   13.9300   12.1600 C.3       6 GLY6        0.0000 
     53 CA         12.8000   14.9800   11.2700 C.3       6 GLY6        0.0000 
     54 CA         13.7000   18.5200    7.2800 C.3       6 GLY6        0.0000 
     55 CA         15.0400   18.7200    6.6300 C.3       6 GLY6        0.0000 
     56 CA         14.0300   19.5800    8.2900 C.3       6 GLY6        0.0000 
     57 DU         14.9200   12.4100    4.3800 H         7 CUB7        0.0000 
     58 DU         13.9100   13.2600    6.0400 H         7 CUB7        0.0000 
     59 DU         15.2400   13.4600    5.3900 H         7 CUB7        0.0000 
     60 DU         13.3100   14.3000    5.1400 H         7 CUB7        0.0000 
     61 DU         14.6500   14.5100    4.4900 H         7 CUB7        0.0000 
     62 DU         14.2300   14.3200    7.0500 H         7 CUB7        0.0000 
     63 DU         15.5700   14.5200    6.4100 H         7 CUB7        0.0000 
     64 DU         14.9800   15.5600    5.5100 H         7 CUB7        0.0000 
     65 DU         16.3200   15.7700    4.8600 H         7 CUB7        0.0000 
     66 DU         13.0500   16.4000    5.2500 H         7 CUB7        0.0000 
     67 DU         14.3900   16.6100    4.6100 H         7 CUB7        0.0000 
     68 DU         11.8800   14.9600    9.3500 H         7 CUB7        0.0000 
     69 DU         13.2200   15.1700    8.7100 H         7 CUB7        0.0000 
     70 DU         13.9700   16.4200    7.1600 H         7 CUB7        0.0000 
     71 DU         12.2100   16.0200   10.3700 H         7 CUB7        0.0000 
     72 DU         12.9500   17.2700    8.8200 H         7 CUB7        0.0000 
@<TRIPOS>BOND
@<TRIPOS>SUBSTRUCTURE
     1 SER1        1 GROUP   
     2 ALA2        8 GROUP   
     3 ASP3       25 GROUP   
     4 LYS4       35 GROUP   
     5 PHE5       37 GROUP   
     6 GLY6       41 GROUP   
     7 CUB7       57 GROUP   
@<TRIPOS>SET

