#    Name: 6a2o_2_UMP
#    Modification time : Fri May 22 19:28:47 2020

@<TRIPOS>MOLECULE
6a2o_2_UMP
   20    21     1     0     1
SMALL
NO_CHARGES


@<TRIPOS>ATOM
      1 N1         43.8330   20.5090   19.1370 N.am      1 UMP703      0.0000 
      2 C2         42.9580   20.0570   20.1530 C.2       1 UMP703      0.0000 
      3 N3         42.1710   20.9030   20.7370 N.am      1 UMP703      0.0000 
      4 C4         42.1580   22.1990   20.4410 C.2       1 UMP703      0.0000 
      5 C5         43.0060   22.7190   19.4870 C.2       1 UMP703      0.0000 
      6 C6         43.8400   21.8300   18.8290 C.2       1 UMP703      0.0000 
      7 O2         42.9280   18.8640   20.4730 O.2       1 UMP703      0.0000 
      8 O4         41.3630   22.9940   21.0220 O.2       1 UMP703      0.0000 
      9 C1'        44.7550   19.5930   18.4720 C.3       1 UMP703      0.0000 
     10 C2'        44.1120   18.5940   17.5290 C.3       1 UMP703      0.0000 
     11 C3'        45.3230   18.3210   16.5890 C.3       1 UMP703      0.0000 
     12 C4'        45.9020   19.7310   16.3990 C.3       1 UMP703      0.0000 
     13 O3'        46.3840   17.5760   17.1940 O.3       1 UMP703      0.0000 
     14 O4'        45.6770   20.3410   17.6860 O.3       1 UMP703      0.0000 
     15 C5'        45.2840   20.4910   15.2090 C.3       1 UMP703      0.0000 
     16 O5'        45.7850   19.9740   13.9720 O.3       1 UMP703      0.0000 
     17 P          44.8950   19.8010   12.6790 P.3       1 UMP703      0.0000 
     18 OP1        45.8640   19.2360   11.6620 O.co2     1 UMP703      0.0000 
     19 OP2        43.9270   18.7720   13.0750 O.co2     1 UMP703      0.0000 
     20 OP3        44.4150   21.2270   12.4670 O.co2     1 UMP703      0.0000 
@<TRIPOS>BOND
     1    1    2 1    
     2    1    6 1    
     3    1    9 1    
     4    2    3 1    
     5    2    7 2    
     6    3    4 1    
     7    4    5 1    
     8    4    8 2    
     9    5    6 2    
    10    9   10 1    
    11    9   14 1    
    12   10   11 1    
    13   11   12 1    
    14   11   13 1    
    15   12   14 1    
    16   12   15 1    
    17   15   16 1    
    18   16   17 1    
    19   17   18 ar   
    20   17   19 ar   
    21   17   20 ar   
@<TRIPOS>SUBSTRUCTURE
     1 UMP703      1 GROUP   
@<TRIPOS>SET
ATOM$ORANGE STATIC     ATOMS   COLORGROUP SYSTEM 
18 2 2 4 4 5 5 6 6 9 9 10 10 11 11 12 12 15 \
15 

