#    Name: 6mw7_2_ATP
#    Modification time : Fri May 22 19:28:51 2020

@<TRIPOS>MOLECULE
6mw7_2_ATP
   31    33     1     0     1
SMALL
NO_CHARGES


@<TRIPOS>ATOM
      1 PG         17.7770   61.9680   80.5950 P.3       1 ATP601      0.0000 
      2 O1G        18.9120   62.9360   80.3770 O.co2     1 ATP601      0.0000 
      3 O2G        16.6990   62.4860   81.5120 O.co2     1 ATP601      0.0000 
      4 O3G        18.2190   60.5640   80.9200 O.co2     1 ATP601      0.0000 
      5 PB         17.1850   60.6070   78.1580 P.3       1 ATP601      0.0000 
      6 O1B        16.2660   60.8530   76.9900 O.co2     1 ATP601      0.0000 
      7 O2B        17.0460   59.3260   78.9420 O.co2     1 ATP601      0.0000 
      8 O3B        17.0840   61.8870   79.1370 O.3       1 ATP601      0.0000 
      9 PA         19.6720   59.4700   77.5800 P.3       1 ATP601      0.0000 
     10 O1A        20.9990   59.9600   77.0550 O.co2     1 ATP601      0.0000 
     11 O2A        19.5680   58.7750   78.9130 O.co2     1 ATP601      0.0000 
     12 O3A        18.6830   60.7330   77.5930 O.3       1 ATP601      0.0000 
     13 O5'        18.9740   58.5480   76.4710 O.3       1 ATP601      0.0000 
     14 C5'        18.8190   59.0870   75.1710 C.3       1 ATP601      0.0000 
     15 C4'        17.7050   58.3450   74.4520 C.3       1 ATP601      0.0000 
     16 O4'        18.1750   57.0900   73.9530 O.3       1 ATP601      0.0000 
     17 C3'        16.4960   58.0180   75.3220 C.3       1 ATP601      0.0000 
     18 O3'        15.5320   59.0700   75.3530 O.3       1 ATP601      0.0000 
     19 C2'        15.9290   56.7820   74.6630 C.3       1 ATP601      0.0000 
     20 O2'        14.9910   57.1400   73.6440 O.3       1 ATP601      0.0000 
     21 C1'        17.1340   56.1170   74.0350 C.3       1 ATP601      0.0000 
     22 N9         17.5660   55.0170   74.9190 N.pl3     1 ATP601      0.0000 
     23 C8         18.5270   55.1030   75.8560 C.2       1 ATP601      0.0000 
     24 N7         18.6800   53.9190   76.4950 N.2       1 ATP601      0.0000 
     25 C5         17.7990   53.0610   75.9570 C.ar      1 ATP601      0.0000 
     26 C6         17.4330   51.6490   76.1630 C.ar      1 ATP601      0.0000 
     27 N6         18.0630   50.9160   77.0990 N.pl3     1 ATP601      0.0000 
     28 N1         16.4570   51.1220   75.3960 N.ar      1 ATP601      0.0000 
     29 C2         15.8210   51.8460   74.4560 C.ar      1 ATP601      0.0000 
     30 N3         16.1030   53.1400   74.2140 N.ar      1 ATP601      0.0000 
     31 C4         17.0640   53.7850   74.9190 C.ar      1 ATP601      0.0000 
@<TRIPOS>BOND
     1    1    2 ar   
     2    1    3 ar   
     3    1    4 ar   
     4    1    8 1    
     5    5    6 ar   
     6    5    7 ar   
     7    5    8 1    
     8    5   12 1    
     9    9   10 ar   
    10    9   11 ar   
    11    9   12 1    
    12    9   13 1    
    13   13   14 1    
    14   14   15 1    
    15   15   16 1    
    16   15   17 1    
    17   16   21 1    
    18   17   18 1    
    19   17   19 1    
    20   19   20 1    
    21   19   21 1    
    22   21   22 1    
    23   22   23 1    
    24   22   31 1    
    25   23   24 2    
    26   24   25 1    
    27   25   26 ar   
    28   25   31 ar   
    29   26   27 1    
    30   26   28 ar   
    31   28   29 ar   
    32   29   30 ar   
    33   30   31 ar   
@<TRIPOS>SUBSTRUCTURE
     1 ATP601      1 GROUP   
@<TRIPOS>SET
ATOM$ORANGE STATIC     ATOMS   COLORGROUP SYSTEM 
20 14 14 15 15 17 17 19 19 21 21 23 23 25 25 26 26 29 \
29 31 31 

