#    Name: 6mw7_4_ATP
#    Modification time : Fri May 22 19:29:01 2020

@<TRIPOS>MOLECULE
6mw7_4_ATP
   31    33     1     0     1
SMALL
NO_CHARGES


@<TRIPOS>ATOM
      1 PG        -19.4740   86.0100  113.2480 P.3       1 ATP601      0.0000 
      2 O1G       -20.6200   85.0470  113.0770 O.co2     1 ATP601      0.0000 
      3 O2G       -18.3820   85.5020  114.1540 O.co2     1 ATP601      0.0000 
      4 O3G       -19.9150   87.4200  113.5450 O.co2     1 ATP601      0.0000 
      5 PB        -18.8420   87.3550  110.8060 P.3       1 ATP601      0.0000 
      6 O1B       -17.9270   87.0770  109.6430 O.co2     1 ATP601      0.0000 
      7 O2B       -18.6810   88.6450  111.5760 O.co2     1 ATP601      0.0000 
      8 O3B       -18.7910   86.0690  111.7860 O.3       1 ATP601      0.0000 
      9 PA        -21.3130   88.5060  110.2190 P.3       1 ATP601      0.0000 
     10 O1A       -22.6550   87.9960  109.7620 O.co2     1 ATP601      0.0000 
     11 O2A       -21.1620   89.2240  111.5370 O.co2     1 ATP601      0.0000 
     12 O3A       -20.3270   87.2470  110.2150 O.3       1 ATP601      0.0000 
     13 O5'       -20.6600   89.4130  109.0690 O.3       1 ATP601      0.0000 
     14 C5'       -20.5210   88.8620  107.7710 C.3       1 ATP601      0.0000 
     15 C4'       -19.4020   89.5910  107.0410 C.3       1 ATP601      0.0000 
     16 O4'       -19.8450   90.8700  106.5790 O.3       1 ATP601      0.0000 
     17 C3'       -18.1730   89.8590  107.9000 C.3       1 ATP601      0.0000 
     18 O3'       -17.2400   88.7800  107.8630 O.3       1 ATP601      0.0000 
     19 C2'       -17.5920   91.1120  107.2900 C.3       1 ATP601      0.0000 
     20 O2'       -16.6630   90.7690  106.2590 O.3       1 ATP601      0.0000 
     21 C1'       -18.7850   91.8230  106.6840 C.3       1 ATP601      0.0000 
     22 N9        -19.2110   92.9280  107.5720 N.pl3     1 ATP601      0.0000 
     23 C8        -20.2010   92.8520  108.4800 C.2       1 ATP601      0.0000 
     24 N7        -20.3480   94.0330  109.1300 N.2       1 ATP601      0.0000 
     25 C5        -19.4360   94.8830  108.6300 C.ar      1 ATP601      0.0000 
     26 C6        -19.0480   96.2870  108.8690 C.ar      1 ATP601      0.0000 
     27 N6        -19.6910   97.0210  109.7990 N.pl3     1 ATP601      0.0000 
     28 N1        -18.0420   96.8080  108.1370 N.ar      1 ATP601      0.0000 
     29 C2        -17.3940   96.0820  107.2050 C.ar      1 ATP601      0.0000 
     30 N3        -17.6960   94.7970  106.9370 N.ar      1 ATP601      0.0000 
     31 C4        -18.6880   94.1560  107.6020 C.ar      1 ATP601      0.0000 
@<TRIPOS>BOND
     1    1    2 ar   
     2    1    3 ar   
     3    1    4 ar   
     4    1    8 1    
     5    5    6 ar   
     6    5    7 ar   
     7    5    8 1    
     8    5   12 1    
     9    9   10 ar   
    10    9   11 ar   
    11    9   12 1    
    12    9   13 1    
    13   13   14 1    
    14   14   15 1    
    15   15   16 1    
    16   15   17 1    
    17   16   21 1    
    18   17   18 1    
    19   17   19 1    
    20   19   20 1    
    21   19   21 1    
    22   21   22 1    
    23   22   23 1    
    24   22   31 1    
    25   23   24 2    
    26   24   25 1    
    27   25   26 ar   
    28   25   31 ar   
    29   26   27 1    
    30   26   28 ar   
    31   28   29 ar   
    32   29   30 ar   
    33   30   31 ar   
@<TRIPOS>SUBSTRUCTURE
     1 ATP601      1 GROUP   
@<TRIPOS>SET
ATOM$ORANGE STATIC     ATOMS   COLORGROUP SYSTEM 
20 14 14 15 15 17 17 19 19 21 21 23 23 25 25 26 26 29 \
29 31 31 

