#    Name: 6mw7_2_ATP_CAVITY_N1_6
#    Modification time : Fri May 22 19:28:53 2020

@<TRIPOS>MOLECULE
6mw7_2_ATP_CAVITY_N1_6
   75     0     6     0     0
SMALL
NO_CHARGES


@<TRIPOS>ATOM
      1 OG         11.4700   57.6900   76.5800 O.3       1 SER1        0.0000 
      2 OG         17.0800   50.9200   75.3500 O.3       1 SER1        0.0000 
      3 O          11.6500   53.5500   70.8900 O.2       2 ALA2        0.0000 
      4 N          13.7200   53.9800   70.6500 N.am      2 ALA2        0.0000 
      5 N          13.0900   52.5400   72.0700 N.am      2 ALA2        0.0000 
      6 O          12.7600   53.9700   71.8100 O.2       2 ALA2        0.0000 
      7 O          12.4400   55.4100   71.5400 O.2       2 ALA2        0.0000 
      8 N          14.2000   52.9600   72.9900 N.am      2 ALA2        0.0000 
      9 N          16.9100   52.7800   77.1600 N.am      2 ALA2        0.0000 
     10 O          18.3200   56.0900   76.3800 O.2       2 ALA2        0.0000 
     11 N          17.0400   57.5200   77.2700 N.am      2 ALA2        0.0000 
     12 O          19.1100   57.9500   77.0300 O.2       2 ALA2        0.0000 
     13 O          19.8900   59.8100   77.6800 O.2       2 ALA2        0.0000 
     14 OD1        10.7000   53.5500   72.0500 O.co2     3 ASP3        0.0000 
     15 OD1        12.1100   56.8500   71.2800 O.co2     3 ASP3        0.0000 
     16 OD1        12.1400   52.5300   73.2300 O.co2     3 ASP3        0.0000 
     17 OD1        11.8100   53.9700   72.9700 O.co2     3 ASP3        0.0000 
     18 OD1        11.1600   56.8500   72.4300 O.co2     3 ASP3        0.0000 
     19 OD1        10.8300   58.2900   72.1700 O.co2     3 ASP3        0.0000 
     20 OD1        10.5300   55.4100   73.8600 O.co2     3 ASP3        0.0000 
     21 OD1        13.5500   55.8400   72.4600 O.co2     3 ASP3        0.0000 
     22 OD1        13.2200   57.2800   72.1900 O.co2     3 ASP3        0.0000 
     23 OD1        12.6000   55.8300   73.6100 O.co2     3 ASP3        0.0000 
     24 OD1        12.2700   57.2700   73.3500 O.co2     3 ASP3        0.0000 
     25 OD1        11.3200   57.2700   74.5100 O.co2     3 ASP3        0.0000 
     26 OD1        14.6600   56.2600   73.3700 O.co2     3 ASP3        0.0000 
     27 OD1        13.7100   56.2600   74.5300 O.co2     3 ASP3        0.0000 
     28 OD1        15.4400   58.1200   74.0200 O.co2     3 ASP3        0.0000 
     29 OD1        14.4900   58.1200   75.1800 O.co2     3 ASP3        0.0000 
     30 OD1        13.5400   58.1100   76.3400 O.co2     3 ASP3        0.0000 
     31 OD1        13.2100   59.5500   76.0700 O.co2     3 ASP3        0.0000 
     32 OD1        16.5500   58.5400   74.9300 O.co2     3 ASP3        0.0000 
     33 OD1        15.6000   58.5400   76.0900 O.co2     3 ASP3        0.0000 
     34 OD1        17.3400   60.4000   75.5800 O.co2     3 ASP3        0.0000 
     35 OD1        16.7100   58.9600   77.0100 O.co2     3 ASP3        0.0000 
     36 OD1        16.3900   60.4000   76.7400 O.co2     3 ASP3        0.0000 
     37 OD1        19.7300   59.3900   75.6000 O.co2     3 ASP3        0.0000 
     38 OD1        18.7800   59.3900   76.7600 O.co2     3 ASP3        0.0000 
     39 OD1        17.8300   59.3800   77.9200 O.co2     3 ASP3        0.0000 
     40 CZ         18.1600   55.6700   74.3100 C.ar      4 PHE5        0.0000 
     41 CZ         17.8400   57.1100   74.0400 C.ar      4 PHE5        0.0000 
     42 CZ         18.9500   57.5300   74.9500 C.ar      4 PHE5        0.0000 
     43 CZ         18.6200   58.9700   74.6900 C.ar      4 PHE5        0.0000 
     44 CA         13.3900   55.4200   70.3800 C.3       5 GLY6        0.0000 
     45 CA         13.0600   56.8600   70.1200 C.3       5 GLY6        0.0000 
     46 CA         14.8300   54.4000   71.5600 C.3       5 GLY6        0.0000 
     47 CA         14.5000   55.8400   71.3000 C.3       5 GLY6        0.0000 
     48 CA         13.8800   54.4000   72.7200 C.3       5 GLY6        0.0000 
     49 CA         15.9400   54.8200   72.4800 C.3       5 GLY6        0.0000 
     50 CA         15.6400   51.9400   74.1700 C.3       5 GLY6        0.0000 
     51 CA         15.3200   53.3800   73.9000 C.3       5 GLY6        0.0000 
     52 CA         14.9900   54.8200   73.6400 C.3       5 GLY6        0.0000 
     53 CA         17.7100   52.3700   73.9200 C.3       5 GLY6        0.0000 
     54 CA         17.0500   55.2400   73.3900 C.3       5 GLY6        0.0000 
     55 CA         16.4300   53.8000   74.8200 C.3       5 GLY6        0.0000 
     56 CA         16.1300   50.9200   76.5100 C.3       5 GLY6        0.0000 
     57 CA         15.8000   52.3600   76.2400 C.3       5 GLY6        0.0000 
     58 CA         18.8200   52.7900   74.8400 C.3       5 GLY6        0.0000 
     59 CA         18.4900   54.2300   74.5700 C.3       5 GLY6        0.0000 
     60 CA         18.1900   51.3400   76.2600 C.3       5 GLY6        0.0000 
     61 CA         18.4500   60.8300   76.5000 C.3       5 GLY6        0.0000 
     62 CA         17.5000   60.8200   77.6500 C.3       5 GLY6        0.0000 
     63 DU         11.4800   55.4100   72.7000 H         6 CUB7        0.0000 
     64 DU         10.2000   56.8500   73.5900 H         6 CUB7        0.0000 
     65 DU         16.7600   52.3600   75.0800 H         6 CUB7        0.0000 
     66 DU         16.1000   55.2400   74.5500 H         6 CUB7        0.0000 
     67 DU         15.7700   56.6800   74.2800 H         6 CUB7        0.0000 
     68 DU         14.8200   56.6800   75.4400 H         6 CUB7        0.0000 
     69 DU         17.8700   52.7800   76.0000 H         6 CUB7        0.0000 
     70 DU         17.5400   54.2200   75.7300 H         6 CUB7        0.0000 
     71 DU         17.2100   55.6600   75.4600 H         6 CUB7        0.0000 
     72 DU         16.8800   57.1000   75.2000 H         6 CUB7        0.0000 
     73 DU         15.9300   57.1000   76.3600 H         6 CUB7        0.0000 
     74 DU         17.9900   57.5200   76.1100 H         6 CUB7        0.0000 
     75 DU         17.6700   58.9600   75.8500 H         6 CUB7        0.0000 
@<TRIPOS>BOND
@<TRIPOS>SUBSTRUCTURE
     1 SER1        1 GROUP   
     2 ALA2        3 GROUP   
     3 ASP3       14 GROUP   
     4 PHE5       40 GROUP   
     5 GLY6       44 GROUP   
     6 CUB7       63 GROUP   
@<TRIPOS>SET

