#    Name: 6mw7_4_ATP_CAVITY_N1_ALL
#    Modification time : Fri May 22 19:29:02 2020

@<TRIPOS>MOLECULE
6mw7_4_ATP_CAVITY_N1_ALL
   77     0     6     0     0
SMALL
NO_CHARGES


@<TRIPOS>ATOM
      1 OG        -19.1100   97.1400  107.8500 O.3       1 SER1        0.0000 
      2 OG        -13.6700   92.2300  108.4200 O.3       1 SER1        0.0000 
      3 N         -19.3700   87.6600  107.6200 N.am      2 ALA2        0.0000 
      4 O         -19.8600   90.9600  109.1600 O.2       2 ALA2        0.0000 
      5 O         -20.1900   92.4000  108.8900 O.2       2 ALA2        0.0000 
      6 O         -20.5200   93.8300  108.6300 O.2       2 ALA2        0.0000 
      7 O         -19.8300   86.6300  111.1100 O.2       2 ALA2        0.0000 
      8 O         -13.0400   91.4000  103.1200 O.2       2 ALA2        0.0000 
      9 O         -14.3200   92.8300  104.0100 O.2       2 ALA2        0.0000 
     10 N         -14.6500   94.2700  103.7500 N.am      2 ALA2        0.0000 
     11 N         -15.6000   94.2700  104.9100 N.am      2 ALA2        0.0000 
     12 N         -18.7500   91.3800  110.0700 N.am      2 ALA2        0.0000 
     13 O         -12.5800   94.7000  103.5000 O.2       2 ALA2        0.0000 
     14 O         -13.2100   93.2500  104.9300 O.2       2 ALA2        0.0000 
     15 N         -13.5300   94.6900  104.6600 N.am      2 ALA2        0.0000 
     16 N         -14.4900   94.6900  105.8200 N.am      2 ALA2        0.0000 
     17 OD1       -21.7600   88.6700  107.6000 O.co2     3 ASP3        0.0000 
     18 OD1       -17.6300   89.5200  107.1100 O.co2     3 ASP3        0.0000 
     19 OD1       -18.2500   88.0800  108.5300 O.co2     3 ASP3        0.0000 
     20 OD1       -19.2100   88.0800  109.6900 O.co2     3 ASP3        0.0000 
     21 OD1       -19.5300   89.5200  109.4200 O.co2     3 ASP3        0.0000 
     22 OD1       -13.9900   91.3900  104.2800 O.co2     3 ASP3        0.0000 
     23 OD1       -14.9400   91.3900  105.4400 O.co2     3 ASP3        0.0000 
     24 OD1       -15.8900   91.3900  106.6000 O.co2     3 ASP3        0.0000 
     25 OD1       -16.5200   89.9400  108.0200 O.co2     3 ASP3        0.0000 
     26 OD1       -18.0900   88.5000  110.6000 O.co2     3 ASP3        0.0000 
     27 OD1       -12.8800   91.8100  105.1900 O.co2     3 ASP3        0.0000 
     28 OD1       -13.8300   91.8100  106.3500 O.co2     3 ASP3        0.0000 
     29 OD1       -14.7800   91.8100  107.5100 O.co2     3 ASP3        0.0000 
     30 OD1       -11.4700   95.1200  104.4200 O.co2     3 ASP3        0.0000 
     31 OD1       -12.4200   95.1200  105.5800 O.co2     3 ASP3        0.0000 
     32 OD1       -13.0500   93.6700  107.0000 O.co2     3 ASP3        0.0000 
     33 OD1       -13.3700   95.1100  106.7300 O.co2     3 ASP3        0.0000 
     34 OD1       -14.0000   93.6700  108.1600 O.co2     3 ASP3        0.0000 
     35 CZ        -20.0200   90.5400  107.0800 C.ar      4 PHE5        0.0000 
     36 CZ        -20.3500   91.9800  106.8200 C.ar      4 PHE5        0.0000 
     37 CZ        -20.6500   89.0900  108.5100 C.ar      4 PHE5        0.0000 
     38 CZ        -20.9700   90.5300  108.2400 C.ar      4 PHE5        0.0000 
     39 CZ        -21.6300   93.4100  107.7100 C.ar      4 PHE5        0.0000 
     40 CA        -19.4000   91.9800  105.6600 C.3       5 GLY6        0.0000 
     41 CA        -20.6800   93.4200  106.5500 C.3       5 GLY6        0.0000 
     42 CA        -20.3200   87.6500  108.7800 C.3       5 GLY6        0.0000 
     43 CA        -16.3800   92.4100  104.2600 C.3       5 GLY6        0.0000 
     44 CA        -17.3300   92.4000  105.4200 C.3       5 GLY6        0.0000 
     45 CA        -18.2900   92.4000  106.5700 C.3       5 GLY6        0.0000 
     46 CA        -18.6100   93.8400  106.3100 C.3       5 GLY6        0.0000 
     47 CA        -19.5700   93.8400  107.4700 C.3       5 GLY6        0.0000 
     48 CA        -19.8900   95.2800  107.2000 C.3       5 GLY6        0.0000 
     49 CA        -18.8800   86.6400  109.9600 C.3       5 GLY6        0.0000 
     50 CA        -20.8500   95.2700  108.3600 C.3       5 GLY6        0.0000 
     51 CA        -16.5500   94.2700  106.0600 C.3       5 GLY6        0.0000 
     52 CA        -16.8800   95.7000  105.8000 C.3       5 GLY6        0.0000 
     53 CA        -17.5000   94.2600  107.2200 C.3       5 GLY6        0.0000 
     54 CA        -17.8300   95.7000  106.9600 C.3       5 GLY6        0.0000 
     55 CA        -17.1400   88.5000  109.4500 C.3       5 GLY6        0.0000 
     56 CA        -19.0800   92.8200  109.8100 C.3       5 GLY6        0.0000 
     57 CA        -19.4100   94.2600  109.5400 C.3       5 GLY6        0.0000 
     58 CA        -19.7300   95.7000  109.2800 C.3       5 GLY6        0.0000 
     59 CA        -15.4400   94.6900  106.9800 C.3       5 GLY6        0.0000 
     60 CA        -15.7700   96.1300  106.7100 C.3       5 GLY6        0.0000 
     61 CA        -16.7200   96.1200  107.8700 C.3       5 GLY6        0.0000 
     62 CA        -17.6700   96.1200  109.0300 C.3       5 GLY6        0.0000 
     63 CA        -14.3300   95.1100  107.8900 C.3       5 GLY6        0.0000 
     64 DU        -19.6900   89.1000  107.3500 H         6 CUB7        0.0000 
     65 DU        -17.9600   90.9600  106.8400 H         6 CUB7        0.0000 
     66 DU        -18.5800   89.5200  108.2700 H         6 CUB7        0.0000 
     67 DU        -18.9100   90.9600  108.0000 H         6 CUB7        0.0000 
     68 DU        -19.2400   92.4000  107.7300 H         6 CUB7        0.0000 
     69 DU        -15.2700   92.8300  105.1700 H         6 CUB7        0.0000 
     70 DU        -16.2200   92.8300  106.3300 H         6 CUB7        0.0000 
     71 DU        -16.8500   91.3800  107.7500 H         6 CUB7        0.0000 
     72 DU        -17.1700   92.8200  107.4900 H         6 CUB7        0.0000 
     73 DU        -17.8000   91.3800  108.9100 H         6 CUB7        0.0000 
     74 DU        -18.4500   94.2600  108.3800 H         6 CUB7        0.0000 
     75 DU        -18.7800   95.7000  108.1200 H         6 CUB7        0.0000 
     76 DU        -14.1600   93.2500  106.0900 H         6 CUB7        0.0000 
     77 DU        -15.1100   93.2500  107.2400 H         6 CUB7        0.0000 
@<TRIPOS>BOND
@<TRIPOS>SUBSTRUCTURE
     1 SER1        1 GROUP   
     2 ALA2        3 GROUP   
     3 ASP3       17 GROUP   
     4 PHE5       35 GROUP   
     5 GLY6       40 GROUP   
     6 CUB7       64 GROUP   
@<TRIPOS>SET

