#    Name: 6cta_1_ATP_CAVITY_N1_4
#    Modification time : Fri May 22 19:28:36 2020

@<TRIPOS>MOLECULE
6cta_1_ATP_CAVITY_N1_4
  147     0     7     0     0
SMALL
NO_CHARGES


@<TRIPOS>ATOM
      1 OG         28.3700  -48.0800   -9.7900 O.3       1 SER1        0.0000 
      2 OG         21.0700  -44.1300   -5.1900 O.3       1 SER1        0.0000 
      3 OG         19.9200  -43.2300   -4.8600 O.3       1 SER1        0.0000 
      4 OG         20.8700  -42.2900   -4.1600 O.3       1 SER1        0.0000 
      5 OG         19.7200  -41.3900   -3.8200 O.3       1 SER1        0.0000 
      6 OG         21.8000  -43.9400   -3.2100 O.3       1 SER1        0.0000 
      7 OG         21.5900  -44.6900   -1.9300 O.3       1 SER1        0.0000 
      8 OG         29.5300  -43.8200  -10.6300 O.3       1 SER1        0.0000 
      9 OG         28.3900  -42.9100  -10.2900 O.3       1 SER1        0.0000 
     10 OG         27.2400  -42.0100   -9.9500 O.3       1 SER1        0.0000 
     11 OG         30.4700  -45.4700   -9.6800 O.3       1 SER1        0.0000 
     12 OG         29.3200  -44.5600   -9.3400 O.3       1 SER1        0.0000 
     13 OG         28.1800  -43.6600   -9.0100 O.3       1 SER1        0.0000 
     14 OG         27.0300  -42.7500   -8.6700 O.3       1 SER1        0.0000 
     15 OG         20.6700  -40.4500   -3.1300 O.3       1 SER1        0.0000 
     16 OG         27.3400  -46.6300   -3.8600 O.3       1 SER1        0.0000 
     17 OG         23.9000  -43.9100   -2.8500 O.3       1 SER1        0.0000 
     18 OG         22.7500  -43.0100   -2.5200 O.3       1 SER1        0.0000 
     19 OG         21.6000  -42.1000   -2.1800 O.3       1 SER1        0.0000 
     20 OG         27.1300  -47.3800   -2.5800 O.3       1 SER1        0.0000 
     21 OG         25.9800  -46.4700   -2.2400 O.3       1 SER1        0.0000 
     22 OG         24.8300  -45.5600   -1.9000 O.3       1 SER1        0.0000 
     23 OG         30.2700  -43.6300   -8.6500 O.3       1 SER1        0.0000 
     24 OG         29.1200  -42.7200   -8.3100 O.3       1 SER1        0.0000 
     25 OG         23.9000  -41.3300   -3.1000 O.3       1 SER1        0.0000 
     26 OG         22.7600  -40.4200   -2.7700 O.3       1 SER1        0.0000 
     27 OG         21.6100  -39.5200   -2.4300 O.3       1 SER1        0.0000 
     28 OG         24.8400  -42.9800   -2.1600 O.3       1 SER1        0.0000 
     29 OG         22.5500  -41.1700   -1.4800 O.3       1 SER1        0.0000 
     30 OG         24.5400  -36.5100   -7.2100 O.3       1 SER1        0.0000 
     31 OG         25.4800  -38.1600   -6.2600 O.3       1 SER1        0.0000 
     32 OG         24.3300  -37.2500   -5.9300 O.3       1 SER1        0.0000 
     33 OG         25.2700  -36.3200   -5.2300 O.3       1 SER1        0.0000 
     34 OG         26.2100  -37.9700   -4.2800 O.3       1 SER1        0.0000 
     35 OG         27.1500  -37.0300   -3.5900 O.3       1 SER1        0.0000 
     36 N          22.6400  -43.5500   -8.1000 N.am      2 ALA2        0.0000 
     37 N          25.0300  -47.4100   -2.9400 N.am      2 ALA2        0.0000 
     38 O          28.4800  -47.5400   -4.2000 O.2       2 ALA2        0.0000 
     39 N          26.9200  -48.1200   -1.2900 N.am      2 ALA2        0.0000 
     40 O          26.6200  -39.0700   -6.6000 O.2       2 ALA2        0.0000 
     41 O          23.4900  -40.2300   -0.7900 O.2       2 ALA2        0.0000 
     42 OD1        26.2900  -45.5300  -10.4000 O.co2     3 ASP3        0.0000 
     43 OD1        27.2300  -47.1800   -9.4500 O.co2     3 ASP3        0.0000 
     44 OD1        23.7900  -44.4600   -8.4400 O.co2     3 ASP3        0.0000 
     45 OD1        27.0100  -47.9200   -8.1600 O.co2     3 ASP3        0.0000 
     46 OD1        22.4300  -44.3000   -6.8100 O.co2     3 ASP3        0.0000 
     47 OD1        22.2200  -45.0400   -5.5300 O.co2     3 ASP3        0.0000 
     48 OD1        22.0100  -45.7800   -4.2400 O.co2     3 ASP3        0.0000 
     49 OD1        22.6500  -40.9700   -8.3500 O.co2     3 ASP3        0.0000 
     50 OD1        27.0200  -45.3400   -8.4200 O.co2     3 ASP3        0.0000 
     51 OD1        25.8800  -44.4300   -8.0800 O.co2     3 ASP3        0.0000 
     52 OD1        24.7300  -43.5200   -7.7400 O.co2     3 ASP3        0.0000 
     53 OD1        22.4400  -41.7100   -7.0700 O.co2     3 ASP3        0.0000 
     54 OD1        27.9600  -46.9900   -7.4700 O.co2     3 ASP3        0.0000 
     55 OD1        26.8100  -46.0800   -7.1300 O.co2     3 ASP3        0.0000 
     56 OD1        24.5200  -44.2700   -6.4600 O.co2     3 ASP3        0.0000 
     57 OD1        23.3700  -43.3600   -6.1200 O.co2     3 ASP3        0.0000 
     58 OD1        21.0800  -41.5500   -5.4400 O.co2     3 ASP3        0.0000 
     59 OD1        27.7500  -47.7300   -6.1800 O.co2     3 ASP3        0.0000 
     60 OD1        23.1600  -44.1100   -4.8300 O.co2     3 ASP3        0.0000 
     61 OD1        26.3900  -47.5700   -4.5600 O.co2     3 ASP3        0.0000 
     62 OD1        22.9500  -44.8500   -3.5500 O.co2     3 ASP3        0.0000 
     63 OD1        23.8900  -46.5000   -2.6000 O.co2     3 ASP3        0.0000 
     64 OD1        23.3800  -40.7800   -6.3700 O.co2     3 ASP3        0.0000 
     65 OD1        22.0200  -40.6100   -4.7500 O.co2     3 ASP3        0.0000 
     66 OD1        26.4000  -44.9800   -4.8100 O.co2     3 ASP3        0.0000 
     67 OD1        25.2500  -44.0800   -4.4700 O.co2     3 ASP3        0.0000 
     68 OD1        26.1900  -45.7300   -3.5300 O.co2     3 ASP3        0.0000 
     69 OD1        25.0400  -44.8200   -3.1900 O.co2     3 ASP3        0.0000 
     70 OD1        23.6000  -37.4500   -7.9100 O.co2     3 ASP3        0.0000 
     71 OD1        24.5300  -39.1000   -6.9600 O.co2     3 ASP3        0.0000 
     72 OD1        23.3900  -38.1900   -6.6200 O.co2     3 ASP3        0.0000 
     73 OD1        23.1800  -38.9300   -5.3400 O.co2     3 ASP3        0.0000 
     74 OD1        24.8500  -40.3900   -2.4100 O.co2     3 ASP3        0.0000 
     75 OD1        24.3400  -34.6700   -6.1800 O.co2     3 ASP3        0.0000 
     76 OD1        25.0600  -37.0600   -3.9500 O.co2     3 ASP3        0.0000 
     77 OD1        23.9200  -36.1600   -3.6100 O.co2     3 ASP3        0.0000 
     78 OD1        25.2800  -33.7300   -5.4800 O.co2     3 ASP3        0.0000 
     79 OD1        26.2200  -35.3800   -4.5400 O.co2     3 ASP3        0.0000 
     80 OD1        26.0100  -36.1300   -3.2500 O.co2     3 ASP3        0.0000 
     81 NZ         19.9300  -40.6400   -5.1100 N.4       4 LYS4        0.0000 
     82 NZ         20.8800  -39.7100   -4.4100 N.4       4 LYS4        0.0000 
     83 NZ         25.7800  -44.6300   -1.2100 N.4       4 LYS4        0.0000 
     84 NZ         24.1200  -38.0000   -4.6400 N.4       4 LYS4        0.0000 
     85 NZ         22.7600  -37.8400   -3.0200 N.4       4 LYS4        0.0000 
     86 NZ         24.6400  -41.1400   -1.1200 N.4       4 LYS4        0.0000 
     87 CZ         28.1600  -48.8300   -8.5000 C.ar      5 PHE5        0.0000 
     88 CZ         28.9000  -48.6400   -6.5200 C.ar      5 PHE5        0.0000 
     89 CZ         28.6900  -49.3800   -5.2300 C.ar      5 PHE5        0.0000 
     90 CZ         27.9700  -44.4000   -7.7200 C.ar      5 PHE5        0.0000 
     91 CZ         26.8200  -43.4900   -7.3800 C.ar      5 PHE5        0.0000 
     92 CZ         27.7600  -45.1400   -6.4300 C.ar      5 PHE5        0.0000 
     93 CZ         26.6100  -44.2400   -6.1000 C.ar      5 PHE5        0.0000 
     94 CZ         25.4600  -43.3300   -5.7600 C.ar      5 PHE5        0.0000 
     95 CZ         28.6900  -46.8000   -5.4900 C.ar      5 PHE5        0.0000 
     96 CZ         27.5500  -45.8900   -5.1500 C.ar      5 PHE5        0.0000 
     97 CZ         30.0600  -44.3700   -7.3600 C.ar      5 PHE5        0.0000 
     98 CZ         26.4100  -42.4000   -5.0600 C.ar      5 PHE5        0.0000 
     99 CZ         25.2600  -41.4900   -4.7300 C.ar      5 PHE5        0.0000 
    100 CZ         26.2000  -43.1400   -3.7800 C.ar      5 PHE5        0.0000 
    101 CZ         25.0500  -42.2300   -3.4400 C.ar      5 PHE5        0.0000 
    102 CZ         25.9900  -43.8800   -2.4900 C.ar      5 PHE5        0.0000 
    103 CZ         26.2000  -40.5500   -4.0300 C.ar      5 PHE5        0.0000 
    104 CZ         25.0600  -39.6500   -3.6900 C.ar      5 PHE5        0.0000 
    105 CZ         25.9900  -41.3000   -2.7500 C.ar      5 PHE5        0.0000 
    106 CA         21.2800  -43.3900   -6.4800 C.3       6 GLY6        0.0000 
    107 CA         29.5300  -46.4000  -10.3800 C.3       6 GLY6        0.0000 
    108 CA         29.3200  -47.1500   -9.0900 C.3       6 GLY6        0.0000 
    109 CA         28.1700  -46.2400   -8.7500 C.3       6 GLY6        0.0000 
    110 CA         29.1100  -47.8900   -7.8000 C.3       6 GLY6        0.0000 
    111 CA         27.5400  -48.4700   -4.9000 C.3       6 GLY6        0.0000 
    112 CA         20.6600  -43.0400   -2.8700 C.3       6 GLY6        0.0000 
    113 CA         27.3300  -49.2200   -3.6100 C.3       6 GLY6        0.0000 
    114 CA         29.1100  -45.3100   -8.0600 C.3       6 GLY6        0.0000 
    115 CA         25.6700  -42.5900   -7.0500 C.3       6 GLY6        0.0000 
    116 CA         28.9000  -46.0500   -6.7700 C.3       6 GLY6        0.0000 
    117 CA         25.7700  -47.2100   -0.9600 C.3       6 GLY6        0.0000 
    118 CA         25.6800  -40.0000   -7.3000 C.3       6 GLY6        0.0000 
    119 CA         25.4700  -40.7500   -6.0100 C.3       6 GLY6        0.0000 
    120 CA         26.4100  -39.8100   -5.3200 C.3       6 GLY6        0.0000 
    121 CA         23.9100  -38.7400   -3.3600 C.3       6 GLY6        0.0000 
    122 CA         23.7000  -39.4900   -2.0700 C.3       6 GLY6        0.0000 
    123 CA         26.0000  -38.7100   -3.0000 C.3       6 GLY6        0.0000 
    124 CA         24.8500  -37.8100   -2.6600 C.3       6 GLY6        0.0000 
    125 CA         24.6400  -38.5500   -1.3800 C.3       6 GLY6        0.0000 
    126 CA         25.8000  -36.8700   -1.9700 C.3       6 GLY6        0.0000 
    127 DU         27.4400  -46.4300  -10.7300 H         7 CUB7        0.0000 
    128 DU         28.5900  -44.7500  -11.3200 H         7 CUB7        0.0000 
    129 DU         27.4400  -43.8500  -10.9900 H         7 CUB7        0.0000 
    130 DU         28.3800  -45.5000  -10.0400 H         7 CUB7        0.0000 
    131 DU         27.2300  -44.5900   -9.7000 H         7 CUB7        0.0000 
    132 DU         26.0900  -43.6900   -9.3600 H         7 CUB7        0.0000 
    133 DU         24.9400  -42.7800   -9.0300 H         7 CUB7        0.0000 
    134 DU         23.5800  -42.6200   -7.4000 H         7 CUB7        0.0000 
    135 DU         22.2300  -42.4500   -5.7800 H         7 CUB7        0.0000 
    136 DU         22.0200  -43.2000   -4.5000 H         7 CUB7        0.0000 
    137 DU         24.7400  -40.9400   -7.9900 H         7 CUB7        0.0000 
    138 DU         24.5300  -41.6800   -6.7100 H         7 CUB7        0.0000 
    139 DU         24.3200  -42.4300   -5.4200 H         7 CUB7        0.0000 
    140 DU         23.1700  -41.5200   -5.0900 H         7 CUB7        0.0000 
    141 DU         24.1100  -43.1700   -4.1400 H         7 CUB7        0.0000 
    142 DU         22.9600  -42.2600   -3.8000 H         7 CUB7        0.0000 
    143 DU         21.8100  -41.3600   -3.4600 H         7 CUB7        0.0000 
    144 DU         24.3200  -39.8400   -5.6800 H         7 CUB7        0.0000 
    145 DU         24.1100  -40.5800   -4.3900 H         7 CUB7        0.0000 
    146 DU         22.9700  -39.6800   -4.0500 H         7 CUB7        0.0000 
    147 DU         25.2700  -38.9000   -4.9800 H         7 CUB7        0.0000 
@<TRIPOS>BOND
@<TRIPOS>SUBSTRUCTURE
     1 SER1        1 GROUP   
     2 ALA2       36 GROUP   
     3 ASP3       42 GROUP   
     4 LYS4       81 GROUP   
     5 PHE5       87 GROUP   
     6 GLY6      106 GROUP   
     7 CUB7      127 GROUP   
@<TRIPOS>SET

