#    Name: 6cta_1_ATP
#    Modification time : Fri May 22 19:28:35 2020

@<TRIPOS>MOLECULE
6cta_1_ATP
   31    33     1     0     1
SMALL
NO_CHARGES


@<TRIPOS>ATOM
      1 PG         25.0380  -33.7730   -5.5410 P.3       1 ATP604      0.0000 
      2 O1G        25.9430  -33.9170   -6.7410 O.co2     1 ATP604      0.0000 
      3 O2G        23.6310  -34.2710   -5.7720 O.co2     1 ATP604      0.0000 
      4 O3G        25.1220  -32.4300   -4.8520 O.co2     1 ATP604      0.0000 
      5 PB         24.8850  -36.2120   -4.1800 P.3       1 ATP604      0.0000 
      6 O1B        25.7980  -37.0760   -3.3390 O.co2     1 ATP604      0.0000 
      7 O2B        23.4980  -35.8840   -3.6880 O.co2     1 ATP604      0.0000 
      8 O3B        25.6460  -34.8230   -4.4800 O.3       1 ATP604      0.0000 
      9 PA         23.6530  -37.9310   -6.0920 P.3       1 ATP604      0.0000 
     10 O1A        22.2970  -37.2660   -6.0470 O.co2     1 ATP604      0.0000 
     11 O2A        24.1430  -38.5920   -7.3590 O.co2     1 ATP604      0.0000 
     12 O3A        24.7640  -36.8420   -5.6600 O.3       1 ATP604      0.0000 
     13 O5'        23.7160  -39.0550   -4.9400 O.3       1 ATP604      0.0000 
     14 C5'        22.8230  -39.0380   -3.8300 C.3       1 ATP604      0.0000 
     15 C4'        23.2040  -40.1630   -2.8800 C.3       1 ATP604      0.0000 
     16 O4'        23.0530  -41.4340   -3.5180 O.3       1 ATP604      0.0000 
     17 C3'        24.6610  -40.0770   -2.4640 C.3       1 ATP604      0.0000 
     18 O3'        24.8120  -39.3430   -1.2470 O.3       1 ATP604      0.0000 
     19 C2'        25.0780  -41.5200   -2.2850 C.3       1 ATP604      0.0000 
     20 O2'        24.9130  -41.8960   -0.9160 O.3       1 ATP604      0.0000 
     21 C1'        24.1140  -42.3180   -3.1440 C.3       1 ATP604      0.0000 
     22 N9         24.8320  -42.7490   -4.3660 N.pl3     1 ATP604      0.0000 
     23 C8         24.8810  -42.0640   -5.5250 C.2       1 ATP604      0.0000 
     24 N7         25.6210  -42.7170   -6.4540 N.2       1 ATP604      0.0000 
     25 C5         26.0650  -43.8520   -5.8830 C.ar      1 ATP604      0.0000 
     26 C6         26.8990  -45.0000   -6.3050 C.ar      1 ATP604      0.0000 
     27 N6         27.4190  -45.0620   -7.5550 N.pl3     1 ATP604      0.0000 
     28 N1         27.1220  -45.9790   -5.4020 N.ar      1 ATP604      0.0000 
     29 C2         26.6130  -45.9270   -4.1570 C.ar      1 ATP604      0.0000 
     30 N3         25.8480  -44.9180   -3.7070 N.ar      1 ATP604      0.0000 
     31 C4         25.5440  -43.8700   -4.5080 C.ar      1 ATP604      0.0000 
@<TRIPOS>BOND
     1    1    2 ar   
     2    1    3 ar   
     3    1    4 ar   
     4    1    8 1    
     5    5    6 ar   
     6    5    7 ar   
     7    5    8 1    
     8    5   12 1    
     9    9   10 ar   
    10    9   11 ar   
    11    9   12 1    
    12    9   13 1    
    13   13   14 1    
    14   14   15 1    
    15   15   16 1    
    16   15   17 1    
    17   16   21 1    
    18   17   18 1    
    19   17   19 1    
    20   19   20 1    
    21   19   21 1    
    22   21   22 1    
    23   22   23 1    
    24   22   31 1    
    25   23   24 2    
    26   24   25 1    
    27   25   26 ar   
    28   25   31 ar   
    29   26   27 1    
    30   26   28 ar   
    31   28   29 ar   
    32   29   30 ar   
    33   30   31 ar   
@<TRIPOS>SUBSTRUCTURE
     1 ATP604      1 GROUP   
@<TRIPOS>SET
ATOM$ORANGE STATIC     ATOMS   COLORGROUP SYSTEM 
20 14 14 15 15 17 17 19 19 21 21 23 23 25 25 26 26 29 \
29 31 31 

