#    Name: 6su9_1_PXL_CAVITY_N1_8
#    Modification time : Fri May 22 19:30:30 2020

@<TRIPOS>MOLECULE
6su9_1_PXL_CAVITY_N1_8
   75     0     6     0     0
SMALL
NO_CHARGES


@<TRIPOS>ATOM
      1 OG         56.5400   -1.2800   36.7400 O.3       1 SER1        0.0000 
      2 OG         58.7000   -3.5000   38.7100 O.3       1 SER1        0.0000 
      3 OG         57.4000   -3.1500   39.3800 O.3       1 SER1        0.0000 
      4 OG         53.6800   -5.9600   43.7100 O.3       1 SER1        0.0000 
      5 N          57.8900   -2.9100   36.8400 N.am      2 ALA2        0.0000 
      6 N          56.6000   -2.5600   37.5100 N.am      2 ALA2        0.0000 
      7 N          56.7600   -6.4100   39.8300 N.am      2 ALA2        0.0000 
      8 N          56.8200   -7.6900   40.6100 N.am      2 ALA2        0.0000 
      9 N          57.4600   -4.4300   40.1600 N.am      2 ALA2        0.0000 
     10 N          57.5100   -5.7200   40.9300 N.am      2 ALA2        0.0000 
     11 N          57.5700   -7.0000   41.7000 N.am      2 ALA2        0.0000 
     12 N          58.2600   -5.0200   42.0300 N.am      2 ALA2        0.0000 
     13 N          58.3200   -6.3100   42.8000 N.am      2 ALA2        0.0000 
     14 NZ         54.4900   -1.6200   36.3100 N.4       3 LYS4        0.0000 
     15 NZ         53.2000   -1.2800   36.9800 N.4       3 LYS4        0.0000 
     16 NZ         53.2500   -2.5600   37.7500 N.4       3 LYS4        0.0000 
     17 NZ         55.2400   -0.9300   37.4000 N.4       3 LYS4        0.0000 
     18 CZ         53.4200   -6.4100   40.0700 C.ar      4 PHE5        0.0000 
     19 CZ         52.8700   -5.3700   41.8400 C.ar      4 PHE5        0.0000 
     20 CZ         51.5700   -5.0200   42.5100 C.ar      4 PHE5        0.0000 
     21 CZ         55.5200   -7.3500   41.2700 C.ar      4 PHE5        0.0000 
     22 CZ         54.2200   -7.0000   41.9400 C.ar      4 PHE5        0.0000 
     23 CZ         52.9300   -6.6500   42.6100 C.ar      4 PHE5        0.0000 
     24 CZ         51.6300   -6.3000   43.2800 C.ar      4 PHE5        0.0000 
     25 CZ         52.9800   -7.9400   43.3900 C.ar      4 PHE5        0.0000 
     26 CZ         55.9900   -0.2400   38.5000 C.ar      4 PHE5        0.0000 
     27 CZ         58.6400   -2.2100   37.9400 C.ar      4 PHE5        0.0000 
     28 CZ         57.3500   -1.8700   38.6100 C.ar      4 PHE5        0.0000 
     29 CZ         56.0500   -1.5200   39.2800 C.ar      4 PHE5        0.0000 
     30 CZ         54.8100   -2.4500   40.7200 C.ar      4 PHE5        0.0000 
     31 CZ         54.8600   -3.7400   41.4900 C.ar      4 PHE5        0.0000 
     32 CZ         53.5700   -3.3900   42.1600 C.ar      4 PHE5        0.0000 
     33 CZ         54.9200   -5.0200   42.2700 C.ar      4 PHE5        0.0000 
     34 CZ         53.6200   -4.6700   42.9300 C.ar      4 PHE5        0.0000 
     35 CZ         54.9700   -6.3100   43.0400 C.ar      4 PHE5        0.0000 
     36 CZ         56.8000   -0.8200   40.3700 C.ar      4 PHE5        0.0000 
     37 CZ         58.1500   -2.4600   40.4800 C.ar      4 PHE5        0.0000 
     38 CZ         56.8600   -2.1100   41.1500 C.ar      4 PHE5        0.0000 
     39 CZ         55.5600   -1.7600   41.8200 C.ar      4 PHE5        0.0000 
     40 CZ         58.2100   -3.7400   41.2500 C.ar      4 PHE5        0.0000 
     41 CZ         56.9100   -3.3900   41.9200 C.ar      4 PHE5        0.0000 
     42 CZ         56.9700   -4.6800   42.7000 C.ar      4 PHE5        0.0000 
     43 CZ         57.0200   -5.9600   43.4700 C.ar      4 PHE5        0.0000 
     44 CA         53.8500   -4.8800   36.7600 C.3       5 GLY6        0.0000 
     45 CA         53.9100   -6.1700   37.5300 C.3       5 GLY6        0.0000 
     46 CA         55.7900   -1.9700   35.6400 C.3       5 GLY6        0.0000 
     47 CA         55.8400   -3.2500   36.4100 C.3       5 GLY6        0.0000 
     48 CA         54.5500   -2.9100   37.0800 C.3       5 GLY6        0.0000 
     49 CA         55.9000   -4.5400   37.1900 C.3       5 GLY6        0.0000 
     50 CA         54.6000   -4.1900   37.8600 C.3       5 GLY6        0.0000 
     51 CA         53.3100   -3.8400   38.5200 C.3       5 GLY6        0.0000 
     52 CA         54.6600   -5.4700   38.6300 C.3       5 GLY6        0.0000 
     53 CA         53.3600   -5.1300   39.3000 C.3       5 GLY6        0.0000 
     54 CA         54.7100   -6.7600   39.4000 C.3       5 GLY6        0.0000 
     55 CA         53.9500   -0.5800   38.0700 C.3       5 GLY6        0.0000 
     56 CA         57.9500   -4.1900   37.6200 C.3       5 GLY6        0.0000 
     57 CA         56.6500   -3.8400   38.2800 C.3       5 GLY6        0.0000 
     58 CA         56.7100   -5.1300   39.0600 C.3       5 GLY6        0.0000 
     59 CA         55.4100   -4.7800   39.7300 C.3       5 GLY6        0.0000 
     60 CA         55.4600   -6.0600   40.5000 C.3       5 GLY6        0.0000 
     61 CA         54.7500   -1.1700   39.9400 C.3       5 GLY6        0.0000 
     62 CA         58.9200   -8.6300   41.8100 C.3       5 GLY6        0.0000 
     63 CA         57.6100   -1.4100   42.2400 C.3       5 GLY6        0.0000 
     64 CA         58.9600   -3.0500   42.3500 C.3       5 GLY6        0.0000 
     65 CA         59.0200   -4.3300   43.1200 C.3       5 GLY6        0.0000 
     66 DU         55.3000   -2.2100   38.1800 H         6 CUB7        0.0000 
     67 DU         54.0000   -1.8700   38.8500 H         6 CUB7        0.0000 
     68 DU         55.3500   -3.5000   38.9500 H         6 CUB7        0.0000 
     69 DU         54.1100   -4.4300   40.3900 H         6 CUB7        0.0000 
     70 DU         52.8100   -4.0900   41.0600 H         6 CUB7        0.0000 
     71 DU         54.1700   -5.7200   41.1700 H         6 CUB7        0.0000 
     72 DU         56.1100   -2.8000   40.0500 H         6 CUB7        0.0000 
     73 DU         56.1600   -4.0900   40.8200 H         6 CUB7        0.0000 
     74 DU         56.2200   -5.3700   41.6000 H         6 CUB7        0.0000 
     75 DU         56.2700   -6.6500   42.3700 H         6 CUB7        0.0000 
@<TRIPOS>BOND
@<TRIPOS>SUBSTRUCTURE
     1 SER1        1 GROUP   
     2 ALA2        5 GROUP   
     3 LYS4       14 GROUP   
     4 PHE5       18 GROUP   
     5 GLY6       44 GROUP   
     6 CUB7       66 GROUP   
@<TRIPOS>SET

