#    Name: 6su9_1_PXL
#    Modification time : Fri May 22 19:30:30 2020

@<TRIPOS>MOLECULE
6su9_1_PXL
   12    12     1     0     0
SMALL
NO_CHARGES


@<TRIPOS>ATOM
      1 OP4        52.9740   -1.6240   36.8650 O.3       1 PXL702      0.0000 
      2 C5A        53.7240   -1.7030   38.0190 C.3       1 PXL702      0.0000 
      3 C5         55.2030   -1.9120   37.6750 C.ar      1 PXL702      0.0000 
      4 C6         55.7320   -1.2650   36.5340 C.ar      1 PXL702      0.0000 
      5 N1         57.0640   -1.4370   36.2170 N.ar      1 PXL702      0.0000 
      6 C2         57.8480   -2.2290   36.9810 C.ar      1 PXL702      0.0000 
      7 C3         57.3260   -2.8770   38.1130 C.ar      1 PXL702      0.0000 
      8 C4         55.9930   -2.7210   38.4580 C.ar      1 PXL702      0.0000 
      9 C4A        55.3960   -3.4160   39.7070 C.2       1 PXL702      0.0000 
     10 O4A        55.4060   -4.6590   39.8850 O.2       1 PXL702      0.0000 
     11 O3         58.2390   -3.6980   38.8570 O.3       1 PXL702      0.0000 
     12 C2A        59.3580   -2.4430   36.6340 C.3       1 PXL702      0.0000 
@<TRIPOS>BOND
     1    1    2 1    
     2    2    3 1    
     3    3    4 ar   
     4    3    8 ar   
     5    4    5 ar   
     6    5    6 ar   
     7    6    7 ar   
     8    6   12 1    
     9    7    8 ar   
    10    7   11 1    
    11    8    9 1    
    12    9   10 2    
@<TRIPOS>SUBSTRUCTURE
     1 PXL702      1 GROUP   
@<TRIPOS>SET

