#    Name: 6su9_2_PXL_CAVITY_N1_12
#    Modification time : Fri May 22 19:30:32 2020

@<TRIPOS>MOLECULE
6su9_2_PXL_CAVITY_N1_12
   72     0     6     0     0
SMALL
NO_CHARGES


@<TRIPOS>ATOM
      1 OG         70.6200    3.0200    7.9700 O.3       1 SER1        0.0000 
      2 OG         71.4300    2.4300    9.8400 O.3       1 SER1        0.0000 
      3 OG         72.0700    5.6900    9.3900 O.3       1 SER1        0.0000 
      4 OG         70.8300    4.7500   10.8400 O.3       1 SER1        0.0000 
      5 OG         72.1800    3.1200   10.9400 O.3       1 SER1        0.0000 
      6 OG         70.8800    3.4700   11.6100 O.3       1 SER1        0.0000 
      7 OG         72.8200    6.3800   10.4900 O.3       1 SER1        0.0000 
      8 OG         71.5800    5.4500   11.9300 O.3       1 SER1        0.0000 
      9 OG         69.1500    2.2900   15.5900 O.3       1 SER1        0.0000 
     10 OG         72.3800    4.8600   13.8000 O.3       1 SER1        0.0000 
     11 OG         71.0900    5.2000   14.4700 O.3       1 SER1        0.0000 
     12 OG         69.9000    2.9800   16.6900 O.3       1 SER1        0.0000 
     13 OG         71.8900    4.6100   16.3400 O.3       1 SER1        0.0000 
     14 OG         70.6000    4.9600   17.0100 O.3       1 SER1        0.0000 
     15 O          68.5700    2.6700    7.5400 O.2       2 ALA2        0.0000 
     16 O          69.3800    2.0800    9.4200 O.2       2 ALA2        0.0000 
     17 O          68.0800    2.4300   10.0800 O.2       2 ALA2        0.0000 
     18 N          71.5200    6.7300   11.1600 N.am      2 ALA2        0.0000 
     19 N          72.2700    7.4200   12.2600 N.am      2 ALA2        0.0000 
     20 N          72.3300    6.1400   13.0300 N.am      2 ALA2        0.0000 
     21 N          69.8500    4.2700   15.9200 N.am      2 ALA2        0.0000 
     22 NZ         69.0600    2.9100    5.0000 N.4       3 LYS4        0.0000 
     23 NZ         68.8300    3.1200   11.1800 N.4       3 LYS4        0.0000 
     24 NZ         70.1900    1.4900   11.2900 N.4       3 LYS4        0.0000 
     25 NZ         68.8900    1.8400   11.9600 N.4       3 LYS4        0.0000 
     26 CZ         72.2300    1.8400   11.7200 C.ar      4 PHE5        0.0000 
     27 CZ         69.7000    1.2500   13.8300 C.ar      4 PHE5        0.0000 
     28 CZ         70.1700    8.3600   11.0500 C.ar      4 PHE5        0.0000 
     29 CZ         72.8800    5.1000   11.2600 C.ar      4 PHE5        0.0000 
     30 CZ         72.9300    3.8100   12.0400 C.ar      4 PHE5        0.0000 
     31 CZ         72.9900    2.5300   12.8100 C.ar      4 PHE5        0.0000 
     32 CZ         71.6900    2.8800   13.4800 C.ar      4 PHE5        0.0000 
     33 CZ         70.3900    3.2300   14.1500 C.ar      4 PHE5        0.0000 
     34 CZ         70.4500    1.9400   14.9200 C.ar      4 PHE5        0.0000 
     35 CZ         73.5700    7.0800   11.5900 C.ar      4 PHE5        0.0000 
     36 CZ         73.6300    5.7900   12.3600 C.ar      4 PHE5        0.0000 
     37 CZ         73.6800    4.5100   13.1400 C.ar      4 PHE5        0.0000 
     38 CZ         72.4400    3.5700   14.5800 C.ar      4 PHE5        0.0000 
     39 CZ         71.1400    3.9200   15.2500 C.ar      4 PHE5        0.0000 
     40 CZ         71.2000    2.6400   16.0200 C.ar      4 PHE5        0.0000 
     41 CA         69.8100    3.6100    6.1000 C.3       5 GLY6        0.0000 
     42 CA         71.8600    3.9500    6.5300 C.3       5 GLY6        0.0000 
     43 CA         70.5700    4.3000    7.2000 C.3       5 GLY6        0.0000 
     44 CA         69.3200    3.3600    8.6400 C.3       5 GLY6        0.0000 
     45 CA         69.9700    6.6200    8.1900 C.3       5 GLY6        0.0000 
     46 CA         70.0200    5.3400    8.9600 C.3       5 GLY6        0.0000 
     47 CA         70.0800    4.0600    9.7400 C.3       5 GLY6        0.0000 
     48 CA         68.7800    4.4000   10.4100 C.3       5 GLY6        0.0000 
     49 CA         67.4800    4.7500   11.0800 C.3       5 GLY6        0.0000 
     50 CA         67.5400    3.4700   11.8500 C.3       5 GLY6        0.0000 
     51 CA         71.4800    1.1400   10.6200 C.3       5 GLY6        0.0000 
     52 CA         70.2400    0.2100   12.0600 C.3       5 GLY6        0.0000 
     53 CA         69.4200    7.6700    9.9600 C.3       5 GLY6        0.0000 
     54 CA         70.7700    6.0400   10.0600 C.3       5 GLY6        0.0000 
     55 CA         69.4700    6.3800   10.7300 C.3       5 GLY6        0.0000 
     56 CA         68.1800    6.7300   11.4000 C.3       5 GLY6        0.0000 
     57 CA         69.5300    5.1000   11.5000 C.3       5 GLY6        0.0000 
     58 CA         68.2300    5.4500   12.1700 C.3       5 GLY6        0.0000 
     59 CA         66.9400    5.7900   12.8400 C.3       5 GLY6        0.0000 
     60 CA         68.2900    4.1600   12.9500 C.3       5 GLY6        0.0000 
     61 CA         70.9400    2.1800   12.3800 C.3       5 GLY6        0.0000 
     62 CA         69.6400    2.5300   13.0500 C.3       5 GLY6        0.0000 
     63 CA         70.9900    0.9000   13.1600 C.3       5 GLY6        0.0000 
     64 CA         70.2300    7.0800   11.8300 C.3       5 GLY6        0.0000 
     65 CA         70.2800    5.7900   12.6000 C.3       5 GLY6        0.0000 
     66 CA         70.3400    4.5100   13.3800 C.3       5 GLY6        0.0000 
     67 CA         69.0400    4.8600   14.0400 C.3       5 GLY6        0.0000 
     68 CA         69.7900    5.5500   15.1400 C.3       5 GLY6        0.0000 
     69 DU         69.8700    2.3200    6.8800 H         6 CUB7        0.0000 
     70 DU         70.1300    2.7700   10.5100 H         6 CUB7        0.0000 
     71 DU         69.5900    3.8200   12.2800 H         6 CUB7        0.0000 
     72 DU         71.6300    4.1600   12.7100 H         6 CUB7        0.0000 
@<TRIPOS>BOND
@<TRIPOS>SUBSTRUCTURE
     1 SER1        1 GROUP   
     2 ALA2       15 GROUP   
     3 LYS4       22 GROUP   
     4 PHE5       26 GROUP   
     5 GLY6       41 GROUP   
     6 CUB7       69 GROUP   
@<TRIPOS>SET

