#    Name: 6su9_2_PXL
#    Modification time : Fri May 22 19:30:32 2020

@<TRIPOS>MOLECULE
6su9_2_PXL
   12    12     1     0     0
SMALL
NO_CHARGES


@<TRIPOS>ATOM
      1 OP4        68.6460    1.7100   10.8150 O.3       1 PXL502      0.0000 
      2 C5A        69.6050    1.0700   11.5940 C.3       1 PXL502      0.0000 
      3 C5         69.8290    1.8250   12.9140 C.ar      1 PXL502      0.0000 
      4 C6         69.4000    1.2500   14.1200 C.ar      1 PXL502      0.0000 
      5 N1         69.5880    1.9120   15.3120 N.ar      1 PXL502      0.0000 
      6 C2         70.1910    3.1140   15.3440 C.ar      1 PXL502      0.0000 
      7 C3         70.6260    3.6900   14.1500 C.ar      1 PXL502      0.0000 
      8 C4         70.4480    3.0460   12.9400 C.ar      1 PXL502      0.0000 
      9 C4A        70.9450    3.7100   11.6400 C.2       1 PXL502      0.0000 
     10 O4A        70.2010    3.8870   10.6480 O.2       1 PXL502      0.0000 
     11 O3         71.2610    4.9660   14.2290 O.3       1 PXL502      0.0000 
     12 C2A        70.4070    3.8680   16.6900 C.3       1 PXL502      0.0000 
@<TRIPOS>BOND
     1    1    2 1    
     2    2    3 1    
     3    3    4 ar   
     4    3    8 ar   
     5    4    5 ar   
     6    5    6 ar   
     7    6    7 ar   
     8    6   12 1    
     9    7    8 ar   
    10    7   11 1    
    11    8    9 1    
    12    9   10 2    
@<TRIPOS>SUBSTRUCTURE
     1 PXL502      1 GROUP   
@<TRIPOS>SET

