#    Name: 5yhw_14_DGT_CAVITY_N1_4
#    Modification time : Fri May 22 19:20:47 2020

@<TRIPOS>MOLECULE
5yhw_14_DGT_CAVITY_N1_4
  148     0     7     0     0
SMALL
NO_CHARGES


@<TRIPOS>ATOM
      1 OG         10.6100    1.6700  137.3900 O.3       1 SER1        0.0000 
      2 OG         14.0300    4.9000  135.7800 O.3       1 SER1        0.0000 
      3 OG         13.5100    3.8000  136.6500 O.3       1 SER1        0.0000 
      4 OG         12.2300    4.5500  136.8500 O.3       1 SER1        0.0000 
      5 OG          8.4000    6.8300  137.4600 O.3       1 SER1        0.0000 
      6 OG         12.9900    2.6900  137.5200 O.3       1 SER1        0.0000 
      7 OG         11.7200    3.4500  137.7200 O.3       1 SER1        0.0000 
      8 OG         11.2000    2.3400  138.6000 O.3       1 SER1        0.0000 
      9 OG         15.1400    6.6800  136.1100 O.3       1 SER1        0.0000 
     10 OG         14.6200    5.5700  136.9800 O.3       1 SER1        0.0000 
     11 OG         14.1000    4.4700  137.8500 O.3       1 SER1        0.0000 
     12 OG         17.0000    6.5900  137.1100 O.3       1 SER1        0.0000 
     13 OG         15.7300    7.3500  137.3200 O.3       1 SER1        0.0000 
     14 OG         15.2100    6.2500  138.1900 O.3       1 SER1        0.0000 
     15 OG         14.6900    5.1400  139.0600 O.3       1 SER1        0.0000 
     16 OG         18.3600    5.4000  138.9900 O.3       1 SER1        0.0000 
     17 OG         17.0800    6.1600  139.1900 O.3       1 SER1        0.0000 
     18 OG         11.9600    9.1900  140.0000 O.3       1 SER1        0.0000 
     19 OG         10.6900    9.9500  140.2100 O.3       1 SER1        0.0000 
     20 O          11.4000    6.8500  134.1100 O.2       2 ALA2        0.0000 
     21 N          16.6900   10.0000  133.5000 N.am      2 ALA2        0.0000 
     22 N          15.4100   10.7600  133.7000 N.am      2 ALA2        0.0000 
     23 N          13.6200   10.4100  134.7800 N.am      2 ALA2        0.0000 
     24 N          17.2800   10.6700  134.7100 N.am      2 ALA2        0.0000 
     25 N          18.0400    8.8100  135.3700 N.am      2 ALA2        0.0000 
     26 N          17.5200    7.7000  136.2400 N.am      2 ALA2        0.0000 
     27 O          12.4100   10.7300  137.0600 O.2       2 ALA2        0.0000 
     28 N          12.6200    0.7100  142.5400 N.am      2 ALA2        0.0000 
     29 N          19.1500   10.5800  135.7100 N.am      2 ALA2        0.0000 
     30 N          18.6300    9.4800  136.5800 N.am      2 ALA2        0.0000 
     31 N          17.6000    7.2700  138.3200 N.am      2 ALA2        0.0000 
     32 N          19.7400   11.2600  136.9100 N.am      2 ALA2        0.0000 
     33 O          19.2200   10.1500  137.7800 O.2       2 ALA2        0.0000 
     34 N          18.7000    9.0400  138.6500 N.am      2 ALA2        0.0000 
     35 N          18.1900    7.9400  139.5200 N.am      2 ALA2        0.0000 
     36 N          17.6700    6.8300  140.3900 N.am      2 ALA2        0.0000 
     37 O          19.8100   10.8200  138.9900 O.2       2 ALA2        0.0000 
     38 O          20.5700    8.9600  139.6500 O.2       2 ALA2        0.0000 
     39 N          19.2900    9.7200  139.8600 N.am      2 ALA2        0.0000 
     40 N          16.7400   11.2300  140.2600 N.am      2 ALA2        0.0000 
     41 N          20.0500    7.8500  140.5200 N.am      2 ALA2        0.0000 
     42 N          18.7800    8.6100  140.7300 N.am      2 ALA2        0.0000 
     43 OD1         9.6000    6.5100  135.1900 O.co2     3 ASP3        0.0000 
     44 OD1        12.5100    8.6300  134.4500 O.co2     3 ASP3        0.0000 
     45 OD1        11.9900    7.5300  135.3200 O.co2     3 ASP3        0.0000 
     46 OD1        10.1900    7.1800  136.3900 O.co2     3 ASP3        0.0000 
     47 OD1        12.4800    1.5800  138.3900 O.co2     3 ASP3        0.0000 
     48 OD1        10.6800    1.2400  139.4700 O.co2     3 ASP3        0.0000 
     49 OD1        10.1600    0.1300  140.3400 O.co2     3 ASP3        0.0000 
     50 OD1        13.1000    9.3000  135.6500 O.co2     3 ASP3        0.0000 
     51 OD1        12.5800    8.2000  136.5200 O.co2     3 ASP3        0.0000 
     52 OD1        11.3000    8.9600  136.7200 O.co2     3 ASP3        0.0000 
     53 OD1        13.5800    3.3600  138.7300 O.co2     3 ASP3        0.0000 
     54 OD1        13.0700    2.2600  139.6000 O.co2     3 ASP3        0.0000 
     55 OD1        11.7900    3.0100  139.8000 O.co2     3 ASP3        0.0000 
     56 OD1        12.5500    1.1500  140.4700 O.co2     3 ASP3        0.0000 
     57 OD1        11.2700    1.9100  140.6700 O.co2     3 ASP3        0.0000 
     58 OD1         9.9900    2.6700  140.8700 O.co2     3 ASP3        0.0000 
     59 OD1        10.7500    0.8000  141.5400 O.co2     3 ASP3        0.0000 
     60 OD1        10.2400   -0.3100  142.4100 O.co2     3 ASP3        0.0000 
     61 OD1        14.1700    4.0300  139.9300 O.co2     3 ASP3        0.0000 
     62 OD1        13.6600    2.9300  140.8000 O.co2     3 ASP3        0.0000 
     63 OD1        13.1400    1.8200  141.6700 O.co2     3 ASP3        0.0000 
     64 OD1        10.0700    2.2300  142.9500 O.co2     3 ASP3        0.0000 
     65 OD1        18.4600   12.0100  137.1100 O.co2     3 ASP3        0.0000 
     66 OD1        18.5300   11.5800  139.1900 O.co2     3 ASP3        0.0000 
     67 NZ          9.0900    5.4000  136.0600 N.4       4 LYS4        0.0000 
     68 NZ          9.3300    2.4300  137.5900 N.4       4 LYS4        0.0000 
     69 NZ          9.6800    6.0700  137.2600 N.4       4 LYS4        0.0000 
     70 NZ         10.4400    4.2100  137.9300 N.4       4 LYS4        0.0000 
     71 NZ          9.1600    4.9600  138.1300 N.4       4 LYS4        0.0000 
     72 NZ          9.9200    3.1000  138.8000 N.4       4 LYS4        0.0000 
     73 NZ          8.6400    3.8600  139.0000 N.4       4 LYS4        0.0000 
     74 CZ         13.9600    5.3400  133.7000 C.ar      5 PHE5        0.0000 
     75 CZ         12.6800    6.1000  133.9100 C.ar      5 PHE5        0.0000 
     76 CZ         13.4400    4.2300  134.5800 C.ar      5 PHE5        0.0000 
     77 CZ         12.1600    4.9900  134.7800 C.ar      5 PHE5        0.0000 
     78 CZ         10.8800    5.7500  134.9800 C.ar      5 PHE5        0.0000 
     79 CZ         10.3600    4.6400  135.8500 C.ar      5 PHE5        0.0000 
     80 CZ          9.8500    3.5300  136.7200 C.ar      5 PHE5        0.0000 
     81 CZ         15.5800    8.2200  133.1700 C.ar      5 PHE5        0.0000 
     82 CZ         15.0600    7.1200  134.0400 C.ar      5 PHE5        0.0000 
     83 CZ         14.5500    6.0100  134.9100 C.ar      5 PHE5        0.0000 
     84 CZ         15.6500    7.7900  135.2400 C.ar      5 PHE5        0.0000 
     85 CZ         10.7800    7.8500  137.5900 C.ar      5 PHE5        0.0000 
     86 CZ         10.2700    6.7400  138.4700 C.ar      5 PHE5        0.0000 
     87 CZ          8.9900    7.5000  138.6700 C.ar      5 PHE5        0.0000 
     88 CZ          9.7500    5.6400  139.3400 C.ar      5 PHE5        0.0000 
     89 CZ         11.8900    9.6300  137.9300 C.ar      5 PHE5        0.0000 
     90 CZ         11.3700    8.5200  138.8000 C.ar      5 PHE5        0.0000 
     91 CZ         10.8600    7.4100  139.6700 C.ar      5 PHE5        0.0000 
     92 CZ         10.3400    6.3100  140.5400 C.ar      5 PHE5        0.0000 
     93 CZ         11.4500    8.0900  140.8700 C.ar      5 PHE5        0.0000 
     94 CA         13.2000    7.2000  133.0400 C.3       6 GLY6        0.0000 
     95 CA         10.0900    0.5600  138.2600 C.3       6 GLY6        0.0000 
     96 CA         14.3000    8.9800  133.3700 C.3       6 GLY6        0.0000 
     97 CA         13.7900    7.8700  134.2400 C.3       6 GLY6        0.0000 
     98 CA         11.9600    0.4800  139.2600 C.3       6 GLY6        0.0000 
     99 CA         16.1700    8.8900  134.3700 C.3       6 GLY6        0.0000 
    100 CA         14.8900    9.6500  134.5800 C.3       6 GLY6        0.0000 
    101 CA         14.3800    8.5500  135.4500 C.3       6 GLY6        0.0000 
    102 CA         12.0300    0.0400  141.3400 C.3       6 GLY6        0.0000 
    103 CA         16.0000   11.4300  134.9100 C.3       6 GLY6        0.0000 
    104 CA         16.7600    9.5600  135.5800 C.3       6 GLY6        0.0000 
    105 CA         16.2400    8.4600  136.4500 C.3       6 GLY6        0.0000 
    106 CA         14.9700    9.2200  136.6500 C.3       6 GLY6        0.0000 
    107 CA         14.4500    8.1100  137.5200 C.3       6 GLY6        0.0000 
    108 CA         13.1700    8.8700  137.7200 C.3       6 GLY6        0.0000 
    109 CA         17.8700   11.3400  135.9100 C.3       6 GLY6        0.0000 
    110 CA         17.3500   10.2400  136.7800 C.3       6 GLY6        0.0000 
    111 CA         16.8300    9.1300  137.6500 C.3       6 GLY6        0.0000 
    112 CA         16.3200    8.0200  138.5200 C.3       6 GLY6        0.0000 
    113 CA         15.0400    8.7800  138.7300 C.3       6 GLY6        0.0000 
    114 CA         13.7600    9.5400  138.9300 C.3       6 GLY6        0.0000 
    115 CA         12.4800   10.3000  139.1300 C.3       6 GLY6        0.0000 
    116 CA         17.9400   10.9100  137.9900 C.3       6 GLY6        0.0000 
    117 CA         17.4200    9.8000  138.8600 C.3       6 GLY6        0.0000 
    118 CA         15.6300    9.4500  139.9300 C.3       6 GLY6        0.0000 
    119 CA         14.3500   10.2100  140.1300 C.3       6 GLY6        0.0000 
    120 DU         13.2700    6.7700  135.1100 H         7 CUB7        0.0000 
    121 DU         12.7500    5.6600  135.9800 H         7 CUB7        0.0000 
    122 DU         11.4700    6.4200  136.1900 H         7 CUB7        0.0000 
    123 DU         10.9500    5.3100  137.0600 H         7 CUB7        0.0000 
    124 DU         13.8600    7.4400  136.3200 H         7 CUB7        0.0000 
    125 DU         13.3400    6.3300  137.1900 H         7 CUB7        0.0000 
    126 DU         12.0600    7.0900  137.3900 H         7 CUB7        0.0000 
    127 DU         12.8200    5.2300  138.0600 H         7 CUB7        0.0000 
    128 DU         11.5500    5.9800  138.2600 H         7 CUB7        0.0000 
    129 DU         12.3100    4.1200  138.9300 H         7 CUB7        0.0000 
    130 DU         11.0300    4.8800  139.1300 H         7 CUB7        0.0000 
    131 DU         10.5100    3.7700  140.0000 H         7 CUB7        0.0000 
    132 DU         13.9300    7.0000  138.3900 H         7 CUB7        0.0000 
    133 DU         12.6500    7.7600  138.6000 H         7 CUB7        0.0000 
    134 DU         12.1400    6.6600  139.4700 H         7 CUB7        0.0000 
    135 DU         12.9000    4.7900  140.1300 H         7 CUB7        0.0000 
    136 DU         11.6200    5.5500  140.3400 H         7 CUB7        0.0000 
    137 DU         12.3800    3.6800  141.0000 H         7 CUB7        0.0000 
    138 DU         11.8600    2.5800  141.8700 H         7 CUB7        0.0000 
    139 DU         11.3400    1.4700  142.7500 H         7 CUB7        0.0000 
    140 DU         15.8000    6.9200  139.3900 H         7 CUB7        0.0000 
    141 DU         14.5200    7.6800  139.6000 H         7 CUB7        0.0000 
    142 DU         13.2400    8.4300  139.8000 H         7 CUB7        0.0000 
    143 DU         16.9100    8.7000  139.7300 H         7 CUB7        0.0000 
    144 DU         16.3900    7.5900  140.6000 H         7 CUB7        0.0000 
    145 DU         15.1100    8.3500  140.8000 H         7 CUB7        0.0000 
    146 DU         18.0200   10.4700  140.0600 H         7 CUB7        0.0000 
    147 DU         17.5000    9.3700  140.9300 H         7 CUB7        0.0000 
    148 DU         19.8800   10.3900  141.0600 H         7 CUB7        0.0000 
@<TRIPOS>BOND
@<TRIPOS>SUBSTRUCTURE
     1 SER1        1 GROUP   
     2 ALA2       20 GROUP   
     3 ASP3       43 GROUP   
     4 LYS4       67 GROUP   
     5 PHE5       74 GROUP   
     6 GLY6       94 GROUP   
     7 CUB7      120 GROUP   
@<TRIPOS>SET

