#    Name: 5yhw_5_DGT
#    Modification time : Fri May 22 19:19:20 2020

@<TRIPOS>MOLECULE
5yhw_5_DGT
   31    33     1     0     0
SMALL
NO_CHARGES


@<TRIPOS>ATOM
      1 PG        -43.9360   22.6400   32.5640 P.3       1 DGT703      0.0000 
      2 O1G       -45.1810   22.5780   33.4100 O.co2     1 DGT703      0.0000 
      3 O2G       -43.1410   23.8600   32.9440 O.co2     1 DGT703      0.0000 
      4 O3G       -44.2890   22.7100   31.1010 O.co2     1 DGT703      0.0000 
      5 O3B       -43.0320   21.3020   32.8480 O.3       1 DGT703      0.0000 
      6 PB        -43.6210   19.7710   32.8800 P.3       1 DGT703      0.0000 
      7 O1B       -45.0890   19.7910   33.2160 O.co2     1 DGT703      0.0000 
      8 O2B       -43.4190   19.1000   31.5460 O.co2     1 DGT703      0.0000 
      9 O3A       -42.8190   18.9350   34.0410 O.3       1 DGT703      0.0000 
     10 PA        -41.2490   18.4570   33.9140 P.3       1 DGT703      0.0000 
     11 O1A       -40.7030   18.2010   35.2970 O.co2     1 DGT703      0.0000 
     12 O2A       -41.1930   17.1870   33.1050 O.co2     1 DGT703      0.0000 
     13 O5'       -40.3510   19.6220   33.1710 O.3       1 DGT703      0.0000 
     14 C5'       -39.6750   20.5690   33.9480 C.3       1 DGT703      0.0000 
     15 C4'       -38.2960   20.1360   34.2350 C.3       1 DGT703      0.0000 
     16 O4'       -37.6250   19.3280   32.9400 O.3       1 DGT703      0.0000 
     17 C3'       -37.5220   21.1980   34.4580 C.3       1 DGT703      0.0000 
     18 O3'       -36.4450   20.8470   35.3840 O.3       1 DGT703      0.0000 
     19 C2'       -36.9300   21.5540   33.0670 C.3       1 DGT703      0.0000 
     20 C1'       -36.8430   20.1590   32.2970 C.3       1 DGT703      0.0000 
     21 N9        -37.3040   20.3240   30.9410 N.pl3     1 DGT703      0.0000 
     22 C8        -38.4010   20.4970   30.1830 C.2       1 DGT703      0.0000 
     23 N7        -37.9970   20.5730   28.9020 N.2       1 DGT703      0.0000 
     24 C5        -36.6730   20.4470   28.8790 C.2       1 DGT703      0.0000 
     25 C6        -35.6660   20.4550   27.7270 C.2       1 DGT703      0.0000 
     26 O6        -36.0460   20.5910   26.6170 O.2       1 DGT703      0.0000 
     27 N1        -34.2720   20.2960   27.9960 N.am      1 DGT703      0.0000 
     28 C2        -33.8140   20.1310   29.3520 C.2       1 DGT703      0.0000 
     29 N2        -32.3960   19.9720   29.6220 N.pl3     1 DGT703      0.0000 
     30 N3        -34.7800   20.1260   30.4480 N.2       1 DGT703      0.0000 
     31 C4        -36.2350   20.2900   30.1590 C.2       1 DGT703      0.0000 
@<TRIPOS>BOND
     1    1    2 ar   
     2    1    3 ar   
     3    1    4 ar   
     4    1    5 1    
     5    5    6 1    
     6    6    7 ar   
     7    6    8 ar   
     8    6    9 1    
     9    9   10 1    
    10   10   11 ar   
    11   10   12 ar   
    12   10   13 1    
    13   13   14 1    
    14   14   15 1    
    15   15   16 1    
    16   15   17 1    
    17   16   20 1    
    18   17   18 1    
    19   17   19 1    
    20   19   20 1    
    21   20   21 1    
    22   21   22 1    
    23   21   31 1    
    24   22   23 2    
    25   23   24 1    
    26   24   25 1    
    27   24   31 2    
    28   25   26 2    
    29   25   27 am   
    30   27   28 1    
    31   28   29 1    
    32   28   30 2    
    33   30   31 1    
@<TRIPOS>SUBSTRUCTURE
     1 DGT703      1 GROUP   
@<TRIPOS>SET

