#    Name: 5yhw_20_DGT
#    Modification time : Fri May 22 19:21:43 2020

@<TRIPOS>MOLECULE
5yhw_20_DGT
   31    33     1     0     0
SMALL
NO_CHARGES


@<TRIPOS>ATOM
      1 PG          8.5980   19.5620  101.4370 P.3       1 DGT704      0.0000 
      2 O1G         7.4980   20.4730  100.9480 O.co2     1 DGT704      0.0000 
      3 O2G         8.0980   18.1380  101.4650 O.co2     1 DGT704      0.0000 
      4 O3G         9.8080   19.6790  100.5360 O.co2     1 DGT704      0.0000 
      5 O3B         9.0480   20.0240  102.9450 O.3       1 DGT704      0.0000 
      6 PB          9.5560   21.5540  103.2550 P.3       1 DGT704      0.0000 
      7 O1B         8.3590   22.4730  103.2560 O.co2     1 DGT704      0.0000 
      8 O2B        10.5440   21.9890  102.2000 O.co2     1 DGT704      0.0000 
      9 O3A        10.2680   21.6090  104.7310 O.3       1 DGT704      0.0000 
     10 PA          9.5420   21.0940  106.1170 P.3       1 DGT704      0.0000 
     11 O1A         9.2790   22.2900  107.0050 O.co2     1 DGT704      0.0000 
     12 O2A        10.4880   20.1380  106.8120 O.co2     1 DGT704      0.0000 
     13 O5'         8.1300   20.3120  105.7740 O.3       1 DGT704      0.0000 
     14 C5'         7.9800   18.9880  106.2040 C.3       1 DGT704      0.0000 
     15 C4'         7.6780   18.9660  107.6430 C.3       1 DGT704      0.0000 
     16 O4'         6.5850   20.1720  108.0070 O.3       1 DGT704      0.0000 
     17 C3'         7.1340   17.7960  107.9780 C.3       1 DGT704      0.0000 
     18 O3'         7.6810   17.3290  109.2580 O.3       1 DGT704      0.0000 
     19 C2'         5.6040   18.0620  108.0980 C.3       1 DGT704      0.0000 
     20 C1'         5.4580   19.6250  108.3870 C.3       1 DGT704      0.0000 
     21 N9          4.3650   20.1710  107.6140 N.pl3     1 DGT704      0.0000 
     22 C8          4.0290   20.6300  106.3940 C.2       1 DGT704      0.0000 
     23 N7          2.7300   20.9900  106.4400 N.2       1 DGT704      0.0000 
     24 C5          2.2800   20.7560  107.6670 C.2       1 DGT704      0.0000 
     25 C6          0.9050   20.9660  108.2980 C.2       1 DGT704      0.0000 
     26 O6          0.0230   21.4110  107.6440 O.2       1 DGT704      0.0000 
     27 N1          0.6870   20.6210  109.6710 N.am      1 DGT704      0.0000 
     28 C2          1.7690   20.0790  110.4520 C.2       1 DGT704      0.0000 
     29 N2          1.5500   19.7290  111.8450 N.pl3     1 DGT704      0.0000 
     30 N3          3.0830   19.8830  109.8380 N.2       1 DGT704      0.0000 
     31 C4          3.3010   20.2420  108.4080 C.2       1 DGT704      0.0000 
@<TRIPOS>BOND
     1    1    2 ar   
     2    1    3 ar   
     3    1    4 ar   
     4    1    5 1    
     5    5    6 1    
     6    6    7 ar   
     7    6    8 ar   
     8    6    9 1    
     9    9   10 1    
    10   10   11 ar   
    11   10   12 ar   
    12   10   13 1    
    13   13   14 1    
    14   14   15 1    
    15   15   16 1    
    16   15   17 1    
    17   16   20 1    
    18   17   18 1    
    19   17   19 1    
    20   19   20 1    
    21   20   21 1    
    22   21   22 1    
    23   21   31 1    
    24   22   23 2    
    25   23   24 1    
    26   24   25 1    
    27   24   31 2    
    28   25   26 2    
    29   25   27 am   
    30   27   28 1    
    31   28   29 1    
    32   28   30 2    
    33   30   31 1    
@<TRIPOS>SUBSTRUCTURE
     1 DGT704      1 GROUP   
@<TRIPOS>SET

