#    Name: 5yhw_5_DGT_CAVITY_N1_4
#    Modification time : Fri May 22 19:19:21 2020

@<TRIPOS>MOLECULE
5yhw_5_DGT_CAVITY_N1_4
  110     0     7     0     0
SMALL
NO_CHARGES


@<TRIPOS>ATOM
      1 OG        -38.9100   19.1200   26.7600 O.3       1 SER1        0.0000 
      2 OG        -40.1900   19.8800   26.9600 O.3       1 SER1        0.0000 
      3 OG        -38.3200   19.7900   27.9600 O.3       1 SER1        0.0000 
      4 OG        -39.6000   20.5500   28.1700 O.3       1 SER1        0.0000 
      5 OG        -43.7100   18.7400   31.1900 O.3       1 SER1        0.0000 
      6 OG        -41.3200   19.7600   31.3200 O.3       1 SER1        0.0000 
      7 OG        -43.1200   19.4200   32.3900 O.3       1 SER1        0.0000 
      8 OG        -42.3600   17.5500   33.0600 O.3       1 SER1        0.0000 
      9 OG        -43.6400   18.3100   33.2600 O.3       1 SER1        0.0000 
     10 OG        -38.9400   20.7800   31.4500 O.3       1 SER1        0.0000 
     11 OG        -39.4600   19.6800   32.3200 O.3       1 SER1        0.0000 
     12 OG        -40.7300   20.4400   32.5200 O.3       1 SER1        0.0000 
     13 OG        -42.0100   21.1900   32.7200 O.3       1 SER1        0.0000 
     14 OG        -43.2900   21.9500   32.9300 O.3       1 SER1        0.0000 
     15 OG        -41.2500   19.3300   33.3900 O.3       1 SER1        0.0000 
     16 OG        -41.7700   18.2200   34.2600 O.3       1 SER1        0.0000 
     17 OG        -38.8700   20.3500   33.5200 O.3       1 SER1        0.0000 
     18 OG        -42.7000   22.6200   34.1300 O.3       1 SER1        0.0000 
     19 O         -36.6700   21.0100   22.7400 O.2       2 ALA2        0.0000 
     20 N         -36.4300   18.0400   24.2800 N.am      2 ALA2        0.0000 
     21 N         -38.2300   17.6900   25.3500 N.am      2 ALA2        0.0000 
     22 O         -35.3200   19.8100   24.6100 O.2       2 ALA2        0.0000 
     23 N         -36.6000   20.5700   24.8100 N.am      2 ALA2        0.0000 
     24 N         -37.8800   21.3300   25.0200 N.am      2 ALA2        0.0000 
     25 N         -39.1600   22.0900   25.2200 N.am      2 ALA2        0.0000 
     26 N         -35.8400   18.7100   25.4800 N.am      2 ALA2        0.0000 
     27 N         -38.4000   20.2200   25.8900 N.am      2 ALA2        0.0000 
     28 N         -33.4500   19.7300   25.6100 N.am      2 ALA2        0.0000 
     29 N         -34.7300   20.4900   25.8100 N.am      2 ALA2        0.0000 
     30 N         -38.5700   22.7600   26.4300 N.am      2 ALA2        0.0000 
     31 N         -36.5300   20.1400   26.8900 N.am      2 ALA2        0.0000 
     32 N         -37.8100   20.9000   27.0900 N.am      2 ALA2        0.0000 
     33 N         -34.6600   20.0500   27.8900 N.am      2 ALA2        0.0000 
     34 N         -35.9400   20.8100   28.0900 N.am      2 ALA2        0.0000 
     35 N         -32.7900   19.9600   28.8900 N.am      2 ALA2        0.0000 
     36 N         -34.0700   20.7200   29.0900 N.am      2 ALA2        0.0000 
     37 N         -33.3100   18.8600   29.7600 N.am      2 ALA2        0.0000 
     38 N         -32.2000   20.6400   30.0900 N.am      2 ALA2        0.0000 
     39 N         -32.7200   19.5300   30.9700 N.am      2 ALA2        0.0000 
     40 O         -37.0000   20.2600   34.5200 O.2       2 ALA2        0.0000 
     41 O         -38.7900   19.9100   35.6000 O.2       2 ALA2        0.0000 
     42 OD1       -35.9100   19.1400   23.4100 O.co2     3 ASP3        0.0000 
     43 OD1       -34.0400   19.0600   24.4100 O.co2     3 ASP3        0.0000 
     44 OD1       -34.5600   17.9500   25.2800 O.co2     3 ASP3        0.0000 
     45 OD1       -45.2300   22.4700   29.8500 O.co2     3 ASP3        0.0000 
     46 OD1       -45.7500   21.3700   30.7200 O.co2     3 ASP3        0.0000 
     47 OD1       -44.9900   19.5000   31.3900 O.co2     3 ASP3        0.0000 
     48 OD1       -46.7800   19.1500   32.4600 O.co2     3 ASP3        0.0000 
     49 OD1       -43.3600   22.3900   30.8500 O.co2     3 ASP3        0.0000 
     50 OD1       -43.8800   21.2800   31.7200 O.co2     3 ASP3        0.0000 
     51 OD1       -45.1600   22.0400   31.9300 O.co2     3 ASP3        0.0000 
     52 OD1       -44.4000   20.1700   32.5900 O.co2     3 ASP3        0.0000 
     53 OD1       -44.9200   19.0700   33.4600 O.co2     3 ASP3        0.0000 
     54 OD1       -44.5700   22.7100   33.1300 O.co2     3 ASP3        0.0000 
     55 OD1       -43.8100   20.8500   33.8000 O.co2     3 ASP3        0.0000 
     56 OD1       -43.0500   18.9800   34.4700 O.co2     3 ASP3        0.0000 
     57 OD1       -44.3300   19.7400   34.6700 O.co2     3 ASP3        0.0000 
     58 OD1       -37.5900   19.5900   33.3200 O.co2     3 ASP3        0.0000 
     59 OD1       -39.3800   19.2400   34.3900 O.co2     3 ASP3        0.0000 
     60 NZ        -46.8600   19.5900   30.3900 N.4       4 LYS4        0.0000 
     61 NZ        -33.9700   18.6200   26.4800 N.4       4 LYS4        0.0000 
     62 NZ        -45.5100   18.4000   32.2600 N.4       4 LYS4        0.0000 
     63 NZ        -33.3800   19.2900   27.6900 N.4       4 LYS4        0.0000 
     64 NZ        -32.6200   17.4300   28.3500 N.4       4 LYS4        0.0000 
     65 NZ        -42.5300   20.0900   33.5900 N.4       4 LYS4        0.0000 
     66 NZ        -41.9400   20.7600   34.8000 N.4       4 LYS4        0.0000 
     67 NZ        -41.1800   18.8900   35.4700 N.4       4 LYS4        0.0000 
     68 CZ        -39.0800   21.6500   27.3000 C.ar      5 PHE5        0.0000 
     69 CZ        -40.3600   22.4100   27.5000 C.ar      5 PHE5        0.0000 
     70 CZ        -43.1900   19.8500   30.3200 C.ar      5 PHE5        0.0000 
     71 CZ        -37.2200   21.5700   28.3000 C.ar      5 PHE5        0.0000 
     72 CZ        -37.7300   20.4600   29.1700 C.ar      5 PHE5        0.0000 
     73 CZ        -39.0100   21.2200   29.3700 C.ar      5 PHE5        0.0000 
     74 CZ        -39.5300   20.1100   30.2400 C.ar      5 PHE5        0.0000 
     75 CZ        -42.6000   20.5200   31.5200 C.ar      5 PHE5        0.0000 
     76 CZ        -36.6200   22.2400   29.5000 C.ar      5 PHE5        0.0000 
     77 CZ        -37.1400   21.1300   30.3700 C.ar      5 PHE5        0.0000 
     78 CZ        -38.4200   21.8900   30.5800 C.ar      5 PHE5        0.0000 
     79 CZ        -37.6600   20.0300   31.2400 C.ar      5 PHE5        0.0000 
     80 CZ        -35.2700   21.0500   31.3700 C.ar      5 PHE5        0.0000 
     81 CZ        -36.5500   21.8000   31.5800 C.ar      5 PHE5        0.0000 
     82 CZ        -37.8300   22.5600   31.7800 C.ar      5 PHE5        0.0000 
     83 CZ        -40.1400   21.1100   33.7200 C.ar      5 PHE5        0.0000 
     84 CZ        -41.4200   21.8700   33.9300 C.ar      5 PHE5        0.0000 
     85 CZ        -40.6600   20.0000   34.6000 C.ar      5 PHE5        0.0000 
     86 CZ        -37.7600   22.1300   33.8500 C.ar      5 PHE5        0.0000 
     87 CZ        -38.2800   21.0200   34.7300 C.ar      5 PHE5        0.0000 
     88 CA        -37.6300   18.3600   26.5600 C.3       6 GLY6        0.0000 
     89 CA        -35.2500   19.3800   26.6900 C.3       6 GLY6        0.0000 
     90 CA        -34.4900   17.5100   27.3500 C.3       6 GLY6        0.0000 
     91 CA        -37.0400   19.0300   27.7600 C.3       6 GLY6        0.0000 
     92 CA        -33.9000   18.1900   28.5600 C.3       6 GLY6        0.0000 
     93 CA        -35.1800   18.9400   28.7600 C.3       6 GLY6        0.0000 
     94 CA        -36.4500   19.7000   28.9600 C.3       6 GLY6        0.0000 
     95 CA        -35.3500   21.4800   29.3000 C.3       6 GLY6        0.0000 
     96 CA        -33.4800   21.3900   30.3000 C.3       6 GLY6        0.0000 
     97 CA        -34.0000   20.2900   31.1700 C.3       6 GLY6        0.0000 
     98 CA        -35.7900   19.9400   32.2400 C.3       6 GLY6        0.0000 
     99 CA        -36.4800   21.3700   33.6500 C.3       6 GLY6        0.0000 
    100 DU        -37.1900   19.9000   23.6100 H         7 CUB7        0.0000 
    101 DU        -38.4700   20.6600   23.8100 H         7 CUB7        0.0000 
    102 DU        -37.7100   18.7900   24.4800 H         7 CUB7        0.0000 
    103 DU        -38.9900   19.5500   24.6800 H         7 CUB7        0.0000 
    104 DU        -37.1200   19.4700   25.6800 H         7 CUB7        0.0000 
    105 DU        -39.6700   20.9800   26.0900 H         7 CUB7        0.0000 
    106 DU        -44.4700   20.6100   30.5200 H         7 CUB7        0.0000 
    107 DU        -34.5900   19.6200   29.9600 H         7 CUB7        0.0000 
    108 DU        -35.8600   20.3700   30.1700 H         7 CUB7        0.0000 
    109 DU        -37.0700   20.7000   32.4500 H         7 CUB7        0.0000 
    110 DU        -38.3500   21.4600   32.6500 H         7 CUB7        0.0000 
@<TRIPOS>BOND
@<TRIPOS>SUBSTRUCTURE
     1 SER1        1 GROUP   
     2 ALA2       19 GROUP   
     3 ASP3       42 GROUP   
     4 LYS4       60 GROUP   
     5 PHE5       68 GROUP   
     6 GLY6       88 GROUP   
     7 CUB7      100 GROUP   
@<TRIPOS>SET

