#    Name: 5yhw_18_DGT
#    Modification time : Fri May 22 19:21:26 2020

@<TRIPOS>MOLECULE
5yhw_18_DGT
   31    33     1     0     0
SMALL
NO_CHARGES


@<TRIPOS>ATOM
      1 PG         30.0910  -18.9920  118.5020 P.3       1 DGT702      0.0000 
      2 O1G        31.1820  -19.2820  119.4960 O.co2     1 DGT702      0.0000 
      3 O2G        28.7960  -18.7470  119.2310 O.co2     1 DGT702      0.0000 
      4 O3G        30.4510  -17.7810  117.6810 O.co2     1 DGT702      0.0000 
      5 O3B        29.9190  -20.3060  117.5330 O.3       1 DGT702      0.0000 
      6 PB         30.5950  -20.4420  116.0450 P.3       1 DGT702      0.0000 
      7 O1B        31.7370  -19.4660  115.8880 O.co2     1 DGT702      0.0000 
      8 O2B        31.0970  -21.8520  115.8660 O.co2     1 DGT702      0.0000 
      9 O3A        29.4580  -20.0910  114.9220 O.3       1 DGT702      0.0000 
     10 PA         28.2970  -21.1470  114.4320 P.3       1 DGT702      0.0000 
     11 O1A        28.8560  -22.5510  114.4170 O.co2     1 DGT702      0.0000 
     12 O2A        27.8550  -20.7600  113.0430 O.co2     1 DGT702      0.0000 
     13 O5'        27.0190  -21.0760  115.4760 O.3       1 DGT702      0.0000 
     14 C5'        26.3010  -19.8820  115.6060 C.3       1 DGT702      0.0000 
     15 C4'        24.9810  -20.0060  114.9620 C.3       1 DGT702      0.0000 
     16 O4'        24.4160  -21.5680  115.0550 O.3       1 DGT702      0.0000 
     17 C3'        24.0750  -19.2510  115.5860 C.3       1 DGT702      0.0000 
     18 O3'        23.0420  -18.8230  114.6420 O.3       1 DGT702      0.0000 
     19 C2'        23.4360  -20.1760  116.6560 C.3       1 DGT702      0.0000 
     20 C1'        23.5660  -21.6410  116.0470 C.3       1 DGT702      0.0000 
     21 N9         24.1050  -22.5260  117.0420 N.pl3     1 DGT702      0.0000 
     22 C8         25.2170  -22.8130  117.7350 C.2       1 DGT702      0.0000 
     23 N7         24.9300  -23.8550  118.5360 N.2       1 DGT702      0.0000 
     24 C5         23.6630  -24.1990  118.3310 C.2       1 DGT702      0.0000 
     25 C6         22.7940  -25.2970  118.9480 C.2       1 DGT702      0.0000 
     26 O6         23.2530  -26.0160  119.7650 O.2       1 DGT702      0.0000 
     27 N1         21.4330  -25.4480  118.5350 N.am      1 DGT702      0.0000 
     28 C2         20.8890  -24.5630  117.5390 C.2       1 DGT702      0.0000 
     29 N2         19.5080  -24.7110  117.1210 N.pl3     1 DGT702      0.0000 
     30 N3         21.7230  -23.5170  116.9540 N.2       1 DGT702      0.0000 
     31 C4         23.1420  -23.3650  117.3910 C.2       1 DGT702      0.0000 
@<TRIPOS>BOND
     1    1    2 ar   
     2    1    3 ar   
     3    1    4 ar   
     4    1    5 1    
     5    5    6 1    
     6    6    7 ar   
     7    6    8 ar   
     8    6    9 1    
     9    9   10 1    
    10   10   11 ar   
    11   10   12 ar   
    12   10   13 1    
    13   13   14 1    
    14   14   15 1    
    15   15   16 1    
    16   15   17 1    
    17   16   20 1    
    18   17   18 1    
    19   17   19 1    
    20   19   20 1    
    21   20   21 1    
    22   21   22 1    
    23   21   31 1    
    24   22   23 2    
    25   23   24 1    
    26   24   25 1    
    27   24   31 2    
    28   25   26 2    
    29   25   27 am   
    30   27   28 1    
    31   28   29 1    
    32   28   30 2    
    33   30   31 1    
@<TRIPOS>SUBSTRUCTURE
     1 DGT702      1 GROUP   
@<TRIPOS>SET

