#    Name: 5yhw_9_DGT
#    Modification time : Fri May 22 19:20:02 2020

@<TRIPOS>MOLECULE
5yhw_9_DGT
   31    33     1     0     0
SMALL
NO_CHARGES


@<TRIPOS>ATOM
      1 PG          3.5540  -30.6630  125.6690 P.3       1 DGT705      0.0000 
      2 O1G         3.4480  -31.5480  126.8800 O.co2     1 DGT705      0.0000 
      3 O2G         3.6890  -29.2330  126.1020 O.co2     1 DGT705      0.0000 
      4 O3G         2.3370  -30.7730  124.8030 O.co2     1 DGT705      0.0000 
      5 O3B         4.8410  -31.1480  124.7780 O.3       1 DGT705      0.0000 
      6 PB          6.2720  -30.3620  124.6390 P.3       1 DGT705      0.0000 
      7 O1B         6.3130  -29.2140  125.6050 O.co2     1 DGT705      0.0000 
      8 O2B         7.3590  -31.3480  124.9510 O.co2     1 DGT705      0.0000 
      9 O3A         6.4730  -29.8140  123.1080 O.3       1 DGT705      0.0000 
     10 PA          5.4640  -28.7330  122.4090 P.3       1 DGT705      0.0000 
     11 O1A         4.7110  -28.0350  123.5020 O.co2     1 DGT705      0.0000 
     12 O2A         4.5180  -29.4550  121.5000 O.co2     1 DGT705      0.0000 
     13 O5'         6.3040  -27.6280  121.5410 O.3       1 DGT705      0.0000 
     14 C5'         6.8900  -26.5690  122.2360 C.3       1 DGT705      0.0000 
     15 C4'         6.4590  -25.2870  121.6680 C.3       1 DGT705      0.0000 
     16 O4'         6.8230  -25.2900  120.0570 O.3       1 DGT705      0.0000 
     17 C3'         5.1320  -25.1340  121.6990 C.3       1 DGT705      0.0000 
     18 O3'         4.6990  -24.5630  122.9780 O.3       1 DGT705      0.0000 
     19 C2'         4.8370  -24.1500  120.5220 C.3       1 DGT705      0.0000 
     20 C1'         6.1050  -24.3220  119.5500 C.3       1 DGT705      0.0000 
     21 N9          5.8730  -24.5960  118.1370 N.pl3     1 DGT705      0.0000 
     22 C8          6.2850  -24.1540  116.9380 C.2       1 DGT705      0.0000 
     23 N7          5.6970  -24.8890  115.9860 N.2       1 DGT705      0.0000 
     24 C5          4.9320  -25.7900  116.5820 C.2       1 DGT705      0.0000 
     25 C6          4.0340  -26.8870  115.9930 C.2       1 DGT705      0.0000 
     26 O6          3.9490  -27.0230  114.8210 O.2       1 DGT705      0.0000 
     27 N1          3.2980  -27.7470  116.8580 N.am      1 DGT705      0.0000 
     28 C2          3.4080  -27.5680  118.2790 C.2       1 DGT705      0.0000 
     29 N2          2.6640  -28.4260  119.1800 N.pl3     1 DGT705      0.0000 
     30 N3          4.2680  -26.5310  118.8240 N.2       1 DGT705      0.0000 
     31 C4          5.0420  -25.6220  117.9330 C.2       1 DGT705      0.0000 
@<TRIPOS>BOND
     1    1    2 ar   
     2    1    3 ar   
     3    1    4 ar   
     4    1    5 1    
     5    5    6 1    
     6    6    7 ar   
     7    6    8 ar   
     8    6    9 1    
     9    9   10 1    
    10   10   11 ar   
    11   10   12 ar   
    12   10   13 1    
    13   13   14 1    
    14   14   15 1    
    15   15   16 1    
    16   15   17 1    
    17   16   20 1    
    18   17   18 1    
    19   17   19 1    
    20   19   20 1    
    21   20   21 1    
    22   21   22 1    
    23   21   31 1    
    24   22   23 2    
    25   23   24 1    
    26   24   25 1    
    27   24   31 2    
    28   25   26 2    
    29   25   27 am   
    30   27   28 1    
    31   28   29 1    
    32   28   30 2    
    33   30   31 1    
@<TRIPOS>SUBSTRUCTURE
     1 DGT705      1 GROUP   
@<TRIPOS>SET

