#    Name: 5yhw_1_DGT_CAVITY_N1_4
#    Modification time : Fri May 22 19:18:35 2020

@<TRIPOS>MOLECULE
5yhw_1_DGT_CAVITY_N1_4
  125     0     7     0     0
SMALL
NO_CHARGES


@<TRIPOS>ATOM
      1 OG        -12.2200   13.2000   50.6100 O.3       1 SER1        0.0000 
      2 OG        -14.0200   12.8500   51.6800 O.3       1 SER1        0.0000 
      3 OG        -13.5300    6.9100   54.7600 O.3       1 SER1        0.0000 
      4 OG         -8.5600   13.4600   50.5300 O.3       1 SER1        0.0000 
      5 OG         -9.0700   12.3500   51.4000 O.3       1 SER1        0.0000 
      6 OG        -10.3500   13.1100   51.6100 O.3       1 SER1        0.0000 
      7 OG        -11.6300   13.8700   51.8100 O.3       1 SER1        0.0000 
      8 OG        -12.9100   14.6300   52.0200 O.3       1 SER1        0.0000 
      9 OG         -8.3100   10.4900   52.0700 O.3       1 SER1        0.0000 
     10 OG        -13.4300   13.5200   52.8900 O.3       1 SER1        0.0000 
     11 OG        -14.4600   11.3100   54.6300 O.3       1 SER1        0.0000 
     12 OG        -13.7000    9.4400   55.2900 O.3       1 SER1        0.0000 
     13 OG        -12.9400    7.5800   55.9600 O.3       1 SER1        0.0000 
     14 OG         -7.2100   12.2700   52.4000 O.3       1 SER1        0.0000 
     15 OG        -13.3500   13.0900   54.9600 O.3       1 SER1        0.0000 
     16 OG        -13.1100   10.1100   56.5000 O.3       1 SER1        0.0000 
     17 OG        -10.4500   15.2100   54.2200 O.3       1 SER1        0.0000 
     18 OG        -11.4900   13.0000   55.9600 O.3       1 SER1        0.0000 
     19 OG        -12.0000   11.8900   56.8300 O.3       1 SER1        0.0000 
     20 OG        -12.5200   10.7900   57.7000 O.3       1 SER1        0.0000 
     21 N         -17.5100   10.0500   51.2200 N.am      2 ALA2        0.0000 
     22 N         -18.7900   10.8100   51.4200 N.am      2 ALA2        0.0000 
     23 N         -19.3100    9.7000   52.2900 N.am      2 ALA2        0.0000 
     24 N         -21.1000    9.3500   53.3700 N.am      2 ALA2        0.0000 
     25 O         -22.9000    9.0100   54.4400 O.2       2 ALA2        0.0000 
     26 N         -16.4000   11.8300   51.5500 N.am      2 ALA2        0.0000 
     27 N         -18.7200   10.3700   53.5000 N.am      2 ALA2        0.0000 
     28 N         -17.9600    8.5100   54.1600 N.am      2 ALA2        0.0000 
     29 N         -19.2300    9.2700   54.3700 N.am      2 ALA2        0.0000 
     30 N         -20.5100   10.0300   54.5700 N.am      2 ALA2        0.0000 
     31 N         -19.7500    8.1600   55.2400 N.am      2 ALA2        0.0000 
     32 O         -14.2600   15.8200   50.1400 O.2       2 ALA2        0.0000 
     33 N         -16.8500   10.2900   54.5000 N.am      2 ALA2        0.0000 
     34 O         -16.0900    8.4200   55.1600 O.2       2 ALA2        0.0000 
     35 N         -17.3700    9.1800   55.3700 N.am      2 ALA2        0.0000 
     36 N         -16.6000    7.3200   56.0300 N.am      2 ALA2        0.0000 
     37 N         -17.8800    8.0800   56.2400 N.am      2 ALA2        0.0000 
     38 O         -14.9800   10.2000   55.5000 O.2       2 ALA2        0.0000 
     39 O         -16.2600   10.9600   55.7000 O.2       2 ALA2        0.0000 
     40 O         -14.2200    8.3400   56.1600 O.2       2 ALA2        0.0000 
     41 O         -14.7400    7.2300   57.0400 O.2       2 ALA2        0.0000 
     42 O         -16.0100    7.9900   57.2400 O.2       2 ALA2        0.0000 
     43 N         -15.2500    6.1200   57.9100 N.am      2 ALA2        0.0000 
     44 O         -14.3900   10.8700   56.7000 O.2       2 ALA2        0.0000 
     45 O         -13.6300    9.0100   57.3700 O.2       2 ALA2        0.0000 
     46 O         -14.1500    7.9000   58.2400 O.2       2 ALA2        0.0000 
     47 OD1       -15.3700   14.0400   49.8100 O.co2     3 ASP3        0.0000 
     48 OD1       -15.8900   12.9400   50.6800 O.co2     3 ASP3        0.0000 
     49 OD1       -15.9200    5.8900   54.6300 O.co2     3 ASP3        0.0000 
     50 OD1       -17.2000    6.6500   54.8300 O.co2     3 ASP3        0.0000 
     51 OD1       -17.7100    5.5400   55.7000 O.co2     3 ASP3        0.0000 
     52 OD1       -10.4300   13.5500   49.5300 O.co2     3 ASP3        0.0000 
     53 OD1       -11.7000   14.3000   49.7400 O.co2     3 ASP3        0.0000 
     54 OD1       -12.9800   15.0600   49.9400 O.co2     3 ASP3        0.0000 
     55 OD1       -13.5000   13.9600   50.8100 O.co2     3 ASP3        0.0000 
     56 OD1       -14.7800   14.7100   51.0100 O.co2     3 ASP3        0.0000 
     57 OD1       -15.8400    5.4500   56.7000 O.co2     3 ASP3        0.0000 
     58 OD1       -17.1200    6.2100   56.9100 O.co2     3 ASP3        0.0000 
     59 OD1        -9.3200   15.3200   49.8700 O.co2     3 ASP3        0.0000 
     60 OD1        -9.8400   14.2200   50.7400 O.co2     3 ASP3        0.0000 
     61 OD1        -9.2500   14.8900   51.9400 O.co2     3 ASP3        0.0000 
     62 OD1        -8.4800   13.0200   52.6100 O.co2     3 ASP3        0.0000 
     63 OD1        -8.6500   15.5600   53.1500 O.co2     3 ASP3        0.0000 
     64 OD1        -7.8900   13.7000   53.8100 O.co2     3 ASP3        0.0000 
     65 OD1        -9.1700   14.4500   54.0200 O.co2     3 ASP3        0.0000 
     66 OD1        -9.6900   13.3500   54.8900 O.co2     3 ASP3        0.0000 
     67 OD1       -10.9700   14.1100   55.0900 O.co2     3 ASP3        0.0000 
     68 OD1       -10.2100   12.2400   55.7600 O.co2     3 ASP3        0.0000 
     69 OD1        -8.0600   16.2300   54.3500 O.co2     3 ASP3        0.0000 
     70 OD1        -8.5800   15.1300   55.2200 O.co2     3 ASP3        0.0000 
     71 OD1        -9.8600   15.8800   55.4200 O.co2     3 ASP3        0.0000 
     72 OD1        -9.1000   14.0200   56.0900 O.co2     3 ASP3        0.0000 
     73 OD1        -9.6200   12.9100   56.9600 O.co2     3 ASP3        0.0000 
     74 NZ        -18.5500    7.8400   52.9600 N.4       4 LYS4        0.0000 
     75 NZ        -19.8200    8.6000   53.1600 N.4       4 LYS4        0.0000 
     76 NZ        -17.7900    5.9700   53.6300 N.4       4 LYS4        0.0000 
     77 NZ        -21.6200    8.2500   54.2400 N.4       4 LYS4        0.0000 
     78 NZ        -18.4700    7.4000   55.0300 N.4       4 LYS4        0.0000 
     79 NZ        -11.1900   15.4100   48.8700 N.4       4 LYS4        0.0000 
     80 NZ        -16.0600   15.4700   51.2200 N.4       4 LYS4        0.0000 
     81 NZ        -11.1100   14.9800   50.9400 N.4       4 LYS4        0.0000 
     82 CZ        -14.5300   11.7400   52.5500 C.ar      5 PHE5        0.0000 
     83 CZ        -15.8100   12.5000   52.7600 C.ar      5 PHE5        0.0000 
     84 CZ        -17.0900   13.2600   52.9600 C.ar      5 PHE5        0.0000 
     85 CZ        -15.0500   10.6400   53.4200 C.ar      5 PHE5        0.0000 
     86 CZ        -12.3900   15.7300   51.1400 C.ar      5 PHE5        0.0000 
     87 CZ        -14.1900   15.3900   52.2200 C.ar      5 PHE5        0.0000 
     88 CZ        -15.9800   15.0400   53.2900 C.ar      5 PHE5        0.0000 
     89 CZ        -13.9400   12.4100   53.7600 C.ar      5 PHE5        0.0000 
     90 CZ        -15.2200   13.1700   53.9600 C.ar      5 PHE5        0.0000 
     91 CZ        -10.5200   15.6500   52.1500 C.ar      5 PHE5        0.0000 
     92 CZ        -12.3200   15.3000   53.2200 C.ar      5 PHE5        0.0000 
     93 CZ         -9.0000   11.9200   53.4800 C.ar      5 PHE5        0.0000 
     94 CZ        -10.2800   12.6800   53.6800 C.ar      5 PHE5        0.0000 
     95 CZ        -11.5600   13.4300   53.8900 C.ar      5 PHE5        0.0000 
     96 CZ        -12.8400   14.1900   54.0900 C.ar      5 PHE5        0.0000 
     97 CZ        -14.1100   14.9500   54.2900 C.ar      5 PHE5        0.0000 
     98 CZ        -10.8000   11.5700   54.5500 C.ar      5 PHE5        0.0000 
     99 CZ        -12.0800   12.3300   54.7600 C.ar      5 PHE5        0.0000 
    100 CZ        -12.5900   11.2200   55.6300 C.ar      5 PHE5        0.0000 
    101 CZ         -9.9300   16.3200   53.3500 C.ar      5 PHE5        0.0000 
    102 CZ        -12.2500   14.8600   55.2900 C.ar      5 PHE5        0.0000 
    103 CA        -18.0300    8.9400   52.0900 C.3       6 GLY6        0.0000 
    104 CA        -17.2700    7.0800   52.7600 C.3       6 GLY6        0.0000 
    105 CA        -22.3800   10.1100   53.5700 C.3       6 GLY6        0.0000 
    106 CA        -17.6800   12.5900   51.7500 C.3       6 GLY6        0.0000 
    107 CA        -16.9200   10.7200   52.4200 C.3       6 GLY6        0.0000 
    108 CA        -18.2000   11.4800   52.6300 C.3       6 GLY6        0.0000 
    109 CA        -19.4800   12.2400   52.8300 C.3       6 GLY6        0.0000 
    110 CA        -17.4400    9.6200   53.2900 C.3       6 GLY6        0.0000 
    111 CA        -19.9900   11.1300   53.7000 C.3       6 GLY6        0.0000 
    112 CA        -16.6800    7.7500   53.9600 C.3       6 GLY6        0.0000 
    113 CA        -16.5700   14.3700   52.0900 C.3       6 GLY6        0.0000 
    114 CA        -16.3300   11.3900   53.6300 C.3       6 GLY6        0.0000 
    115 CA        -17.6100   12.1500   53.8300 C.3       6 GLY6        0.0000 
    116 CA        -15.5700    9.5300   54.2900 C.3       6 GLY6        0.0000 
    117 CA        -18.1300   11.0500   54.7000 C.3       6 GLY6        0.0000 
    118 CA        -14.8100    7.6700   54.9600 C.3       6 GLY6        0.0000 
    119 CA        -15.7400   12.0700   54.8300 C.3       6 GLY6        0.0000 
    120 DU        -15.3000   13.6100   51.8800 H         7 CUB7        0.0000 
    121 DU        -14.0500    5.8000   55.6300 H         7 CUB7        0.0000 
    122 DU        -15.3300    6.5600   55.8300 H         7 CUB7        0.0000 
    123 DU        -14.7000   14.2800   53.0900 H         7 CUB7        0.0000 
    124 DU         -9.7600   13.7800   52.8100 H         7 CUB7        0.0000 
    125 DU        -11.0400   14.5400   53.0200 H         7 CUB7        0.0000 
@<TRIPOS>BOND
@<TRIPOS>SUBSTRUCTURE
     1 SER1        1 GROUP   
     2 ALA2       21 GROUP   
     3 ASP3       47 GROUP   
     4 LYS4       74 GROUP   
     5 PHE5       82 GROUP   
     6 GLY6      103 GROUP   
     7 CUB7      120 GROUP   
@<TRIPOS>SET

