#    Name: 5yhw_10_DGT
#    Modification time : Fri May 22 19:20:14 2020

@<TRIPOS>MOLECULE
5yhw_10_DGT
   31    33     1     0     0
SMALL
NO_CHARGES


@<TRIPOS>ATOM
      1 PG        -13.6220   10.7410  114.6260 P.3       1 DGT706      0.0000 
      2 O1G       -13.9670    9.2910  114.8370 O.co2     1 DGT706      0.0000 
      3 O2G       -13.9120   11.5160  115.8880 O.co2     1 DGT706      0.0000 
      4 O3G       -14.3890   11.2960  113.4550 O.co2     1 DGT706      0.0000 
      5 O3B       -12.0330   10.8370  114.2280 O.3       1 DGT706      0.0000 
      6 PB        -10.8120   11.2930  115.2260 P.3       1 DGT706      0.0000 
      7 O1B       -11.3130   11.6950  116.5910 O.co2     1 DGT706      0.0000 
      8 O2B       -10.0750   12.4300  114.5710 O.co2     1 DGT706      0.0000 
      9 O3A        -9.8510    9.9770  115.4070 O.3       1 DGT706      0.0000 
     10 PA         -8.8770    9.3550  114.2430 P.3       1 DGT706      0.0000 
     11 O1A        -9.3820    8.0200  113.7720 O.co2     1 DGT706      0.0000 
     12 O2A        -8.7900   10.2870  113.0670 O.co2     1 DGT706      0.0000 
     13 O5'        -7.3940    9.1620  114.9020 O.3       1 DGT706      0.0000 
     14 C5'        -7.2570    8.5300  116.1400 C.3       1 DGT706      0.0000 
     15 C4'        -5.8320    8.2320  116.3470 C.3       1 DGT706      0.0000 
     16 O4'        -5.2160    7.5020  114.9870 O.3       1 DGT706      0.0000 
     17 C3'        -5.1490    9.3630  116.5500 C.3       1 DGT706      0.0000 
     18 O3'        -4.1730    9.1780  117.6300 O.3       1 DGT706      0.0000 
     19 C2'        -4.4360    9.6960  115.2050 C.3       1 DGT706      0.0000 
     20 C1'        -4.3710    8.3170  114.4060 C.3       1 DGT706      0.0000 
     21 N9         -4.7680    8.4830  113.0270 N.pl3     1 DGT706      0.0000 
     22 C8         -5.4840    9.2450  112.1840 C.2       1 DGT706      0.0000 
     23 N7         -5.3740    8.7010  110.9560 N.2       1 DGT706      0.0000 
     24 C5         -4.6060    7.6220  111.0480 C.2       1 DGT706      0.0000 
     25 C6         -4.1350    6.6150  110.0030 C.2       1 DGT706      0.0000 
     26 O6         -4.4720    6.7440  108.8760 O.2       1 DGT706      0.0000 
     27 N1         -3.2930    5.5250  110.3850 N.am      1 DGT706      0.0000 
     28 C2         -2.8970    5.3820  111.7580 C.2       1 DGT706      0.0000 
     29 N2         -2.0490    4.2820  112.1660 N.pl3     1 DGT706      0.0000 
     30 N3         -3.3490    6.3460  112.7460 N.2       1 DGT706      0.0000 
     31 C4         -4.2250    7.4820  112.3430 C.2       1 DGT706      0.0000 
@<TRIPOS>BOND
     1    1    2 ar   
     2    1    3 ar   
     3    1    4 ar   
     4    1    5 1    
     5    5    6 1    
     6    6    7 ar   
     7    6    8 ar   
     8    6    9 1    
     9    9   10 1    
    10   10   11 ar   
    11   10   12 ar   
    12   10   13 1    
    13   13   14 1    
    14   14   15 1    
    15   15   16 1    
    16   15   17 1    
    17   16   20 1    
    18   17   18 1    
    19   17   19 1    
    20   19   20 1    
    21   20   21 1    
    22   21   22 1    
    23   21   31 1    
    24   22   23 2    
    25   23   24 1    
    26   24   25 1    
    27   24   31 2    
    28   25   26 2    
    29   25   27 am   
    30   27   28 1    
    31   28   29 1    
    32   28   30 2    
    33   30   31 1    
@<TRIPOS>SUBSTRUCTURE
     1 DGT706      1 GROUP   
@<TRIPOS>SET

