#    Name: 5yhw_13_DGT
#    Modification time : Fri May 22 19:20:42 2020

@<TRIPOS>MOLECULE
5yhw_13_DGT
   31    33     1     0     0
SMALL
NO_CHARGES


@<TRIPOS>ATOM
      1 PG         -5.3090   51.2780   61.5030 P.3       1 DGT705      0.0000 
      2 O1G        -3.9080   51.2410   62.0380 O.co2     1 DGT705      0.0000 
      3 O2G        -5.5540   50.0070   60.7410 O.co2     1 DGT705      0.0000 
      4 O3G        -5.4990   52.4580   60.5900 O.co2     1 DGT705      0.0000 
      5 O3B        -6.3330   51.4380   62.7780 O.3       1 DGT705      0.0000 
      6 PB         -7.6150   50.4810   63.1580 P.3       1 DGT705      0.0000 
      7 O1B        -7.7110   50.3930   64.6540 O.co2     1 DGT705      0.0000 
      8 O2B        -7.4430   49.0910   62.6080 O.co2     1 DGT705      0.0000 
      9 O3A        -8.9780   51.1820   62.5750 O.3       1 DGT705      0.0000 
     10 PA         -9.5210   50.9740   61.0450 P.3       1 DGT705      0.0000 
     11 O1A        -9.7280   52.3080   60.3900 O.co2     1 DGT705      0.0000 
     12 O2A        -8.5170   50.1700   60.2680 O.co2     1 DGT705      0.0000 
     13 O5'       -10.9550   50.1790   61.0930 O.3       1 DGT705      0.0000 
     14 C5'       -10.9330   48.7860   61.1440 C.3       1 DGT705      0.0000 
     15 C4'       -11.6800   48.2420   60.0040 C.3       1 DGT705      0.0000 
     16 O4'       -13.1090   49.0570   59.8320 O.3       1 DGT705      0.0000 
     17 C3'       -11.0530   48.4690   58.8500 C.3       1 DGT705      0.0000 
     18 O3'       -10.0950   47.3920   58.5840 O.3       1 DGT705      0.0000 
     19 C2'       -12.1960   48.4680   57.7880 C.3       1 DGT705      0.0000 
     20 C1'       -13.5270   48.6840   58.6570 C.3       1 DGT705      0.0000 
     21 N9        -14.4870   49.6470   58.1510 N.pl3     1 DGT705      0.0000 
     22 C8        -15.7850   49.7330   57.8150 C.2       1 DGT705      0.0000 
     23 N7        -16.0350   50.9960   57.4320 N.2       1 DGT705      0.0000 
     24 C5        -14.9090   51.6870   57.5390 C.2       1 DGT705      0.0000 
     25 C6        -14.6020   53.1590   57.2440 C.2       1 DGT705      0.0000 
     26 O6        -15.4560   53.8740   56.8500 O.2       1 DGT705      0.0000 
     27 N1        -13.2860   53.6720   57.4420 N.am      1 DGT705      0.0000 
     28 C2        -12.2570   52.7950   57.9230 C.2       1 DGT705      0.0000 
     29 N2        -10.9130   53.2990   58.1340 N.pl3     1 DGT705      0.0000 
     30 N3        -12.5610   51.3980   58.2060 N.2       1 DGT705      0.0000 
     31 C4        -13.9310   50.8510   57.9960 C.2       1 DGT705      0.0000 
@<TRIPOS>BOND
     1    1    2 ar   
     2    1    3 ar   
     3    1    4 ar   
     4    1    5 1    
     5    5    6 1    
     6    6    7 ar   
     7    6    8 ar   
     8    6    9 1    
     9    9   10 1    
    10   10   11 ar   
    11   10   12 ar   
    12   10   13 1    
    13   13   14 1    
    14   14   15 1    
    15   15   16 1    
    16   15   17 1    
    17   16   20 1    
    18   17   18 1    
    19   17   19 1    
    20   19   20 1    
    21   20   21 1    
    22   21   22 1    
    23   21   31 1    
    24   22   23 2    
    25   23   24 1    
    26   24   25 1    
    27   24   31 2    
    28   25   26 2    
    29   25   27 am   
    30   27   28 1    
    31   28   29 1    
    32   28   30 2    
    33   30   31 1    
@<TRIPOS>SUBSTRUCTURE
     1 DGT705      1 GROUP   
@<TRIPOS>SET

