#    Name: 5yhw_11_DGT
#    Modification time : Fri May 22 19:20:27 2020

@<TRIPOS>MOLECULE
5yhw_11_DGT
   31    33     1     0     0
SMALL
NO_CHARGES


@<TRIPOS>ATOM
      1 PG        -33.7120    8.7520   64.1180 P.3       1 DGT701      0.0000 
      2 O1G       -33.3370    7.9900   65.3600 O.co2     1 DGT701      0.0000 
      3 O2G       -34.4950    9.9770   64.4800 O.co2     1 DGT701      0.0000 
      4 O3G       -34.5730    7.8840   63.2460 O.co2     1 DGT701      0.0000 
      5 O3B       -32.3480    9.1690   63.2880 O.3       1 DGT701      0.0000 
      6 PB        -32.3410    9.6360   61.7100 P.3       1 DGT701      0.0000 
      7 O1B       -30.9800    9.4210   61.1100 O.co2     1 DGT701      0.0000 
      8 O2B       -33.3730    8.8410   60.9630 O.co2     1 DGT701      0.0000 
      9 O3A       -32.7790   11.2130   61.6150 O.3       1 DGT701      0.0000 
     10 PA        -31.7850   12.4830   61.3270 P.3       1 DGT701      0.0000 
     11 O1A       -32.3150   13.6870   62.0550 O.co2     1 DGT701      0.0000 
     12 O2A       -30.3890   12.1770   61.7860 O.co2     1 DGT701      0.0000 
     13 O5'       -31.7750   12.8020   59.7200 O.3       1 DGT701      0.0000 
     14 C5'       -32.9280   13.3300   59.1330 C.3       1 DGT701      0.0000 
     15 C4'       -32.5580   14.2040   58.0110 C.3       1 DGT701      0.0000 
     16 O4'       -31.7410   15.5210   58.6010 O.3       1 DGT701      0.0000 
     17 C3'       -31.7570   13.5750   57.1420 C.3       1 DGT701      0.0000 
     18 O3'       -32.1240   13.9270   55.7670 O.3       1 DGT701      0.0000 
     19 C2'       -30.3200   14.0940   57.4100 C.3       1 DGT701      0.0000 
     20 C1'       -30.5150   15.4930   58.1480 C.3       1 DGT701      0.0000 
     21 N9        -29.6370   15.5770   59.2850 N.pl3     1 DGT701      0.0000 
     22 C8        -29.0110   14.8260   60.2060 C.2       1 DGT701      0.0000 
     23 N7        -28.3570   15.6710   61.0180 N.2       1 DGT701      0.0000 
     24 C5        -28.5850   16.9120   60.6060 C.2       1 DGT701      0.0000 
     25 C6        -28.1000   18.2540   61.1420 C.2       1 DGT701      0.0000 
     26 O6        -27.4060   18.2800   62.0920 O.2       1 DGT701      0.0000 
     27 N1        -28.4920   19.4670   60.5110 N.am      1 DGT701      0.0000 
     28 C2        -29.3510   19.4160   59.3630 C.2       1 DGT701      0.0000 
     29 N2        -29.7340   20.6630   58.7320 N.pl3     1 DGT701      0.0000 
     30 N3        -29.8150   18.1290   58.8500 N.2       1 DGT701      0.0000 
     31 C4        -29.3940   16.8650   59.5190 C.2       1 DGT701      0.0000 
@<TRIPOS>BOND
     1    1    2 ar   
     2    1    3 ar   
     3    1    4 ar   
     4    1    5 1    
     5    5    6 1    
     6    6    7 ar   
     7    6    8 ar   
     8    6    9 1    
     9    9   10 1    
    10   10   11 ar   
    11   10   12 ar   
    12   10   13 1    
    13   13   14 1    
    14   14   15 1    
    15   15   16 1    
    16   15   17 1    
    17   16   20 1    
    18   17   18 1    
    19   17   19 1    
    20   19   20 1    
    21   20   21 1    
    22   21   22 1    
    23   21   31 1    
    24   22   23 2    
    25   23   24 1    
    26   24   25 1    
    27   24   31 2    
    28   25   26 2    
    29   25   27 am   
    30   27   28 1    
    31   28   29 1    
    32   28   30 2    
    33   30   31 1    
@<TRIPOS>SUBSTRUCTURE
     1 DGT701      1 GROUP   
@<TRIPOS>SET

