#    Name: 5yhw_19_DGT
#    Modification time : Fri May 22 19:21:39 2020

@<TRIPOS>MOLECULE
5yhw_19_DGT
   31    33     1     0     0
SMALL
NO_CHARGES


@<TRIPOS>ATOM
      1 PG         19.9430   -4.9240   87.1220 P.3       1 DGT702      0.0000 
      2 O1G        20.7670   -4.2060   88.1530 O.co2     1 DGT702      0.0000 
      3 O2G        20.7660   -5.9810   86.4380 O.co2     1 DGT702      0.0000 
      4 O3G        19.4340   -3.8960   86.1520 O.co2     1 DGT702      0.0000 
      5 O3B        18.6580   -5.6400   87.8330 O.3       1 DGT702      0.0000 
      6 PB         18.8100   -6.5220   89.2010 P.3       1 DGT702      0.0000 
      7 O1B        17.6500   -7.4650   89.3270 O.co2     1 DGT702      0.0000 
      8 O2B        20.1040   -7.2880   89.1390 O.co2     1 DGT702      0.0000 
      9 O3A        18.8520   -5.4600   90.4420 O.3       1 DGT702      0.0000 
     10 PA         17.6480   -5.2320   91.5170 P.3       1 DGT702      0.0000 
     11 O1A        17.8190   -3.8690   92.1280 O.co2     1 DGT702      0.0000 
     12 O2A        16.3160   -5.2860   90.8280 O.co2     1 DGT702      0.0000 
     13 O5'        17.7280   -6.3960   92.6800 O.3       1 DGT702      0.0000 
     14 C5'        18.7720   -6.3420   93.6140 C.3       1 DGT702      0.0000 
     15 C4'        18.3270   -6.6510   94.9890 C.3       1 DGT702      0.0000 
     16 O4'        17.2610   -5.5040   95.5590 O.3       1 DGT702      0.0000 
     17 C3'        17.7150   -7.8370   95.0560 C.3       1 DGT702      0.0000 
     18 O3'        18.1050   -8.5500   96.2790 O.3       1 DGT702      0.0000 
     19 C2'        16.1910   -7.5330   95.1200 C.3       1 DGT702      0.0000 
     20 C1'        16.0770   -6.0480   95.6790 C.3       1 DGT702      0.0000 
     21 N9         15.1420   -5.2800   94.8950 N.pl3     1 DGT702      0.0000 
     22 C8         14.6060   -5.1380   93.6720 C.2       1 DGT702      0.0000 
     23 N7         13.7540   -4.0970   93.7270 N.2       1 DGT702      0.0000 
     24 C5         13.7740   -3.6090   94.9620 C.2       1 DGT702      0.0000 
     25 C6         13.0290   -2.4440   95.6140 C.2       1 DGT702      0.0000 
     26 O6         12.2740   -1.7980   94.9780 O.2       1 DGT702      0.0000 
     27 N1         13.2480   -2.1340   96.9880 N.am      1 DGT702      0.0000 
     28 C2         14.1700   -2.9240   97.7560 C.2       1 DGT702      0.0000 
     29 N2         14.3930   -2.6090   99.1530 N.pl3     1 DGT702      0.0000 
     30 N3         14.8790   -4.0350   97.1320 N.2       1 DGT702      0.0000 
     31 C4         14.6460   -4.3500   95.6960 C.2       1 DGT702      0.0000 
@<TRIPOS>BOND
     1    1    2 ar   
     2    1    3 ar   
     3    1    4 ar   
     4    1    5 1    
     5    5    6 1    
     6    6    7 ar   
     7    6    8 ar   
     8    6    9 1    
     9    9   10 1    
    10   10   11 ar   
    11   10   12 ar   
    12   10   13 1    
    13   13   14 1    
    14   14   15 1    
    15   15   16 1    
    16   15   17 1    
    17   16   20 1    
    18   17   18 1    
    19   17   19 1    
    20   19   20 1    
    21   20   21 1    
    22   21   22 1    
    23   21   31 1    
    24   22   23 2    
    25   23   24 1    
    26   24   25 1    
    27   24   31 2    
    28   25   26 2    
    29   25   27 am   
    30   27   28 1    
    31   28   29 1    
    32   28   30 2    
    33   30   31 1    
@<TRIPOS>SUBSTRUCTURE
     1 DGT702      1 GROUP   
@<TRIPOS>SET

