#    Name: 5yhw_3_DGT
#    Modification time : Fri May 22 19:19:02 2020

@<TRIPOS>MOLECULE
5yhw_3_DGT
   31    33     1     0     0
SMALL
NO_CHARGES


@<TRIPOS>ATOM
      1 PG         -5.8120   45.7850   61.6370 P.3       1 DGT704      0.0000 
      2 O1G        -5.7950   47.2800   61.4540 O.co2     1 DGT704      0.0000 
      3 O2G        -4.7940   45.3170   62.6400 O.co2     1 DGT704      0.0000 
      4 O3G        -5.5200   45.1070   60.3280 O.co2     1 DGT704      0.0000 
      5 O3B        -7.2720   45.3410   62.2310 O.3       1 DGT704      0.0000 
      6 PB         -8.6670   45.7220   61.4760 P.3       1 DGT704      0.0000 
      7 O1B        -9.7630   45.9090   62.4850 O.co2     1 DGT704      0.0000 
      8 O2B        -8.5120   46.9620   60.6420 O.co2     1 DGT704      0.0000 
      9 O3A        -8.9120   44.4380   60.4950 O.3       1 DGT704      0.0000 
     10 PA        -10.2830   43.5620   60.3780 P.3       1 DGT704      0.0000 
     11 O1A       -10.8220   43.2570   61.7450 O.co2     1 DGT704      0.0000 
     12 O2A        -9.8960   42.2830   59.7080 O.co2     1 DGT704      0.0000 
     13 O5'       -11.3940   44.4310   59.5210 O.3       1 DGT704      0.0000 
     14 C5'       -11.6430   44.1700   58.1680 C.3       1 DGT704      0.0000 
     15 C4'       -13.0860   43.9770   57.8840 C.3       1 DGT704      0.0000 
     16 O4'       -13.5040   42.3860   58.1220 O.3       1 DGT704      0.0000 
     17 C3'       -13.8920   44.7170   58.6580 C.3       1 DGT704      0.0000 
     18 O3'       -14.9800   45.2940   57.8650 O.3       1 DGT704      0.0000 
     19 C2'       -14.5110   43.7550   59.7060 C.3       1 DGT704      0.0000 
     20 C1'       -14.4130   42.3090   59.0560 C.3       1 DGT704      0.0000 
     21 N9        -13.9530   41.3510   60.0300 N.pl3     1 DGT704      0.0000 
     22 C8        -13.3020   41.2180   61.1960 C.2       1 DGT704      0.0000 
     23 N7        -13.2330   39.9010   61.4740 N.2       1 DGT704      0.0000 
     24 C5        -13.8300   39.2400   60.4880 C.2       1 DGT704      0.0000 
     25 C6        -14.0600   37.7480   60.2610 C.2       1 DGT704      0.0000 
     26 O6        -13.6600   36.9610   61.0480 O.2       1 DGT704      0.0000 
     27 N1        -14.7460   37.3050   59.0920 N.am      1 DGT704      0.0000 
     28 C2        -15.2090   38.2710   58.1320 C.2       1 DGT704      0.0000 
     29 N2        -15.9050   37.8210   56.9420 N.pl3     1 DGT704      0.0000 
     30 N3        -14.9930   39.6950   58.3560 N.2       1 DGT704      0.0000 
     31 C4        -14.2800   40.1460   59.5790 C.2       1 DGT704      0.0000 
@<TRIPOS>BOND
     1    1    2 ar   
     2    1    3 ar   
     3    1    4 ar   
     4    1    5 1    
     5    5    6 1    
     6    6    7 ar   
     7    6    8 ar   
     8    6    9 1    
     9    9   10 1    
    10   10   11 ar   
    11   10   12 ar   
    12   10   13 1    
    13   13   14 1    
    14   14   15 1    
    15   15   16 1    
    16   15   17 1    
    17   16   20 1    
    18   17   18 1    
    19   17   19 1    
    20   19   20 1    
    21   20   21 1    
    22   21   22 1    
    23   21   31 1    
    24   22   23 2    
    25   23   24 1    
    26   24   25 1    
    27   24   31 2    
    28   25   26 2    
    29   25   27 am   
    30   27   28 1    
    31   28   29 1    
    32   28   30 2    
    33   30   31 1    
@<TRIPOS>SUBSTRUCTURE
     1 DGT704      1 GROUP   
@<TRIPOS>SET

