#    Name: 5yhw_8_DGT
#    Modification time : Fri May 22 19:19:50 2020

@<TRIPOS>MOLECULE
5yhw_8_DGT
   31    33     1     0     0
SMALL
NO_CHARGES


@<TRIPOS>ATOM
      1 PG         23.0400   -9.4900   85.4560 P.3       1 DGT703      0.0000 
      2 O1G        22.8070   -8.2950   86.3360 O.co2     1 DGT703      0.0000 
      3 O2G        23.8650  -10.5460   86.1460 O.co2     1 DGT703      0.0000 
      4 O3G        23.7190   -9.0400   84.1920 O.co2     1 DGT703      0.0000 
      5 O3B        21.6040  -10.1470   85.0410 O.3       1 DGT703      0.0000 
      6 PB         20.3440  -10.2430   86.0800 P.3       1 DGT703      0.0000 
      7 O1B        20.1610   -8.9000   86.7460 O.co2     1 DGT703      0.0000 
      8 O2B        19.1330  -10.6030   85.2720 O.co2     1 DGT703      0.0000 
      9 O3A        20.6290  -11.4170   87.1960 O.3       1 DGT703      0.0000 
     10 PA         21.2880  -11.1360   88.6770 P.3       1 DGT703      0.0000 
     11 O1A        22.3660  -12.1580   88.8880 O.co2     1 DGT703      0.0000 
     12 O2A        21.8300   -9.7350   88.7210 O.co2     1 DGT703      0.0000 
     13 O5'        20.1650  -11.2960   89.8670 O.3       1 DGT703      0.0000 
     14 C5'        19.3510  -10.1940   90.1370 C.3       1 DGT703      0.0000 
     15 C4'        19.5440   -9.7640   91.5250 C.3       1 DGT703      0.0000 
     16 O4'        19.4570  -11.0750   92.5280 O.3       1 DGT703      0.0000 
     17 C3'        20.7830   -9.3060   91.7000 C.3       1 DGT703      0.0000 
     18 O3'        20.7970   -7.8550   91.4840 O.3       1 DGT703      0.0000 
     19 C2'        21.1830   -9.6700   93.1700 C.3       1 DGT703      0.0000 
     20 C1'        20.0370  -10.6850   93.6360 C.3       1 DGT703      0.0000 
     21 N9         20.3960  -11.8650   94.4040 N.pl3     1 DGT703      0.0000 
     22 C8         19.9820  -12.5220   95.4960 C.2       1 DGT703      0.0000 
     23 N7         20.7290  -13.6240   95.6410 N.2       1 DGT703      0.0000 
     24 C5         21.5930  -13.6620   94.6410 C.2       1 DGT703      0.0000 
     25 C6         22.6800  -14.6890   94.3070 C.2       1 DGT703      0.0000 
     26 O6         22.8410  -15.6280   95.0070 O.2       1 DGT703      0.0000 
     27 N1         23.4960  -14.5150   93.1550 N.am      1 DGT703      0.0000 
     28 C2         23.2840  -13.3690   92.3200 C.2       1 DGT703      0.0000 
     29 N2         24.1050  -13.1730   91.1440 N.pl3     1 DGT703      0.0000 
     30 N3         22.2420  -12.4020   92.6430 N.2       1 DGT703      0.0000 
     31 C4         21.3850  -12.5680   93.8490 C.2       1 DGT703      0.0000 
@<TRIPOS>BOND
     1    1    2 ar   
     2    1    3 ar   
     3    1    4 ar   
     4    1    5 1    
     5    5    6 1    
     6    6    7 ar   
     7    6    8 ar   
     8    6    9 1    
     9    9   10 1    
    10   10   11 ar   
    11   10   12 ar   
    12   10   13 1    
    13   13   14 1    
    14   14   15 1    
    15   15   16 1    
    16   15   17 1    
    17   16   20 1    
    18   17   18 1    
    19   17   19 1    
    20   19   20 1    
    21   20   21 1    
    22   21   22 1    
    23   21   31 1    
    24   22   23 2    
    25   23   24 1    
    26   24   25 1    
    27   24   31 2    
    28   25   26 2    
    29   25   27 am   
    30   27   28 1    
    31   28   29 1    
    32   28   30 2    
    33   30   31 1    
@<TRIPOS>SUBSTRUCTURE
     1 DGT703      1 GROUP   
@<TRIPOS>SET

