#    Name: 5yhw_17_DGT_CAVITY_N1_4
#    Modification time : Fri May 22 19:21:22 2020

@<TRIPOS>MOLECULE
5yhw_17_DGT_CAVITY_N1_4
   76     0     6     0     0
SMALL
NO_CHARGES


@<TRIPOS>ATOM
      1 OG         26.4500    8.2100  124.1100 O.3       1 SER1        0.0000 
      2 OG         28.8400    9.2300  124.2400 O.3       1 SER1        0.0000 
      3 OG         27.5600    9.9900  124.4400 O.3       1 SER1        0.0000 
      4 OG         29.4300    9.9000  125.4400 O.3       1 SER1        0.0000 
      5 OG         28.1500   10.6600  125.6500 O.3       1 SER1        0.0000 
      6 N          28.1800    8.9900  120.9600 N.am      2 ALA2        0.0000 
      7 N          26.3800    8.6400  122.0300 N.am      2 ALA2        0.0000 
      8 O          25.1000    9.4000  122.2400 O.2       2 ALA2        0.0000 
      9 N          30.5600   10.0100  121.0900 N.am      2 ALA2        0.0000 
     10 N          26.7300   12.2900  121.7000 N.am      2 ALA2        0.0000 
     11 N          25.4500   13.0400  121.9000 N.am      2 ALA2        0.0000 
     12 N          28.7700    9.6600  122.1600 N.am      2 ALA2        0.0000 
     13 N          27.4900   10.4200  122.3700 N.am      2 ALA2        0.0000 
     14 N          26.2100   11.1800  122.5700 N.am      2 ALA2        0.0000 
     15 N          25.6900   10.0700  123.4400 N.am      2 ALA2        0.0000 
     16 N          29.1100   13.3100  121.8300 N.am      2 ALA2        0.0000 
     17 N          29.8700   11.4400  122.5000 N.am      2 ALA2        0.0000 
     18 N          28.6000   12.2000  122.7000 N.am      2 ALA2        0.0000 
     19 N          27.3200   12.9600  122.9100 N.am      2 ALA2        0.0000 
     20 N          26.0400   13.7200  123.1100 N.am      2 ALA2        0.0000 
     21 N          28.0800   11.0900  123.5700 N.am      2 ALA2        0.0000 
     22 N          25.5200   12.6100  123.9800 N.am      2 ALA2        0.0000 
     23 N          35.3300   12.0500  121.3500 N.am      2 ALA2        0.0000 
     24 OD1        27.6600    7.8900  121.8300 O.co2     3 ASP3        0.0000 
     25 OD1        25.8600    7.5400  122.9100 O.co2     3 ASP3        0.0000 
     26 OD1        25.3500    6.4300  123.7800 O.co2     3 ASP3        0.0000 
     27 OD1        31.8400    9.2500  120.8900 O.co2     3 ASP3        0.0000 
     28 OD1        30.0400    8.9100  121.9600 O.co2     3 ASP3        0.0000 
     29 OD1        29.5300    7.8000  122.8300 O.co2     3 ASP3        0.0000 
     30 OD1        28.2500    8.5600  123.0400 O.co2     3 ASP3        0.0000 
     31 OD1        27.7300    7.4500  123.9100 O.co2     3 ASP3        0.0000 
     32 OD1        35.5000    9.5200  120.8100 O.co2     3 ASP3        0.0000 
     33 OD1        34.2300   10.2700  121.0200 O.co2     3 ASP3        0.0000 
     34 OD1        32.9500   11.0300  121.2200 O.co2     3 ASP3        0.0000 
     35 OD1        31.6700   11.7900  121.4200 O.co2     3 ASP3        0.0000 
     36 OD1        30.3900   12.5500  121.6300 O.co2     3 ASP3        0.0000 
     37 OD1        32.4300    9.9300  122.0900 O.co2     3 ASP3        0.0000 
     38 OD1        31.1500   10.6800  122.2900 O.co2     3 ASP3        0.0000 
     39 OD1        30.6400    9.5800  123.1700 O.co2     3 ASP3        0.0000 
     40 OD1        30.1200    8.4700  124.0400 O.co2     3 ASP3        0.0000 
     41 OD1        29.6000    7.3600  124.9100 O.co2     3 ASP3        0.0000 
     42 OD1        34.0600   12.8100  121.5500 O.co2     3 ASP3        0.0000 
     43 OD1        34.8200   10.9500  122.2200 O.co2     3 ASP3        0.0000 
     44 OD1        33.5400   11.7000  122.4200 O.co2     3 ASP3        0.0000 
     45 OD1        29.7000   13.9800  123.0400 O.co2     3 ASP3        0.0000 
     46 OD1        33.0200   10.6000  123.3000 O.co2     3 ASP3        0.0000 
     47 OD1        30.4600   12.1100  123.7000 O.co2     3 ASP3        0.0000 
     48 OD1        31.2300   10.2500  124.3700 O.co2     3 ASP3        0.0000 
     49 OD1        29.9500   11.0100  124.5700 O.co2     3 ASP3        0.0000 
     50 OD1        30.7100    9.1400  125.2400 O.co2     3 ASP3        0.0000 
     51 OD1        34.6500   13.4800  122.7600 O.co2     3 ASP3        0.0000 
     52 OD1        29.0200   15.4100  124.4400 O.co2     3 ASP3        0.0000 
     53 OD1        29.7800   13.5400  125.1100 O.co2     3 ASP3        0.0000 
     54 OD1        33.0900   10.1600  125.3700 O.co2     3 ASP3        0.0000 
     55 OD1        31.8200   10.9200  125.5700 O.co2     3 ASP3        0.0000 
     56 OD1        30.5400   11.6800  125.7800 O.co2     3 ASP3        0.0000 
     57 OD1        35.2400   14.1500  123.9600 O.co2     3 ASP3        0.0000 
     58 OD1        30.8800   15.3200  125.4400 O.co2     3 ASP3        0.0000 
     59 OD1        30.3700   14.2100  126.3100 O.co2     3 ASP3        0.0000 
     60 OD1        31.1300   12.3500  126.9800 O.co2     3 ASP3        0.0000 
     61 CZ         24.5900    8.3000  123.1100 C.ar      4 PHE5        0.0000 
     62 CZ         28.6700   11.7700  124.7800 C.ar      4 PHE5        0.0000 
     63 CZ         27.3900   12.5200  124.9800 C.ar      4 PHE5        0.0000 
     64 CZ         29.2600   12.4400  125.9800 C.ar      4 PHE5        0.0000 
     65 CZ         27.9800   13.2000  126.1800 C.ar      4 PHE5        0.0000 
     66 CA         25.1800    8.9700  124.3100 C.3       5 GLY6        0.0000 
     67 CA         26.8000   11.8500  123.7800 C.3       5 GLY6        0.0000 
     68 CA         26.2800   10.7500  124.6500 C.3       5 GLY6        0.0000 
     69 CA         35.9200   12.7200  122.5500 C.3       5 GLY6        0.0000 
     70 CA         28.5000   14.3000  125.3100 C.3       5 GLY6        0.0000 
     71 CA         29.0900   14.9700  126.5200 C.3       5 GLY6        0.0000 
     72 CA         30.9600   14.8900  127.5200 C.3       5 GLY6        0.0000 
     73 DU         26.9700    9.3200  123.2400 H         6 CUB7        0.0000 
     74 DU         29.3600   10.3400  123.3700 H         6 CUB7        0.0000 
     75 DU         28.4300   14.7400  123.2400 H         6 CUB7        0.0000 
     76 DU         27.9100   13.6300  124.1100 H         6 CUB7        0.0000 
@<TRIPOS>BOND
@<TRIPOS>SUBSTRUCTURE
     1 SER1        1 GROUP   
     2 ALA2        6 GROUP   
     3 ASP3       24 GROUP   
     4 PHE5       61 GROUP   
     5 GLY6       66 GROUP   
     6 CUB7       73 GROUP   
@<TRIPOS>SET

