#    Name: 5yhw_10_DGT_CAVITY_N1_4
#    Modification time : Fri May 22 19:20:15 2020

@<TRIPOS>MOLECULE
5yhw_10_DGT_CAVITY_N1_4
  105     0     7     0     0
SMALL
NO_CHARGES


@<TRIPOS>ATOM
      1 OG         -7.7900   10.7600  109.5800 O.3       1 SER1        0.0000 
      2 OG         -5.9300   10.6700  110.5800 O.3       1 SER1        0.0000 
      3 OG         -3.6400    5.0800  112.5800 O.3       1 SER1        0.0000 
      4 OG         -9.6900   12.5100  113.2700 O.3       1 SER1        0.0000 
      5 N          -7.1100    9.3300  108.1700 N.am      2 ALA2        0.0000 
      6 O          -6.3400    7.4700  108.8400 O.2       2 ALA2        0.0000 
      7 N          -8.9000    8.9800  109.2500 N.am      2 ALA2        0.0000 
      8 N          -6.0000   11.1100  108.5000 N.am      2 ALA2        0.0000 
      9 N          -6.5200   10.0000  109.3800 N.am      2 ALA2        0.0000 
     10 O          -2.5400    6.8600  112.9100 O.2       2 ALA2        0.0000 
     11 N          -9.4400    9.5400  114.8000 N.am      2 ALA2        0.0000 
     12 N         -10.7200   10.3000  115.0100 N.am      2 ALA2        0.0000 
     13 O         -12.2700    6.9800  117.6200 O.2       2 ALA2        0.0000 
     14 N         -13.5500    7.7400  117.8200 N.am      2 ALA2        0.0000 
     15 N          -7.5800    9.4600  115.8000 N.am      2 ALA2        0.0000 
     16 N          -6.8100    7.5900  116.4700 N.am      2 ALA2        0.0000 
     17 N          -8.0900    8.3500  116.6700 N.am      2 ALA2        0.0000 
     18 N          -3.9100    9.7200  115.7300 N.am      2 ALA2        0.0000 
     19 O          -4.4300    8.6100  116.6000 O.2       2 ALA2        0.0000 
     20 OD1        -6.4200    7.9000  106.7600 O.co2     3 ASP3        0.0000 
     21 OD1        -7.6200    8.2200  109.0400 O.co2     3 ASP3        0.0000 
     22 OD1        -5.7500    8.1400  110.0400 O.co2     3 ASP3        0.0000 
     23 OD1        -7.0300    8.9000  110.2500 O.co2     3 ASP3        0.0000 
     24 OD1        -8.3100    9.6500  110.4500 O.co2     3 ASP3        0.0000 
     25 OD1        -2.4400    4.7600  110.3000 O.co2     3 ASP3        0.0000 
     26 OD1       -13.9400   11.5800  112.1300 O.co2     3 ASP3        0.0000 
     27 OD1       -15.2200   12.3400  112.3400 O.co2     3 ASP3        0.0000 
     28 OD1        -5.1600    8.8100  111.2500 O.co2     3 ASP3        0.0000 
     29 OD1        -6.4400    9.5700  111.4500 O.co2     3 ASP3        0.0000 
     30 OD1        -4.4000    6.9500  111.9100 O.co2     3 ASP3        0.0000 
     31 OD1        -5.6800    7.7000  112.1200 O.co2     3 ASP3        0.0000 
     32 OD1        -8.2400    9.2200  112.5200 O.co2     3 ASP3        0.0000 
     33 OD1        -8.7600    8.1100  113.4000 O.co2     3 ASP3        0.0000 
     34 OD1       -10.0300    8.8700  113.6000 O.co2     3 ASP3        0.0000 
     35 OD1       -12.5900   10.3900  114.0100 O.co2     3 ASP3        0.0000 
     36 OD1       -13.8700   11.1500  114.2100 O.co2     3 ASP3        0.0000 
     37 OD1        -9.2700    7.0100  114.2700 O.co2     3 ASP3        0.0000 
     38 OD1       -12.8600    6.3100  116.4100 O.co2     3 ASP3        0.0000 
     39 OD1        -5.0900    8.3800  113.3200 O.co2     3 ASP3        0.0000 
     40 OD1        -6.3700    9.1300  113.5300 O.co2     3 ASP3        0.0000 
     41 OD1        -4.3300    6.5100  113.9900 O.co2     3 ASP3        0.0000 
     42 OD1        -6.8900    8.0300  114.4000 O.co2     3 ASP3        0.0000 
     43 OD1        -8.1700    8.7900  114.6000 O.co2     3 ASP3        0.0000 
     44 OD1       -12.0000   11.0600  115.2100 O.co2     3 ASP3        0.0000 
     45 OD1        -7.4100    6.9200  115.2700 O.co2     3 ASP3        0.0000 
     46 OD1        -9.9600    8.4400  115.6700 O.co2     3 ASP3        0.0000 
     47 OD1       -11.2400    9.2000  115.8800 O.co2     3 ASP3        0.0000 
     48 OD1       -10.4800    7.3300  116.5400 O.co2     3 ASP3        0.0000 
     49 OD1       -11.7600    8.0900  116.7500 O.co2     3 ASP3        0.0000 
     50 OD1       -13.0400    8.8500  116.9500 O.co2     3 ASP3        0.0000 
     51 OD1        -6.3000    8.7000  115.6000 O.co2     3 ASP3        0.0000 
     52 NZ        -14.6300   13.0100  113.5400 N.4       4 LYS4        0.0000 
     53 NZ        -11.4800   12.1700  114.3400 N.4       4 LYS4        0.0000 
     54 NZ        -12.7600   12.9200  114.5400 N.4       4 LYS4        0.0000 
     55 NZ        -10.8900   12.8400  115.5400 N.4       4 LYS4        0.0000 
     56 CZ         -9.0700   11.5200  109.7800 C.ar      5 PHE5        0.0000 
     57 CZ         -8.4800   12.1900  110.9900 C.ar      5 PHE5        0.0000 
     58 CZ         -9.7600   12.9500  111.1900 C.ar      5 PHE5        0.0000 
     59 CZ         -3.8900    8.0500  111.0400 C.ar      5 PHE5        0.0000 
     60 CZ         -7.7200   10.3300  111.6500 C.ar      5 PHE5        0.0000 
     61 CZ         -9.0000   11.0800  111.8600 C.ar      5 PHE5        0.0000 
     62 CZ        -10.2800   11.8400  112.0600 C.ar      5 PHE5        0.0000 
     63 CZ         -4.5700    9.4800  112.4500 C.ar      5 PHE5        0.0000 
     64 CZ         -5.8500   10.2400  112.6500 C.ar      5 PHE5        0.0000 
     65 CZ         -3.8100    7.6200  113.1200 C.ar      5 PHE5        0.0000 
     66 CZ         -7.6500    9.8900  113.7300 C.ar      5 PHE5        0.0000 
     67 CZ         -8.9300   10.6500  113.9300 C.ar      5 PHE5        0.0000 
     68 CZ        -10.2000   11.4100  114.1400 C.ar      5 PHE5        0.0000 
     69 CZ         -4.5000    9.0500  114.5300 C.ar      5 PHE5        0.0000 
     70 CZ         -5.7800    9.8100  114.7300 C.ar      5 PHE5        0.0000 
     71 CZ         -7.0600   10.5600  114.9300 C.ar      5 PHE5        0.0000 
     72 CZ         -8.3400   11.3200  115.1400 C.ar      5 PHE5        0.0000 
     73 CA         -5.3100    9.6800  107.1000 C.3       6 GLY6        0.0000 
     74 CA         -5.8300    8.5700  107.9700 C.3       6 GLY6        0.0000 
     75 CA        -12.7400   11.2600  109.8600 C.3       6 GLY6        0.0000 
     76 CA        -14.0100   12.0200  110.0600 C.3       6 GLY6        0.0000 
     77 CA         -5.2400    9.2400  109.1700 C.3       6 GLY6        0.0000 
     78 CA         -3.2000    6.6200  109.6400 C.3       6 GLY6        0.0000 
     79 CA         -4.4800    7.3800  109.8400 C.3       6 GLY6        0.0000 
     80 CA         -9.5900   10.4100  110.6500 C.3       6 GLY6        0.0000 
     81 CA        -10.8700   11.1700  110.8600 C.3       6 GLY6        0.0000 
     82 CA        -12.1500   11.9300  111.0600 C.3       6 GLY6        0.0000 
     83 CA         -3.7200    5.5200  110.5100 C.3       6 GLY6        0.0000 
     84 CA        -12.6600   10.8200  111.9300 C.3       6 GLY6        0.0000 
     85 CA         -3.3700    9.1600  110.1700 C.3       6 GLY6        0.0000 
     86 CA        -11.0400   13.7100  111.3900 C.3       6 GLY6        0.0000 
     87 CA         -2.6100    7.2900  110.8400 C.3       6 GLY6        0.0000 
     88 CA         -1.8500    5.4300  111.5100 C.3       6 GLY6        0.0000 
     89 CA         -3.1300    6.1900  111.7100 C.3       6 GLY6        0.0000 
     90 CA         -9.5200    9.9800  112.7300 C.3       6 GLY6        0.0000 
     91 CA        -10.7900   10.7400  112.9300 C.3       6 GLY6        0.0000 
     92 CA        -12.0700   11.4900  113.1400 C.3       6 GLY6        0.0000 
     93 CA        -10.9700   13.2700  113.4700 C.3       6 GLY6        0.0000 
     94 CA         -8.6800    7.6800  115.4700 C.3       6 GLY6        0.0000 
     95 CA         -9.6100   12.0800  115.3400 C.3       6 GLY6        0.0000 
     96 CA         -5.0200    7.9400  115.4000 C.3       6 GLY6        0.0000 
     97 CA         -5.1900   10.4800  115.9300 C.3       6 GLY6        0.0000 
     98 CA         -6.4700   11.2400  116.1400 C.3       6 GLY6        0.0000 
     99 CA         -5.7100    9.3700  116.8100 C.3       6 GLY6        0.0000 
    100 CA         -6.9900   10.1300  117.0100 C.3       6 GLY6        0.0000 
    101 DU        -10.3500   12.2800  109.9900 H         7 CUB7        0.0000 
    102 DU        -13.4200   12.6900  111.2600 H         7 CUB7        0.0000 
    103 DU        -11.5600   12.6000  112.2700 H         7 CUB7        0.0000 
    104 DU        -12.8300   13.3600  112.4700 H         7 CUB7        0.0000 
    105 DU        -13.3500   12.2500  113.3400 H         7 CUB7        0.0000 
@<TRIPOS>BOND
@<TRIPOS>SUBSTRUCTURE
     1 SER1        1 GROUP   
     2 ALA2        5 GROUP   
     3 ASP3       20 GROUP   
     4 LYS4       52 GROUP   
     5 PHE5       56 GROUP   
     6 GLY6       73 GROUP   
     7 CUB7      101 GROUP   
@<TRIPOS>SET

