#    Name: 5yhw_3_DGT_CAVITY_N1_4
#    Modification time : Fri May 22 19:19:03 2020

@<TRIPOS>MOLECULE
5yhw_3_DGT_CAVITY_N1_4
  127     0     7     0     0
SMALL
NO_CHARGES


@<TRIPOS>ATOM
      1 OG        -12.3200   43.1100   60.1300 O.3       1 SER1        0.0000 
      2 OG        -12.8400   42.0000   61.0000 O.3       1 SER1        0.0000 
      3 OG        -11.2200   44.8900   60.4600 O.3       1 SER1        0.0000 
      4 OG        -10.4600   43.0200   61.1300 O.3       1 SER1        0.0000 
      5 OG        -10.9700   41.9200   62.0000 O.3       1 SER1        0.0000 
      6 OG        -10.6300   45.5600   61.6700 O.3       1 SER1        0.0000 
      7 OG         -9.8700   43.7000   62.3300 O.3       1 SER1        0.0000 
      8 OG        -10.3800   42.5900   63.2100 O.3       1 SER1        0.0000 
      9 O         -12.9900   42.8700   56.8500 O.2       2 ALA2        0.0000 
     10 N         -15.2000   48.0300   56.9200 N.am      2 ALA2        0.0000 
     11 N         -10.6000   43.8900   56.9800 N.am      2 ALA2        0.0000 
     12 N         -13.1600   45.4100   57.3900 N.am      2 ALA2        0.0000 
     13 N         -14.4400   46.1700   57.5900 N.am      2 ALA2        0.0000 
     14 N         -12.4000   43.5400   58.0500 N.am      2 ALA2        0.0000 
     15 O         -13.6800   44.3000   58.2600 O.2       2 ALA2        0.0000 
     16 N         -14.9500   45.0600   58.4600 N.am      2 ALA2        0.0000 
     17 O          -8.2200   44.9100   57.1100 O.2       2 ALA2        0.0000 
     18 N          -9.4900   45.6700   57.3100 N.am      2 ALA2        0.0000 
     19 N         -12.0500   47.1900   57.7200 N.am      2 ALA2        0.0000 
     20 N         -13.3300   47.9500   57.9200 N.am      2 ALA2        0.0000 
     21 N         -14.6100   48.7000   58.1300 N.am      2 ALA2        0.0000 
     22 N         -10.0100   44.5600   58.1800 N.am      2 ALA2        0.0000 
     23 N         -11.2900   45.3200   58.3900 N.am      2 ALA2        0.0000 
     24 N         -12.5700   46.0800   58.5900 N.am      2 ALA2        0.0000 
     25 N         -13.8500   46.8400   58.8000 N.am      2 ALA2        0.0000 
     26 N         -13.3600   40.9000   61.8700 N.am      2 ALA2        0.0000 
     27 N         -13.8800   39.7900   62.7400 N.am      2 ALA2        0.0000 
     28 O         -11.8400   37.1700   63.2100 O.2       2 ALA2        0.0000 
     29 N         -10.1800   47.1000   58.7200 N.am      2 ALA2        0.0000 
     30 N         -11.4600   47.8600   58.9300 N.am      2 ALA2        0.0000 
     31 N         -10.7300   38.9500   63.5400 N.am      2 ALA2        0.0000 
     32 N         -12.0100   39.7000   63.7400 N.am      2 ALA2        0.0000 
     33 N         -12.5300   38.6000   64.6100 N.am      2 ALA2        0.0000 
     34 N          -4.7200   47.7100   57.5700 N.am      2 ALA2        0.0000 
     35 OD1       -13.5100   41.7700   57.7200 O.co2     3 ASP3        0.0000 
     36 OD1       -14.0200   40.6600   58.5900 O.co2     3 ASP3        0.0000 
     37 OD1       -14.5400   39.5500   59.4600 O.co2     3 ASP3        0.0000 
     38 OD1       -11.1200   42.7900   57.8500 O.co2     3 ASP3        0.0000 
     39 OD1       -12.9100   42.4400   58.9300 O.co2     3 ASP3        0.0000 
     40 OD1       -13.4300   41.3300   59.8000 O.co2     3 ASP3        0.0000 
     41 OD1       -13.1900   38.3600   61.3300 O.co2     3 ASP3        0.0000 
     42 OD1        -6.9400   44.1500   56.9100 O.co2     3 ASP3        0.0000 
     43 OD1        -8.7300   43.8100   57.9800 O.co2     3 ASP3        0.0000 
     44 OD1       -10.5300   43.4600   59.0600 O.co2     3 ASP3        0.0000 
     45 OD1       -11.0500   42.3500   59.9300 O.co2     3 ASP3        0.0000 
     46 OD1       -12.0800   40.1400   61.6700 O.co2     3 ASP3        0.0000 
     47 OD1       -11.3200   38.2700   62.3300 O.co2     3 ASP3        0.0000 
     48 OD1       -12.6000   39.0300   62.5400 O.co2     3 ASP3        0.0000 
     49 OD1        -4.5500   45.1700   57.0400 O.co2     3 ASP3        0.0000 
     50 OD1        -5.8300   45.9300   57.2400 O.co2     3 ASP3        0.0000 
     51 OD1        -7.1100   46.6900   57.4400 O.co2     3 ASP3        0.0000 
     52 OD1        -8.3900   47.4500   57.6500 O.co2     3 ASP3        0.0000 
     53 OD1        -9.6600   48.2100   57.8500 O.co2     3 ASP3        0.0000 
     54 OD1        -7.6300   45.5800   58.3100 O.co2     3 ASP3        0.0000 
     55 OD1        -8.9000   46.3400   58.5200 O.co2     3 ASP3        0.0000 
     56 OD1        -9.4200   45.2400   59.3900 O.co2     3 ASP3        0.0000 
     57 OD1        -9.9400   44.1300   60.2600 O.co2     3 ASP3        0.0000 
     58 OD1        -9.7000   41.1600   61.8000 O.co2     3 ASP3        0.0000 
     59 OD1       -10.2100   40.0500   62.6700 O.co2     3 ASP3        0.0000 
     60 OD1        -6.0000   48.4700   57.7800 O.co2     3 ASP3        0.0000 
     61 OD1        -3.9600   45.8500   58.2400 O.co2     3 ASP3        0.0000 
     62 OD1        -5.2400   46.6000   58.4400 O.co2     3 ASP3        0.0000 
     63 OD1       -10.3500   49.6400   59.2600 O.co2     3 ASP3        0.0000 
     64 OD1       -10.8700   48.5300   60.1300 O.co2     3 ASP3        0.0000 
     65 OD1        -7.5500   45.1500   60.3900 O.co2     3 ASP3        0.0000 
     66 OD1        -8.8300   45.9100   60.5900 O.co2     3 ASP3        0.0000 
     67 OD1       -10.1100   46.6700   60.8000 O.co2     3 ASP3        0.0000 
     68 OD1        -8.0700   44.0400   61.2600 O.co2     3 ASP3        0.0000 
     69 OD1        -9.3500   44.8000   61.4600 O.co2     3 ASP3        0.0000 
     70 OD1        -8.5900   42.9400   62.1300 O.co2     3 ASP3        0.0000 
     71 OD1        -9.1100   41.8300   63.0000 O.co2     3 ASP3        0.0000 
     72 OD1        -4.6500   47.2800   59.6500 O.co2     3 ASP3        0.0000 
     73 OD1        -9.7600   50.3100   60.4600 O.co2     3 ASP3        0.0000 
     74 OD1       -10.2800   49.2000   61.3300 O.co2     3 ASP3        0.0000 
     75 OD1        -6.9600   45.8200   61.5900 O.co2     3 ASP3        0.0000 
     76 OD1        -8.2400   46.5800   61.8000 O.co2     3 ASP3        0.0000 
     77 OD1        -9.5200   47.3400   62.0000 O.co2     3 ASP3        0.0000 
     78 OD1       -10.3100   42.1500   65.2800 O.co2     3 ASP3        0.0000 
     79 OD1        -8.4100   49.1200   62.3400 O.co2     3 ASP3        0.0000 
     80 OD1        -6.3700   46.4900   62.8000 O.co2     3 ASP3        0.0000 
     81 OD1        -7.6500   47.2500   63.0000 O.co2     3 ASP3        0.0000 
     82 OD1        -5.6100   44.6300   63.4700 O.co2     3 ASP3        0.0000 
     83 OD1        -4.8500   42.7600   64.1300 O.co2     3 ASP3        0.0000 
     84 OD1        -6.5400   49.0300   63.3400 O.co2     3 ASP3        0.0000 
     85 OD1        -4.5000   46.4100   63.8000 O.co2     3 ASP3        0.0000 
     86 OD1        -3.7400   44.5400   64.4700 O.co2     3 ASP3        0.0000 
     87 OD1        -5.0200   45.3000   64.6700 O.co2     3 ASP3        0.0000 
     88 OD1        -5.5400   44.1900   65.5400 O.co2     3 ASP3        0.0000 
     89 OD1        -3.9100   47.0800   65.0000 O.co2     3 ASP3        0.0000 
     90 OD1        -3.1500   45.2100   65.6700 O.co2     3 ASP3        0.0000 
     91 NZ         -4.2600   43.4400   65.3400 N.4       4 LYS4        0.0000 
     92 CZ        -15.3000   41.4200   58.8000 C.ar      5 PHE5        0.0000 
     93 CZ         -9.3200   43.1400   56.7800 C.ar      5 PHE5        0.0000 
     94 CZ        -14.1900   43.2000   59.1300 C.ar      5 PHE5        0.0000 
     95 CZ        -14.7100   42.0900   60.0000 C.ar      5 PHE5        0.0000 
     96 CZ        -13.9500   40.2300   60.6700 C.ar      5 PHE5        0.0000 
     97 CZ        -14.1200   42.7600   61.2000 C.ar      5 PHE5        0.0000 
     98 CZ        -11.4900   40.8100   62.8700 C.ar      5 PHE5        0.0000 
     99 CZ        -11.3900   47.4200   61.0000 C.ar      5 PHE5        0.0000 
    100 CZ        -10.9000   41.4800   64.0800 C.ar      5 PHE5        0.0000 
    101 CZ        -11.4200   40.3800   64.9500 C.ar      5 PHE5        0.0000 
    102 CZ        -12.7000   41.1300   65.1500 C.ar      5 PHE5        0.0000 
    103 CZ        -10.0400   46.2300   62.8700 C.ar      5 PHE5        0.0000 
    104 CZ         -4.4300   45.9700   65.8700 C.ar      5 PHE5        0.0000 
    105 CA        -15.1300   38.8800   58.2600 C.3       6 GLY6        0.0000 
    106 CA        -14.7800   42.5300   57.9200 C.3       6 GLY6        0.0000 
    107 CA        -16.4700   48.7900   57.1300 C.3       6 GLY6        0.0000 
    108 CA        -14.4700   39.1200   61.5400 C.3       6 GLY6        0.0000 
    109 CA        -13.0900   44.9700   59.4600 C.3       6 GLY6        0.0000 
    110 CA        -13.6000   43.8700   60.3300 C.3       6 GLY6        0.0000 
    111 CA        -13.1200   37.9300   63.4100 C.3       6 GLY6        0.0000 
    112 CA        -11.9800   46.7500   59.8000 C.3       6 GLY6        0.0000 
    113 CA        -13.2600   47.5100   60.0000 C.3       6 GLY6        0.0000 
    114 CA        -12.4900   45.6500   60.6700 C.3       6 GLY6        0.0000 
    115 CA        -12.6700   48.1800   61.2000 C.3       6 GLY6        0.0000 
    116 CA         -9.6200   40.7200   63.8700 C.3       6 GLY6        0.0000 
    117 CA         -4.1300   48.3800   58.7800 C.3       6 GLY6        0.0000 
    118 CA        -10.8000   48.1000   62.2100 C.3       6 GLY6        0.0000 
    119 CA         -9.6900   49.8700   62.5400 C.3       6 GLY6        0.0000 
    120 CA         -7.8200   49.7900   63.5400 C.3       6 GLY6        0.0000 
    121 CA         -5.7800   47.1700   64.0000 C.3       6 GLY6        0.0000 
    122 CA         -7.0600   47.9200   64.2100 C.3       6 GLY6        0.0000 
    123 CA         -5.7100   46.7300   66.0800 C.3       6 GLY6        0.0000 
    124 DU        -11.8100   44.2200   59.2600 H         7 CUB7        0.0000 
    125 DU        -10.7000   45.9900   59.5900 H         7 CUB7        0.0000 
    126 DU         -5.9500   49.7000   64.5400 H         7 CUB7        0.0000 
    127 DU         -5.1900   47.8400   65.2100 H         7 CUB7        0.0000 
@<TRIPOS>BOND
@<TRIPOS>SUBSTRUCTURE
     1 SER1        1 GROUP   
     2 ALA2        9 GROUP   
     3 ASP3       35 GROUP   
     4 LYS4       91 GROUP   
     5 PHE5       92 GROUP   
     6 GLY6      105 GROUP   
     7 CUB7      124 GROUP   
@<TRIPOS>SET

