#    Name: 5yhw_21_DGT_CAVITY_N1_6
#    Modification time : Fri May 22 19:21:48 2020

@<TRIPOS>MOLECULE
5yhw_21_DGT_CAVITY_N1_6
  154     0     7     0     0
SMALL
NO_CHARGES


@<TRIPOS>ATOM
      1 OG        -32.5500   53.5200   38.0800 O.3       1 SER1        0.0000 
      2 OG        -35.1000   55.0400   38.4900 O.3       1 SER1        0.0000 
      3 OG        -36.3800   55.7900   38.6900 O.3       1 SER1        0.0000 
      4 OG        -37.6600   56.5500   38.8900 O.3       1 SER1        0.0000 
      5 OG        -31.9600   54.1900   39.2800 O.3       1 SER1        0.0000 
      6 OG        -34.5100   55.7100   39.6900 O.3       1 SER1        0.0000 
      7 OG        -35.7900   56.4700   39.8900 O.3       1 SER1        0.0000 
      8 OG        -32.4700   53.0900   40.1500 O.3       1 SER1        0.0000 
      9 OG        -35.0300   54.6000   40.5600 O.3       1 SER1        0.0000 
     10 OG        -35.9600   59.0000   40.4300 O.3       1 SER1        0.0000 
     11 OG        -32.6400   55.6200   40.6900 O.3       1 SER1        0.0000 
     12 OG        -35.2000   57.1400   41.1000 O.3       1 SER1        0.0000 
     13 OG        -36.4800   57.9000   41.3000 O.3       1 SER1        0.0000 
     14 OG        -33.1600   54.5200   41.5600 O.3       1 SER1        0.0000 
     15 OG        -34.4400   55.2700   41.7700 O.3       1 SER1        0.0000 
     16 OG        -35.7200   56.0300   41.9700 O.3       1 SER1        0.0000 
     17 OG        -36.2400   54.9300   42.8400 O.3       1 SER1        0.0000 
     18 OG        -29.2200   58.8500   39.0800 O.3       1 SER1        0.0000 
     19 OG        -29.7400   57.7500   39.9500 O.3       1 SER1        0.0000 
     20 OG        -30.2600   56.6400   40.8200 O.3       1 SER1        0.0000 
     21 OG        -36.6500   60.4300   41.8400 O.3       1 SER1        0.0000 
     22 OG        -30.7800   55.5400   41.6900 O.3       1 SER1        0.0000 
     23 OG        -31.2900   54.4300   42.5600 O.3       1 SER1        0.0000 
     24 OG        -32.5700   55.1900   42.7700 O.3       1 SER1        0.0000 
     25 OG        -29.6700   57.3100   42.0300 O.3       1 SER1        0.0000 
     26 OG        -30.1900   56.2100   42.9000 O.3       1 SER1        0.0000 
     27 O         -38.9400   57.3100   39.1000 O.2       2 ALA2        0.0000 
     28 O         -40.2200   58.0700   39.3000 O.2       2 ALA2        0.0000 
     29 O         -38.3500   57.9800   40.3000 O.2       2 ALA2        0.0000 
     30 O         -39.6300   58.7400   40.5100 O.2       2 ALA2        0.0000 
     31 N         -42.1800   60.2600   40.9100 N.am      2 ALA2        0.0000 
     32 O         -37.5900   56.1200   40.9700 O.2       2 ALA2        0.0000 
     33 O         -40.1400   57.6300   41.3800 O.2       2 ALA2        0.0000 
     34 N         -41.4200   58.3900   41.5800 N.am      2 ALA2        0.0000 
     35 N         -39.8000   61.2800   41.0400 N.am      2 ALA2        0.0000 
     36 O         -38.2700   57.5500   42.3800 O.2       2 ALA2        0.0000 
     37 O         -39.5500   58.3100   42.5800 O.2       2 ALA2        0.0000 
     38 O         -37.5100   55.6800   43.0400 O.2       2 ALA2        0.0000 
     39 O         -38.7900   56.4400   43.2500 O.2       2 ALA2        0.0000 
     40 N         -40.0700   57.2000   43.4500 N.am      2 ALA2        0.0000 
     41 N         -40.5900   56.0900   44.3200 N.am      2 ALA2        0.0000 
     42 N         -38.4400   60.0800   42.9100 N.am      2 ALA2        0.0000 
     43 O         -31.8100   53.3200   43.4300 O.2       2 ALA2        0.0000 
     44 N         -37.4400   55.2500   45.1200 N.am      2 ALA2        0.0000 
     45 N         -38.7200   56.0100   45.3200 N.am      2 ALA2        0.0000 
     46 N         -40.0000   56.7700   45.5300 N.am      2 ALA2        0.0000 
     47 N         -37.9600   54.1400   45.9900 N.am      2 ALA2        0.0000 
     48 N         -40.5100   55.6600   46.4000 N.am      2 ALA2        0.0000 
     49 N         -39.1300   61.5100   44.3200 N.am      2 ALA2        0.0000 
     50 N         -38.3700   59.6500   44.9900 N.am      2 ALA2        0.0000 
     51 O         -31.2200   53.9900   44.6400 O.2       2 ALA2        0.0000 
     52 N         -35.5700   55.1600   46.1200 N.am      2 ALA2        0.0000 
     53 N         -36.0900   54.0600   46.9900 N.am      2 ALA2        0.0000 
     54 N         -37.3700   54.8100   47.1900 N.am      2 ALA2        0.0000 
     55 O         -38.3000   59.2100   47.0600 O.2       2 ALA2        0.0000 
     56 N         -36.2600   56.5900   47.5300 N.am      2 ALA2        0.0000 
     57 OD1       -32.1000   55.0600   35.1300 O.co2     3 ASP3        0.0000 
     58 OD1       -33.3800   55.8200   35.3400 O.co2     3 ASP3        0.0000 
     59 OD1       -29.7200   56.0800   35.2600 O.co2     3 ASP3        0.0000 
     60 OD1       -30.2300   54.9700   36.1300 O.co2     3 ASP3        0.0000 
     61 OD1       -31.5100   55.7300   36.3400 O.co2     3 ASP3        0.0000 
     62 OD1       -30.7500   53.8700   37.0100 O.co2     3 ASP3        0.0000 
     63 OD1       -32.0300   54.6300   37.2100 O.co2     3 ASP3        0.0000 
     64 OD1       -33.3100   55.3800   37.4100 O.co2     3 ASP3        0.0000 
     65 OD1       -33.8200   54.2800   38.2800 O.co2     3 ASP3        0.0000 
     66 OD1       -29.6400   55.6500   37.3400 O.co2     3 ASP3        0.0000 
     67 OD1       -30.9200   56.4000   37.5400 O.co2     3 ASP3        0.0000 
     68 OD1       -30.1600   54.5400   38.2100 O.co2     3 ASP3        0.0000 
     69 OD1       -28.5300   57.4200   37.6700 O.co2     3 ASP3        0.0000 
     70 OD1       -29.8100   58.1800   37.8800 O.co2     3 ASP3        0.0000 
     71 OD1       -29.0500   56.3200   38.5400 O.co2     3 ASP3        0.0000 
     72 OD1       -41.5900   60.9300   42.1200 O.co2     3 ASP3        0.0000 
     73 OD1       -40.8300   59.0600   42.7800 O.co2     3 ASP3        0.0000 
     74 OD1       -41.3500   57.9600   43.6500 O.co2     3 ASP3        0.0000 
     75 OD1       -28.4600   56.9900   39.7500 O.co2     3 ASP3        0.0000 
     76 OD1       -40.2400   59.7400   43.9900 O.co2     3 ASP3        0.0000 
     77 OD1       -40.7600   58.6300   44.8600 O.co2     3 ASP3        0.0000 
     78 OD1       -27.8700   57.6600   40.9500 O.co2     3 ASP3        0.0000 
     79 OD1       -29.4200   54.3400   43.5600 O.co2     3 ASP3        0.0000 
     80 OD1       -30.7000   55.1000   43.7700 O.co2     3 ASP3        0.0000 
     81 OD1       -39.6500   60.4100   45.1900 O.co2     3 ASP3        0.0000 
     82 OD1       -32.5000   54.7500   44.8400 O.co2     3 ASP3        0.0000 
     83 OD1       -40.1700   59.3000   46.0600 O.co2     3 ASP3        0.0000 
     84 NZ        -29.5700   55.2100   39.4100 N.4       4 LYS4        0.0000 
     85 NZ        -28.9800   55.8800   40.6200 N.4       4 LYS4        0.0000 
     86 NZ        -29.5000   54.7800   41.4900 N.4       4 LYS4        0.0000 
     87 NZ        -32.3300   52.2200   44.3000 N.4       4 LYS4        0.0000 
     88 NZ        -28.3900   56.5600   41.8200 N.4       4 LYS4        0.0000 
     89 NZ        -38.8900   58.5400   45.8600 N.4       4 LYS4        0.0000 
     90 NZ        -38.1300   56.6800   46.5300 N.4       4 LYS4        0.0000 
     91 NZ        -38.6500   55.5700   47.4000 N.4       4 LYS4        0.0000 
     92 NZ        -37.5400   57.3500   47.7300 N.4       4 LYS4        0.0000 
     93 CZ        -33.7500   53.8400   40.3600 C.ar      5 PHE5        0.0000 
     94 CZ        -32.9900   51.9800   41.0300 C.ar      5 PHE5        0.0000 
     95 CZ        -34.2700   52.7400   41.2300 C.ar      5 PHE5        0.0000 
     96 CZ        -31.6100   57.8300   38.9500 C.ar      5 PHE5        0.0000 
     97 CZ        -32.1300   56.7300   39.8200 C.ar      5 PHE5        0.0000 
     98 CZ        -33.4000   57.4900   40.0200 C.ar      5 PHE5        0.0000 
     99 CZ        -34.6800   58.2400   40.2300 C.ar      5 PHE5        0.0000 
    100 CZ        -30.0900   54.1100   40.2800 C.ar      5 PHE5        0.0000 
    101 CZ        -33.9200   56.3800   40.9000 C.ar      5 PHE5        0.0000 
    102 CZ        -31.8800   53.7600   41.3600 C.ar      5 PHE5        0.0000 
    103 CZ        -37.0000   56.7900   42.1700 C.ar      5 PHE5        0.0000 
    104 CZ        -32.4000   52.6500   42.2300 C.ar      5 PHE5        0.0000 
    105 CZ        -33.6800   53.4100   42.4300 C.ar      5 PHE5        0.0000 
    106 CZ        -34.9600   54.1700   42.6400 C.ar      5 PHE5        0.0000 
    107 CZ        -34.2000   52.3000   43.3000 C.ar      5 PHE5        0.0000 
    108 CZ        -35.4700   53.0600   43.5100 C.ar      5 PHE5        0.0000 
    109 CZ        -30.0100   53.6700   42.3600 C.ar      5 PHE5        0.0000 
    110 CZ        -30.5300   52.5600   43.2300 C.ar      5 PHE5        0.0000 
    111 CZ        -33.0900   54.0800   43.6400 C.ar      5 PHE5        0.0000 
    112 CZ        -34.3700   54.8400   43.8400 C.ar      5 PHE5        0.0000 
    113 CZ        -35.6500   55.6000   44.0400 C.ar      5 PHE5        0.0000 
    114 CZ        -36.6800   53.3800   45.7900 C.ar      5 PHE5        0.0000 
    115 CA        -42.0100   57.7200   40.3800 C.3       6 GLY6        0.0000 
    116 CA        -42.7000   59.1500   41.7800 C.3       6 GLY6        0.0000 
    117 CA        -36.7500   53.8200   43.7100 C.3       6 GLY6        0.0000 
    118 CA        -38.0300   54.5800   43.9100 C.3       6 GLY6        0.0000 
    119 CA        -37.9300   61.1900   42.0400 C.3       6 GLY6        0.0000 
    120 CA        -39.2100   61.9500   42.2500 C.3       6 GLY6        0.0000 
    121 CA        -37.1700   59.3300   42.7100 C.3       6 GLY6        0.0000 
    122 CA        -39.7200   60.8400   43.1200 C.3       6 GLY6        0.0000 
    123 CA        -41.0000   61.6000   43.3200 C.3       6 GLY6        0.0000 
    124 CA        -36.4100   57.4600   43.3800 C.3       6 GLY6        0.0000 
    125 CA        -37.6800   58.2200   43.5800 C.3       6 GLY6        0.0000 
    126 CA        -38.9600   58.9800   43.7800 C.3       6 GLY6        0.0000 
    127 CA        -36.9200   56.3600   44.2500 C.3       6 GLY6        0.0000 
    128 CA        -38.2000   57.1100   44.4500 C.3       6 GLY6        0.0000 
    129 CA        -33.6100   52.9700   44.5100 C.3       6 GLY6        0.0000 
    130 CA        -34.8800   53.7300   44.7100 C.3       6 GLY6        0.0000 
    131 CA        -36.1600   54.4900   44.9200 C.3       6 GLY6        0.0000 
    132 CA        -37.6100   57.7800   45.6600 C.3       6 GLY6        0.0000 
    133 CA        -33.0200   53.6500   45.7100 C.3       6 GLY6        0.0000 
    134 CA        -34.2900   54.4000   45.9200 C.3       6 GLY6        0.0000 
    135 CA        -36.8500   55.9200   46.3200 C.3       6 GLY6        0.0000 
    136 CA        -37.0200   58.4600   46.8600 C.3       6 GLY6        0.0000 
    137 DU        -39.7000   59.1800   38.4300 H         7 CUB7        0.0000 
    138 DU        -32.2000   57.1600   37.7500 H         7 CUB7        0.0000 
    139 DU        -31.4400   55.3000   38.4100 H         7 CUB7        0.0000 
    140 DU        -32.7200   56.0600   38.6200 H         7 CUB7        0.0000 
    141 DU        -33.9900   56.8100   38.8200 H         7 CUB7        0.0000 
    142 DU        -35.2700   57.5700   39.0200 H         7 CUB7        0.0000 
    143 DU        -40.3900   60.6100   39.8400 H         7 CUB7        0.0000 
    144 DU        -33.2300   54.9500   39.4900 H         7 CUB7        0.0000 
    145 DU        -37.0700   57.2200   40.1000 H         7 CUB7        0.0000 
    146 DU        -40.9000   59.5000   40.7100 H         7 CUB7        0.0000 
    147 DU        -30.3300   57.0800   38.7500 H         7 CUB7        0.0000 
    148 DU        -30.8500   55.9700   39.6200 H         7 CUB7        0.0000 
    149 DU        -38.5200   60.5200   40.8400 H         7 CUB7        0.0000 
    150 DU        -31.3700   54.8600   40.4900 H         7 CUB7        0.0000 
    151 DU        -37.7600   58.6500   41.5100 H         7 CUB7        0.0000 
    152 DU        -39.0300   59.4100   41.7100 H         7 CUB7        0.0000 
    153 DU        -40.3100   60.1700   41.9100 H         7 CUB7        0.0000 
    154 DU        -39.4800   57.8700   44.6600 H         7 CUB7        0.0000 
@<TRIPOS>BOND
@<TRIPOS>SUBSTRUCTURE
     1 SER1        1 GROUP   
     2 ALA2       27 GROUP   
     3 ASP3       57 GROUP   
     4 LYS4       84 GROUP   
     5 PHE5       93 GROUP   
     6 GLY6      115 GROUP   
     7 CUB7      137 GROUP   
@<TRIPOS>SET

