#    Name: 5yhw_6_DGT
#    Modification time : Fri May 22 19:19:32 2020

@<TRIPOS>MOLECULE
5yhw_6_DGT
   31    33     1     0     0
SMALL
NO_CHARGES


@<TRIPOS>ATOM
      1 PG        -16.2580   25.4070   21.2800 P.3       1 DGT705      0.0000 
      2 O1G       -16.4690   26.5640   22.2110 O.co2     1 DGT705      0.0000 
      3 O2G       -15.3150   24.4150   21.8940 O.co2     1 DGT705      0.0000 
      4 O3G       -15.7300   25.9490   19.9870 O.co2     1 DGT705      0.0000 
      5 O3B       -17.6670   24.6350   20.9520 O.3       1 DGT705      0.0000 
      6 PB        -19.0230   24.6450   21.8800 P.3       1 DGT705      0.0000 
      7 O1B       -19.2400   26.0160   22.4520 O.co2     1 DGT705      0.0000 
      8 O2B       -20.1580   24.2940   20.9680 O.co2     1 DGT705      0.0000 
      9 O3A       -18.8950   23.5330   23.0790 O.3       1 DGT705      0.0000 
     10 PA        -18.1360   23.7920   24.5150 P.3       1 DGT705      0.0000 
     11 O1A       -17.0540   22.7710   24.6830 O.co2     1 DGT705      0.0000 
     12 O2A       -17.5880   25.1890   24.5350 O.co2     1 DGT705      0.0000 
     13 O5'       -19.1750   23.6330   25.7800 O.3       1 DGT705      0.0000 
     14 C5'       -19.9360   24.7480   26.1510 C.3       1 DGT705      0.0000 
     15 C4'       -19.6890   25.0950   27.5540 C.3       1 DGT705      0.0000 
     16 O4'       -19.7430   23.7250   28.4720 O.3       1 DGT705      0.0000 
     17 C3'       -18.4440   25.5410   27.7370 C.3       1 DGT705      0.0000 
     18 O3'       -18.3890   26.9960   27.5560 O.3       1 DGT705      0.0000 
     19 C2'       -18.0810   25.1440   29.2070 C.3       1 DGT705      0.0000 
     20 C1'       -19.2320   24.1070   29.6100 C.3       1 DGT705      0.0000 
     21 N9        -18.8810   22.9320   30.3840 N.pl3     1 DGT705      0.0000 
     22 C8        -19.2890   22.2830   31.4830 C.2       1 DGT705      0.0000 
     23 N7        -18.5380   21.1840   31.6270 N.2       1 DGT705      0.0000 
     24 C5        -17.6770   21.1410   30.6230 C.2       1 DGT705      0.0000 
     25 C6        -16.5880   20.1180   30.2840 C.2       1 DGT705      0.0000 
     26 O6        -16.4180   19.1820   30.9820 O.2       1 DGT705      0.0000 
     27 N1        -15.7790   20.2920   29.1280 N.am      1 DGT705      0.0000 
     28 C2        -15.9980   21.4330   28.2910 C.2       1 DGT705      0.0000 
     29 N2        -15.1830   21.6280   27.1120 N.pl3     1 DGT705      0.0000 
     30 N3        -17.0380   22.3970   28.6180 N.2       1 DGT705      0.0000 
     31 C4        -17.8910   22.2300   29.8280 C.2       1 DGT705      0.0000 
@<TRIPOS>BOND
     1    1    2 ar   
     2    1    3 ar   
     3    1    4 ar   
     4    1    5 1    
     5    5    6 1    
     6    6    7 ar   
     7    6    8 ar   
     8    6    9 1    
     9    9   10 1    
    10   10   11 ar   
    11   10   12 ar   
    12   10   13 1    
    13   13   14 1    
    14   14   15 1    
    15   15   16 1    
    16   15   17 1    
    17   16   20 1    
    18   17   18 1    
    19   17   19 1    
    20   19   20 1    
    21   20   21 1    
    22   21   22 1    
    23   21   31 1    
    24   22   23 2    
    25   23   24 1    
    26   24   25 1    
    27   24   31 2    
    28   25   26 2    
    29   25   27 am   
    30   27   28 1    
    31   28   29 1    
    32   28   30 2    
    33   30   31 1    
@<TRIPOS>SUBSTRUCTURE
     1 DGT705      1 GROUP   
@<TRIPOS>SET

