#    Name: 5yhw_17_DGT
#    Modification time : Fri May 22 19:21:21 2020

@<TRIPOS>MOLECULE
5yhw_17_DGT
   31    33     1     0     0
SMALL
NO_CHARGES


@<TRIPOS>ATOM
      1 PG         33.5160   10.8330  125.6860 P.3       1 DGT701      0.0000 
      2 O1G        34.4780   10.4070  126.7580 O.co2     1 DGT701      0.0000 
      3 O2G        33.4980   12.3270  125.5430 O.co2     1 DGT701      0.0000 
      4 O3G        33.9040   10.2160  124.3750 O.co2     1 DGT701      0.0000 
      5 O3B        32.0200   10.3260  126.1370 O.3       1 DGT701      0.0000 
      6 PB         30.6310   10.9020  125.4910 P.3       1 DGT701      0.0000 
      7 O1B        29.6300   11.1210  126.5850 O.co2     1 DGT701      0.0000 
      8 O2B        30.8700   12.1970  124.7720 O.co2     1 DGT701      0.0000 
      9 O3A        30.1310    9.8350  124.3550 O.3       1 DGT701      0.0000 
     10 PA         28.9820    8.6820  124.4850 P.3       1 DGT701      0.0000 
     11 O1A        28.0060    9.0490  125.5580 O.co2     1 DGT701      0.0000 
     12 O2A        29.6250    7.3810  124.8430 O.co2     1 DGT701      0.0000 
     13 O5'        28.2240    8.5690  123.0380 O.3       1 DGT701      0.0000 
     14 C5'        27.5380    9.6740  122.5350 C.3       1 DGT701      0.0000 
     15 C4'        26.2010    9.2870  122.0420 C.3       1 DGT701      0.0000 
     16 O4'        25.9030    7.6540  122.2090 O.3       1 DGT701      0.0000 
     17 C3'        25.2760    9.9290  122.7540 C.3       1 DGT701      0.0000 
     18 O3'        24.1990   10.3920  121.8830 O.3       1 DGT701      0.0000 
     19 C2'        24.7310    8.8940  123.7730 C.3       1 DGT701      0.0000 
     20 C1'        24.9500    7.4760  123.0870 C.3       1 DGT701      0.0000 
     21 N9         25.3890    6.5200  124.0730 N.pl3     1 DGT701      0.0000 
     22 C8         26.0250    6.3970  125.2470 C.2       1 DGT701      0.0000 
     23 N7         26.0720    5.0890  125.5530 N.2       1 DGT701      0.0000 
     24 C5         25.4690    4.4180  124.5780 C.2       1 DGT701      0.0000 
     25 C6         25.2140    2.9240  124.3730 C.2       1 DGT701      0.0000 
     26 O6         25.5850    2.1400  125.1740 O.2       1 DGT701      0.0000 
     27 N1         24.5290    2.4700  123.2120 N.am      1 DGT701      0.0000 
     28 C2         24.0840    3.4250  122.2370 C.2       1 DGT701      0.0000 
     29 N2         23.3870    2.9670  121.0530 N.pl3     1 DGT701      0.0000 
     30 N3         24.3260    4.8480  122.4370 N.2       1 DGT701      0.0000 
     31 C4         25.0420    5.3150  123.6500 C.2       1 DGT701      0.0000 
@<TRIPOS>BOND
     1    1    2 ar   
     2    1    3 ar   
     3    1    4 ar   
     4    1    5 1    
     5    5    6 1    
     6    6    7 ar   
     7    6    8 ar   
     8    6    9 1    
     9    9   10 1    
    10   10   11 ar   
    11   10   12 ar   
    12   10   13 1    
    13   13   14 1    
    14   14   15 1    
    15   15   16 1    
    16   15   17 1    
    17   16   20 1    
    18   17   18 1    
    19   17   19 1    
    20   19   20 1    
    21   20   21 1    
    22   21   22 1    
    23   21   31 1    
    24   22   23 2    
    25   23   24 1    
    26   24   25 1    
    27   24   31 2    
    28   25   26 2    
    29   25   27 am   
    30   27   28 1    
    31   28   29 1    
    32   28   30 2    
    33   30   31 1    
@<TRIPOS>SUBSTRUCTURE
     1 DGT701      1 GROUP   
@<TRIPOS>SET

