#    Name: 5yhw_20_DGT_CAVITY_N1_8
#    Modification time : Fri May 22 19:21:44 2020

@<TRIPOS>MOLECULE
5yhw_20_DGT_CAVITY_N1_8
  161     0     7     0     0
SMALL
NO_CHARGES


@<TRIPOS>ATOM
      1 OG          5.7100   17.5100  102.9300 O.3       1 SER1        0.0000 
      2 OG          8.6200   19.6400  102.1900 O.3       1 SER1        0.0000 
      3 OG          8.1000   18.5300  103.0600 O.3       1 SER1        0.0000 
      4 OG          6.8200   19.2900  103.2600 O.3       1 SER1        0.0000 
      5 OG          5.5400   20.0500  103.4700 O.3       1 SER1        0.0000 
      6 OG          6.3000   18.1800  104.1300 O.3       1 SER1        0.0000 
      7 OG          3.5800   22.2400  105.0800 O.3       1 SER1        0.0000 
      8 OG          2.3000   22.9900  105.2800 O.3       1 SER1        0.0000 
      9 OG         10.0700   25.0600  102.1900 O.3       1 SER1        0.0000 
     10 OG          9.5600   23.9500  103.0600 O.3       1 SER1        0.0000 
     11 OG          9.0400   22.8500  103.9300 O.3       1 SER1        0.0000 
     12 OG          8.5200   21.7400  104.8000 O.3       1 SER1        0.0000 
     13 OG          2.1300   25.5300  105.8200 O.3       1 SER1        0.0000 
     14 OG          8.0000   20.6300  105.6700 O.3       1 SER1        0.0000 
     15 OG          2.8900   23.6700  106.4900 O.3       1 SER1        0.0000 
     16 OG          7.4800   19.5300  106.5400 O.3       1 SER1        0.0000 
     17 OG          6.2100   20.2900  106.7500 O.3       1 SER1        0.0000 
     18 OG          4.9300   21.0400  106.9500 O.3       1 SER1        0.0000 
     19 OG          9.1100   22.4100  106.0100 O.3       1 SER1        0.0000 
     20 N          -2.0300   22.5000  102.0800 N.am      2 ALA2        0.0000 
     21 O          -2.2000   25.0300  102.6100 O.2       2 ALA2        0.0000 
     22 O          -0.1600   22.4100  103.0800 O.2       2 ALA2        0.0000 
     23 N          -1.9500   22.0600  104.1500 N.am      2 ALA2        0.0000 
     24 N          -3.2300   22.8200  104.3600 N.am      2 ALA2        0.0000 
     25 N          -2.8900   26.4600  104.0200 N.am      2 ALA2        0.0000 
     26 O           0.4300   23.0800  104.2800 O.2       2 ALA2        0.0000 
     27 O           1.1900   21.2200  104.9500 O.2       2 ALA2        0.0000 
     28 N          -1.3600   22.7300  105.3600 N.am      2 ALA2        0.0000 
     29 N          -2.6400   23.4900  105.5600 N.am      2 ALA2        0.0000 
     30 N          -1.0200   26.3800  105.0200 N.am      2 ALA2        0.0000 
     31 N          -2.3000   27.1300  105.2300 N.am      2 ALA2        0.0000 
     32 O           1.7800   21.8900  106.1500 O.2       2 ALA2        0.0000 
     33 O           0.5000   22.6500  106.3600 O.2       2 ALA2        0.0000 
     34 N          -0.7700   23.4000  106.5600 N.am      2 ALA2        0.0000 
     35 O           1.2600   20.7800  107.0200 O.2       2 ALA2        0.0000 
     36 N          -1.2900   22.3000  107.4300 N.am      2 ALA2        0.0000 
     37 O           0.7500   19.6800  107.8900 O.2       2 ALA2        0.0000 
     38 N          -0.4300   27.0500  106.2300 N.am      2 ALA2        0.0000 
     39 N           0.3300   25.1800  106.8900 N.am      2 ALA2        0.0000 
     40 O           0.5800   22.2100  108.4300 O.2       2 ALA2        0.0000 
     41 N           1.3400   20.3500  109.1000 N.am      2 ALA2        0.0000 
     42 N           0.0600   21.1100  109.3000 N.am      2 ALA2        0.0000 
     43 N          -1.2200   21.8600  109.5100 N.am      2 ALA2        0.0000 
     44 N           0.8200   19.2400  109.9700 N.am      2 ALA2        0.0000 
     45 N           0.3000   18.1300  110.8400 N.am      2 ALA2        0.0000 
     46 O          10.6300   18.6800  107.3400 O.2       2 ALA2        0.0000 
     47 N           0.4100   24.7500  108.9700 N.am      2 ALA2        0.0000 
     48 O           8.8400   18.3300  108.4100 O.2       2 ALA2        0.0000 
     49 N           2.6900   19.1500  110.9700 N.am      2 ALA2        0.0000 
     50 N           1.4100   19.9100  111.1700 N.am      2 ALA2        0.0000 
     51 N           0.8900   18.8100  112.0400 N.am      2 ALA2        0.0000 
     52 N          -0.3900   19.5600  112.2500 N.am      2 ALA2        0.0000 
     53 O           1.7600   23.5600  110.8400 O.2       2 ALA2        0.0000 
     54 N           2.5200   21.6900  111.5100 N.am      2 ALA2        0.0000 
     55 OD1         8.5400   20.0700  100.1100 O.co2     3 ASP3        0.0000 
     56 OD1         7.2700   20.8300  100.3200 O.co2     3 ASP3        0.0000 
     57 OD1         8.0300   18.9700  100.9900 O.co2     3 ASP3        0.0000 
     58 OD1         4.9500   19.3800  102.2600 O.co2     3 ASP3        0.0000 
     59 OD1         9.6500   21.8500  100.4500 O.co2     3 ASP3        0.0000 
     60 OD1         9.1400   20.7500  101.3200 O.co2     3 ASP3        0.0000 
     61 OD1         7.3400   20.4000  102.3900 O.co2     3 ASP3        0.0000 
     62 OD1         6.0600   21.1600  102.6000 O.co2     3 ASP3        0.0000 
     63 OD1        -3.9200   24.2500  105.7600 O.co2     3 ASP3        0.0000 
     64 OD1        10.7600   23.6300  100.7800 O.co2     3 ASP3        0.0000 
     65 OD1        10.2400   22.5200  101.6500 O.co2     3 ASP3        0.0000 
     66 OD1         9.7300   21.4200  102.5200 O.co2     3 ASP3        0.0000 
     67 OD1        -1.5400   25.2700  105.8900 O.co2     3 ASP3        0.0000 
     68 OD1        -2.8100   26.0300  106.1000 O.co2     3 ASP3        0.0000 
     69 OD1        -2.0500   24.1600  106.7600 O.co2     3 ASP3        0.0000 
     70 OD1        10.8300   23.1900  102.8600 O.co2     3 ASP3        0.0000 
     71 OD1        10.3200   22.0900  103.7300 O.co2     3 ASP3        0.0000 
     72 OD1        -0.1800   24.0800  107.7600 O.co2     3 ASP3        0.0000 
     73 OD1        -1.4600   24.8300  107.9700 O.co2     3 ASP3        0.0000 
     74 OD1        -0.7000   22.9700  108.6400 O.co2     3 ASP3        0.0000 
     75 OD1        10.9100   22.7600  104.9300 O.co2     3 ASP3        0.0000 
     76 OD1        10.3900   21.6500  105.8000 O.co2     3 ASP3        0.0000 
     77 OD1         9.8700   20.5500  106.6700 O.co2     3 ASP3        0.0000 
     78 OD1         9.3500   19.4400  107.5400 O.co2     3 ASP3        0.0000 
     79 OD1         8.0800   20.2000  107.7500 O.co2     3 ASP3        0.0000 
     80 OD1         7.5600   19.0900  108.6200 O.co2     3 ASP3        0.0000 
     81 OD1         6.2800   19.8500  108.8200 O.co2     3 ASP3        0.0000 
     82 NZ         10.4900   19.5500  103.1900 N.4       4 LYS4        0.0000 
     83 NZ          9.8000   20.9800  104.6000 N.4       4 LYS4        0.0000 
     84 NZ         10.5600   19.1200  105.2700 N.4       4 LYS4        0.0000 
     85 NZ         11.6700   20.9000  105.6000 N.4       4 LYS4        0.0000 
     86 NZ         11.1500   19.7900  106.4700 N.4       4 LYS4        0.0000 
     87 NZ         -0.1100   23.6400  109.8400 N.4       4 LYS4        0.0000 
     88 NZ          0.6500   21.7800  110.5100 N.4       4 LYS4        0.0000 
     89 NZ         -0.6300   22.5400  110.7100 N.4       4 LYS4        0.0000 
     90 NZ          0.1300   20.6700  111.3800 N.4       4 LYS4        0.0000 
     91 CZ          3.6800   20.1400  102.4700 C.ar      5 PHE5        0.0000 
     92 CZ          4.2700   20.8100  103.6700 C.ar      5 PHE5        0.0000 
     93 CZ          2.9900   21.5700  103.8700 C.ar      5 PHE5        0.0000 
     94 CZ          5.0300   18.9400  104.3400 C.ar      5 PHE5        0.0000 
     95 CZ          4.5100   17.8400  105.2100 C.ar      5 PHE5        0.0000 
     96 CZ          7.1700   22.9300  102.9300 C.ar      5 PHE5        0.0000 
     97 CZ          5.8900   23.6900  103.1300 C.ar      5 PHE5        0.0000 
     98 CZ          6.6500   21.8300  103.8000 C.ar      5 PHE5        0.0000 
     99 CZ          5.3700   22.5900  104.0000 C.ar      5 PHE5        0.0000 
    100 CZ          8.6900   19.2000  104.2600 C.ar      5 PHE5        0.0000 
    101 CZ          6.1300   20.7200  104.6700 C.ar      5 PHE5        0.0000 
    102 CZ          4.8600   21.4800  104.8800 C.ar      5 PHE5        0.0000 
    103 CZ          6.8900   18.8600  105.3400 C.ar      5 PHE5        0.0000 
    104 CZ          5.6200   19.6100  105.5400 C.ar      5 PHE5        0.0000 
    105 CZ          4.3400   20.3700  105.7500 C.ar      5 PHE5        0.0000 
    106 CZ          3.0600   21.1300  105.9500 C.ar      5 PHE5        0.0000 
    107 CZ          6.3800   17.7500  106.2100 C.ar      5 PHE5        0.0000 
    108 CZ          5.1000   18.5100  106.4100 C.ar      5 PHE5        0.0000 
    109 CZ          3.8200   19.2700  106.6200 C.ar      5 PHE5        0.0000 
    110 CZ          2.5400   20.0200  106.8200 C.ar      5 PHE5        0.0000 
    111 CZ          9.2800   19.8800  105.4700 C.ar      5 PHE5        0.0000 
    112 CZ          8.7600   18.7700  106.3400 C.ar      5 PHE5        0.0000 
    113 CZ          3.6500   21.8000  107.1500 C.ar      5 PHE5        0.0000 
    114 CZ          8.2500   17.6600  107.2100 C.ar      5 PHE5        0.0000 
    115 CZ          4.4100   19.9400  107.8200 C.ar      5 PHE5        0.0000 
    116 CZ          3.1300   20.7000  108.0200 C.ar      5 PHE5        0.0000 
    117 CZ          6.4500   17.3100  108.2800 C.ar      5 PHE5        0.0000 
    118 CZ          5.1700   18.0700  108.4900 C.ar      5 PHE5        0.0000 
    119 CZ          3.8900   18.8300  108.6900 C.ar      5 PHE5        0.0000 
    120 CZ          2.1000   18.4800  109.7700 C.ar      5 PHE5        0.0000 
    121 CZ          5.0000   20.6100  109.0300 C.ar      5 PHE5        0.0000 
    122 CZ          5.5900   21.2800  110.2300 C.ar      5 PHE5        0.0000 
    123 CA         -2.7200   23.9300  103.4800 C.3       6 GLY6        0.0000 
    124 CA          0.8500   26.2900  106.0200 C.3       6 GLY6        0.0000 
    125 CA          1.6100   24.4200  106.6900 C.3       6 GLY6        0.0000 
    126 CA         -0.9400   25.9400  107.1000 C.3       6 GLY6        0.0000 
    127 CA          2.3700   22.5600  107.3600 C.3       6 GLY6        0.0000 
    128 CA          1.0900   23.3200  107.5600 C.3       6 GLY6        0.0000 
    129 CA          1.8500   21.4500  108.2300 C.3       6 GLY6        0.0000 
    130 CA          2.6200   19.5900  108.9000 C.3       6 GLY6        0.0000 
    131 CA          1.5800   17.3800  110.6400 C.3       6 GLY6        0.0000 
    132 CA          3.7200   21.3700  109.2300 C.3       6 GLY6        0.0000 
    133 CA          2.4400   22.1300  109.4300 C.3       6 GLY6        0.0000 
    134 CA          1.1700   22.8800  109.6400 C.3       6 GLY6        0.0000 
    135 CA          7.0400   17.9900  109.4900 C.3       6 GLY6        0.0000 
    136 CA          5.7600   18.7400  109.6900 C.3       6 GLY6        0.0000 
    137 CA          4.4800   19.5000  109.9000 C.3       6 GLY6        0.0000 
    138 CA          4.3100   22.0400  110.4300 C.3       6 GLY6        0.0000 
    139 CA          3.8000   20.9300  111.3000 C.3       6 GLY6        0.0000 
    140 DU         -0.9200   24.2700  102.4100 H         7 CUB7        0.0000 
    141 DU         -1.4400   23.1700  103.2800 H         7 CUB7        0.0000 
    142 DU          8.3700   22.6100  100.6500 H         7 CUB7        0.0000 
    143 DU          7.8600   21.5000  101.5200 H         7 CUB7        0.0000 
    144 DU          6.5800   22.2600  101.7300 H         7 CUB7        0.0000 
    145 DU          4.7800   21.9100  102.8000 H         7 CUB7        0.0000 
    146 DU         -1.6100   25.7000  103.8200 H         7 CUB7        0.0000 
    147 DU          1.7100   22.3200  104.0800 H         7 CUB7        0.0000 
    148 DU         -0.8500   23.8400  104.4900 H         7 CUB7        0.0000 
    149 DU         -2.1300   24.6000  104.6900 H         7 CUB7        0.0000 
    150 DU          8.9600   23.2800  101.8600 H         7 CUB7        0.0000 
    151 DU          8.4500   22.1800  102.7300 H         7 CUB7        0.0000 
    152 DU          9.2100   20.3100  103.3900 H         7 CUB7        0.0000 
    153 DU          7.9300   21.0700  103.6000 H         7 CUB7        0.0000 
    154 DU          0.2600   25.6200  104.8200 H         7 CUB7        0.0000 
    155 DU          7.4100   19.9600  104.4700 H         7 CUB7        0.0000 
    156 DU          1.0200   23.7500  105.4900 H         7 CUB7        0.0000 
    157 DU         -0.2600   24.5100  105.6900 H         7 CUB7        0.0000 
    158 DU          6.9700   18.4200  107.4100 H         7 CUB7        0.0000 
    159 DU          5.6900   19.1800  107.6200 H         7 CUB7        0.0000 
    160 DU          3.2100   20.2600  110.1000 H         7 CUB7        0.0000 
    161 DU          1.9300   21.0200  110.3000 H         7 CUB7        0.0000 
@<TRIPOS>BOND
@<TRIPOS>SUBSTRUCTURE
     1 SER1        1 GROUP   
     2 ALA2       20 GROUP   
     3 ASP3       55 GROUP   
     4 LYS4       82 GROUP   
     5 PHE5       91 GROUP   
     6 GLY6      123 GROUP   
     7 CUB7      140 GROUP   
@<TRIPOS>SET

