#    Name: 5yhw_12_DGT
#    Modification time : Fri May 22 19:20:31 2020

@<TRIPOS>MOLECULE
5yhw_12_DGT
   31    33     1     0     0
SMALL
NO_CHARGES


@<TRIPOS>ATOM
      1 PG        -27.8900   36.9650   74.9170 P.3       1 DGT703      0.0000 
      2 O1G       -26.8130   37.3760   75.8890 O.co2     1 DGT703      0.0000 
      3 O2G       -28.8940   36.0990   75.6260 O.co2     1 DGT703      0.0000 
      4 O3G       -27.2670   36.1830   73.7910 O.co2     1 DGT703      0.0000 
      5 O3B       -28.6500   38.2980   74.3370 O.3       1 DGT703      0.0000 
      6 PB        -29.4850   39.2960   75.3400 P.3       1 DGT703      0.0000 
      7 O1B       -28.5710   39.7480   76.4520 O.co2     1 DGT703      0.0000 
      8 O2B       -30.6570   38.5450   75.9390 O.co2     1 DGT703      0.0000 
      9 O3A       -30.0640   40.6110   74.5290 O.3       1 DGT703      0.0000 
     10 PA        -29.4130   41.3320   73.1950 P.3       1 DGT703      0.0000 
     11 O1A       -29.1890   42.7870   73.5300 O.co2     1 DGT703      0.0000 
     12 O2A       -30.3950   41.2420   72.0460 O.co2     1 DGT703      0.0000 
     13 O5'       -27.9750   40.6400   72.7640 O.3       1 DGT703      0.0000 
     14 C5'       -27.7830   40.1720   71.4560 C.3       1 DGT703      0.0000 
     15 C4'       -27.6210   41.2810   70.4950 C.3       1 DGT703      0.0000 
     16 O4'       -26.9300   42.6180   71.2180 O.3       1 DGT703      0.0000 
     17 C3'       -26.8330   40.9080   69.4810 C.3       1 DGT703      0.0000 
     18 O3'       -27.3620   41.4210   68.2110 O.3       1 DGT703      0.0000 
     19 C2'       -25.4400   41.5360   69.7720 C.3       1 DGT703      0.0000 
     20 C1'       -25.6950   42.7400   70.7950 C.3       1 DGT703      0.0000 
     21 N9        -24.7710   42.6420   71.9070 N.pl3     1 DGT703      0.0000 
     22 C8        -24.5930   42.0720   73.1130 C.2       1 DGT703      0.0000 
     23 N7        -23.3960   42.4720   73.5790 N.2       1 DGT703      0.0000 
     24 C5        -22.8460   43.2770   72.6720 C.2       1 DGT703      0.0000 
     25 C6        -21.5080   44.0240   72.6490 C.2       1 DGT703      0.0000 
     26 O6        -20.7640   43.9250   73.5640 O.2       1 DGT703      0.0000 
     27 N1        -21.1570   44.8350   71.5260 N.am      1 DGT703      0.0000 
     28 C2        -22.0690   44.9450   70.4170 C.2       1 DGT703      0.0000 
     29 N2        -21.7160   45.7690   69.2740 N.pl3     1 DGT703      0.0000 
     30 N3        -23.3450   44.2300   70.4450 N.2       1 DGT703      0.0000 
     31 C4        -23.7060   43.3840   71.6200 C.2       1 DGT703      0.0000 
@<TRIPOS>BOND
     1    1    2 ar   
     2    1    3 ar   
     3    1    4 ar   
     4    1    5 1    
     5    5    6 1    
     6    6    7 ar   
     7    6    8 ar   
     8    6    9 1    
     9    9   10 1    
    10   10   11 ar   
    11   10   12 ar   
    12   10   13 1    
    13   13   14 1    
    14   14   15 1    
    15   15   16 1    
    16   15   17 1    
    17   16   20 1    
    18   17   18 1    
    19   17   19 1    
    20   19   20 1    
    21   20   21 1    
    22   21   22 1    
    23   21   31 1    
    24   22   23 2    
    25   23   24 1    
    26   24   25 1    
    27   24   31 2    
    28   25   26 2    
    29   25   27 am   
    30   27   28 1    
    31   28   29 1    
    32   28   30 2    
    33   30   31 1    
@<TRIPOS>SUBSTRUCTURE
     1 DGT703      1 GROUP   
@<TRIPOS>SET

