#    Name: 5yhw_18_DGT_CAVITY_N1_8
#    Modification time : Fri May 22 19:21:27 2020

@<TRIPOS>MOLECULE
5yhw_18_DGT_CAVITY_N1_8
  175     0     7     0     0
SMALL
NO_CHARGES


@<TRIPOS>ATOM
      1 OG         28.3500  -21.3600  113.5100 O.3       1 SER1        0.0000 
      2 OG         26.5600  -21.7000  114.5900 O.3       1 SER1        0.0000 
      3 OG         28.9400  -20.6800  114.7200 O.3       1 SER1        0.0000 
      4 OG         29.7000  -22.5500  115.3800 O.3       1 SER1        0.0000 
      5 OG         28.4300  -21.7900  115.5900 O.3       1 SER1        0.0000 
      6 OG         27.1500  -21.0300  115.7900 O.3       1 SER1        0.0000 
      7 OG         25.3500  -21.3800  116.8700 O.3       1 SER1        0.0000 
      8 OG         24.8300  -22.4900  117.7400 O.3       1 SER1        0.0000 
      9 OG         25.5900  -24.3500  118.4000 O.3       1 SER1        0.0000 
     10 OG         24.3200  -23.5900  118.6100 O.3       1 SER1        0.0000 
     11 OG         27.6300  -26.9700  118.8700 O.3       1 SER1        0.0000 
     12 OG         26.3500  -26.2200  119.0700 O.3       1 SER1        0.0000 
     13 OG         25.0800  -25.4600  119.2700 O.3       1 SER1        0.0000 
     14 OG         27.1200  -28.0800  119.7400 O.3       1 SER1        0.0000 
     15 OG         25.8400  -27.3200  119.9400 O.3       1 SER1        0.0000 
     16 OG         29.0200  -21.1200  116.7900 O.3       1 SER1        0.0000 
     17 OG         25.4200  -21.8200  118.9400 O.3       1 SER1        0.0000 
     18 OG         26.1800  -23.6800  119.6100 O.3       1 SER1        0.0000 
     19 OG         26.9500  -25.5400  120.2700 O.3       1 SER1        0.0000 
     20 OG         28.3300  -19.6900  118.2000 O.3       1 SER1        0.0000 
     21 OG         27.2900  -21.9000  119.9400 O.3       1 SER1        0.0000 
     22 OG         26.7700  -23.0100  120.8100 O.3       1 SER1        0.0000 
     23 OG         26.2600  -24.1100  121.6800 O.3       1 SER1        0.0000 
     24 OG         27.3600  -22.3400  122.0200 O.3       1 SER1        0.0000 
     25 OG         26.8500  -23.4400  122.8900 O.3       1 SER1        0.0000 
     26 N          21.2700  -24.8500  115.2000 N.am      2 ALA2        0.0000 
     27 N          20.7500  -25.9600  116.0700 N.am      2 ALA2        0.0000 
     28 N          17.6800  -25.5500  117.3500 N.am      2 ALA2        0.0000 
     29 N          22.8900  -21.9700  114.6600 N.am      2 ALA2        0.0000 
     30 N          22.3700  -23.0700  115.5300 N.am      2 ALA2        0.0000 
     31 N          20.0600  -24.5300  117.4800 N.am      2 ALA2        0.0000 
     32 N          18.7800  -23.7700  117.6800 N.am      2 ALA2        0.0000 
     33 N          20.8200  -26.3900  118.1400 N.am      2 ALA2        0.0000 
     34 N          19.5400  -25.6300  118.3500 N.am      2 ALA2        0.0000 
     35 N          18.2700  -24.8700  118.5500 N.am      2 ALA2        0.0000 
     36 N          24.1400  -29.7700  118.4000 N.am      2 ALA2        0.0000 
     37 N          19.0300  -26.7400  119.2200 N.am      2 ALA2        0.0000 
     38 O          24.5200  -19.0800  114.1200 O.2       2 ALA2        0.0000 
     39 O          24.0000  -20.1900  114.9900 O.2       2 ALA2        0.0000 
     40 N          21.9300  -24.6100  118.4800 N.am      2 ALA2        0.0000 
     41 O          22.6900  -26.4800  119.1400 O.2       2 ALA2        0.0000 
     42 N          21.4100  -25.7200  119.3500 N.am      2 ALA2        0.0000 
     43 N          24.7300  -29.1000  119.6100 N.am      2 ALA2        0.0000 
     44 N          22.1700  -27.5800  120.0100 N.am      2 ALA2        0.0000 
     45 N          25.4900  -30.9700  120.2700 N.am      2 ALA2        0.0000 
     46 N          24.9700  -32.0700  121.1500 N.am      2 ALA2        0.0000 
     47 O          23.8000  -24.7000  119.4800 O.2       2 ALA2        0.0000 
     48 O          24.5600  -26.5600  120.1400 O.2       2 ALA2        0.0000 
     49 O          24.0400  -27.6700  121.0200 O.2       2 ALA2        0.0000 
     50 N          23.5200  -28.7800  121.8900 N.am      2 ALA2        0.0000 
     51 O          25.6700  -24.7900  120.4800 O.2       2 ALA2        0.0000 
     52 O          25.1500  -25.8900  121.3500 O.2       2 ALA2        0.0000 
     53 O          24.6300  -27.0000  122.2200 O.2       2 ALA2        0.0000 
     54 N          24.1100  -28.1100  123.0900 N.am      2 ALA2        0.0000 
     55 N          26.1500  -30.7300  123.5500 N.am      2 ALA2        0.0000 
     56 N          24.8700  -29.9700  123.7600 N.am      2 ALA2        0.0000 
     57 O          25.7400  -25.2200  122.5500 O.2       2 ALA2        0.0000 
     58 N          26.7400  -30.0600  124.7600 N.am      2 ALA2        0.0000 
     59 N          25.4700  -29.3000  124.9600 N.am      2 ALA2        0.0000 
     60 N          27.6100  -25.3100  123.5500 N.am      2 ALA2        0.0000 
     61 N          26.3300  -24.5500  123.7600 N.am      2 ALA2        0.0000 
     62 N          29.9900  -24.2900  123.6800 N.am      2 ALA2        0.0000 
     63 N          28.7200  -23.5300  123.8900 N.am      2 ALA2        0.0000 
     64 N          27.4400  -22.7700  124.0900 N.am      2 ALA2        0.0000 
     65 N          29.4800  -25.3900  124.5500 N.am      2 ALA2        0.0000 
     66 N          25.6400  -23.1200  125.1700 N.am      2 ALA2        0.0000 
     67 N          29.3100  -22.8600  125.0900 N.am      2 ALA2        0.0000 
     68 OD1        23.4100  -20.8600  113.7900 O.co2     3 ASP3        0.0000 
     69 OD1        22.8600  -29.0100  118.6100 O.co2     3 ASP3        0.0000 
     70 OD1        27.0700  -20.6000  113.7200 O.co2     3 ASP3        0.0000 
     71 OD1        25.8000  -19.8400  113.9200 O.co2     3 ASP3        0.0000 
     72 OD1        25.2800  -20.9500  114.7900 O.co2     3 ASP3        0.0000 
     73 OD1        24.2100  -30.2100  120.4800 O.co2     3 ASP3        0.0000 
     74 OD1        22.9300  -29.4500  120.6800 O.co2     3 ASP3        0.0000 
     75 OD1        21.6600  -28.6900  120.8900 O.co2     3 ASP3        0.0000 
     76 OD1        23.6900  -31.3100  121.3500 O.co2     3 ASP3        0.0000 
     77 OD1        24.2800  -30.6400  122.5500 O.co2     3 ASP3        0.0000 
     78 OD1        23.0100  -29.8800  122.7600 O.co2     3 ASP3        0.0000 
     79 OD1        30.8100  -20.7700  115.7200 O.co2     3 ASP3        0.0000 
     80 OD1        30.1200  -19.3400  117.1300 O.co2     3 ASP3        0.0000 
     81 OD1        30.8800  -21.2100  117.7900 O.co2     3 ASP3        0.0000 
     82 OD1        31.4700  -20.5300  119.0000 O.co2     3 ASP3        0.0000 
     83 OD1        30.2000  -19.7800  119.2000 O.co2     3 ASP3        0.0000 
     84 OD1        28.9200  -19.0200  119.4000 O.co2     3 ASP3        0.0000 
     85 OD1        29.6800  -20.8800  120.0700 O.co2     3 ASP3        0.0000 
     86 OD1        29.1600  -21.9900  120.9400 O.co2     3 ASP3        0.0000 
     87 OD1        28.6400  -23.0900  121.8100 O.co2     3 ASP3        0.0000 
     88 OD1        29.2300  -22.4200  123.0200 O.co2     3 ASP3        0.0000 
     89 NZ         21.5100  -27.8200  116.7400 N.4       4 LYS4        0.0000 
     90 NZ         20.2300  -27.0600  116.9400 N.4       4 LYS4        0.0000 
     91 NZ         18.9500  -26.3000  117.1400 N.4       4 LYS4        0.0000 
     92 NZ         17.1600  -26.6500  118.2200 N.4       4 LYS4        0.0000 
     93 NZ         21.5800  -28.2600  118.8100 N.4       4 LYS4        0.0000 
     94 NZ         20.3000  -27.5000  119.0100 N.4       4 LYS4        0.0000 
     95 NZ         22.7200  -19.4300  115.2000 N.4       4 LYS4        0.0000 
     96 NZ         27.6600  -19.9300  114.9200 N.4       4 LYS4        0.0000 
     97 NZ         23.3100  -18.7600  116.4000 N.4       4 LYS4        0.0000 
     98 NZ         29.5300  -20.0100  115.9200 N.4       4 LYS4        0.0000 
     99 NZ         31.1000  -22.5100  124.0200 N.4       4 LYS4        0.0000 
    100 NZ         29.8200  -21.7500  124.2200 N.4       4 LYS4        0.0000 
    101 NZ         30.5800  -23.6200  124.8900 N.4       4 LYS4        0.0000 
    102 CZ         23.6500  -23.8300  115.3300 C.ar      5 PHE5        0.0000 
    103 CZ         24.7600  -22.0500  115.6600 C.ar      5 PHE5        0.0000 
    104 CZ         24.2400  -23.1600  116.5300 C.ar      5 PHE5        0.0000 
    105 CZ         23.7300  -24.2700  117.4000 C.ar      5 PHE5        0.0000 
    106 CZ         30.2200  -21.4400  114.5100 C.ar      5 PHE5        0.0000 
    107 CZ         26.3900  -19.1700  115.1200 C.ar      5 PHE5        0.0000 
    108 CZ         25.1100  -18.4100  115.3300 C.ar      5 PHE5        0.0000 
    109 CZ         24.5900  -19.5200  116.2000 C.ar      5 PHE5        0.0000 
    110 CZ         24.0700  -20.6200  117.0700 C.ar      5 PHE5        0.0000 
    111 CZ         22.7900  -19.8600  117.2700 C.ar      5 PHE5        0.0000 
    112 CZ         23.5600  -21.7300  117.9400 C.ar      5 PHE5        0.0000 
    113 CZ         32.0900  -21.5300  115.5100 C.ar      5 PHE5        0.0000 
    114 CZ         28.2500  -19.2500  116.1200 C.ar      5 PHE5        0.0000 
    115 CZ         31.5700  -22.6400  116.3800 C.ar      5 PHE5        0.0000 
    116 CZ         30.2900  -21.8800  116.5900 C.ar      5 PHE5        0.0000 
    117 CZ         26.4600  -19.6000  117.2000 C.ar      5 PHE5        0.0000 
    118 CZ         25.1800  -18.8400  117.4000 C.ar      5 PHE5        0.0000 
    119 CZ         31.0500  -23.7400  117.2600 C.ar      5 PHE5        0.0000 
    120 CZ         29.7800  -22.9800  117.4600 C.ar      5 PHE5        0.0000 
    121 CZ         28.5000  -22.2300  117.6600 C.ar      5 PHE5        0.0000 
    122 CZ         27.2200  -21.4700  117.8700 C.ar      5 PHE5        0.0000 
    123 CZ         25.9400  -20.7100  118.0700 C.ar      5 PHE5        0.0000 
    124 CZ         24.6600  -19.9500  118.2700 C.ar      5 PHE5        0.0000 
    125 CZ         26.7000  -22.5700  118.7400 C.ar      5 PHE5        0.0000 
    126 CZ         27.4600  -24.4400  119.4000 C.ar      5 PHE5        0.0000 
    127 CZ         28.8400  -18.5800  117.3300 C.ar      5 PHE5        0.0000 
    128 CZ         27.8100  -20.8000  119.0700 C.ar      5 PHE5        0.0000 
    129 CZ         26.5300  -20.0400  119.2700 C.ar      5 PHE5        0.0000 
    130 CZ         25.0500  -23.7900  123.9600 C.ar      5 PHE5        0.0000 
    131 CZ         26.1600  -22.0100  124.3000 C.ar      5 PHE5        0.0000 
    132 CA         22.0300  -26.7100  115.8600 C.3       6 GLY6        0.0000 
    133 CA         23.1400  -24.9400  116.2000 C.3       6 GLY6        0.0000 
    134 CA         21.8600  -24.1800  116.4000 C.3       6 GLY6        0.0000 
    135 CA         20.5800  -23.4200  116.6100 C.3       6 GLY6        0.0000 
    136 CA         22.6200  -26.0400  117.0700 C.3       6 GLY6        0.0000 
    137 CA         23.3800  -27.9100  117.7400 C.3       6 GLY6        0.0000 
    138 CA         22.1000  -27.1500  117.9400 C.3       6 GLY6        0.0000 
    139 CA         23.4800  -21.2900  115.8600 C.3       6 GLY6        0.0000 
    140 CA         22.2000  -20.5400  116.0700 C.3       6 GLY6        0.0000 
    141 CA         21.6900  -21.6400  116.9400 C.3       6 GLY6        0.0000 
    142 CA         22.4500  -23.5100  117.6100 C.3       6 GLY6        0.0000 
    143 CA         21.1700  -22.7500  117.8100 C.3       6 GLY6        0.0000 
    144 CA         23.2100  -25.3700  118.2700 C.3       6 GLY6        0.0000 
    145 CA         20.6500  -23.8600  118.6800 C.3       6 GLY6        0.0000 
    146 CA         25.2500  -27.9900  118.7400 C.3       6 GLY6        0.0000 
    147 CA         23.9700  -27.2400  118.9400 C.3       6 GLY6        0.0000 
    148 CA         23.0400  -22.8400  118.8100 C.3       6 GLY6        0.0000 
    149 CA         22.5200  -23.9400  119.6800 C.3       6 GLY6        0.0000 
    150 CA         23.6000  -29.2100  123.9600 C.3       6 GLY6        0.0000 
    151 CA         26.5000  -27.0900  123.2200 C.3       6 GLY6        0.0000 
    152 CA         25.2200  -26.3300  123.4200 C.3       6 GLY6        0.0000 
    153 CA         25.9800  -28.1900  124.0900 C.3       6 GLY6        0.0000 
    154 DU         21.3400  -25.2800  117.2700 H         7 CUB7        0.0000 
    155 DU         22.9700  -22.4000  116.7400 H         7 CUB7        0.0000 
    156 DU         23.4500  -28.3400  119.8100 H         7 CUB7        0.0000 
    157 DU         25.8700  -20.2700  115.9900 H         7 CUB7        0.0000 
    158 DU         26.6000  -29.1900  120.6100 H         7 CUB7        0.0000 
    159 DU         25.3200  -28.4300  120.8100 H         7 CUB7        0.0000 
    160 DU         26.0800  -30.2900  121.4800 H         7 CUB7        0.0000 
    161 DU         24.8000  -29.5400  121.6800 H         7 CUB7        0.0000 
    162 DU         25.5600  -31.4000  122.3500 H         7 CUB7        0.0000 
    163 DU         27.7400  -20.3600  117.0000 H         7 CUB7        0.0000 
    164 DU         26.4300  -26.6500  121.1500 H         7 CUB7        0.0000 
    165 DU         25.9100  -27.7600  122.0200 H         7 CUB7        0.0000 
    166 DU         27.9500  -30.3800  122.4800 H         7 CUB7        0.0000 
    167 DU         26.6700  -29.6200  122.6800 H         7 CUB7        0.0000 
    168 DU         25.3900  -28.8600  122.8900 H         7 CUB7        0.0000 
    169 DU         27.4300  -31.4900  123.3500 H         7 CUB7        0.0000 
    170 DU         29.6100  -20.4500  118.0000 H         7 CUB7        0.0000 
    171 DU         30.3700  -22.3100  118.6600 H         7 CUB7        0.0000 
    172 DU         29.0900  -21.5500  118.8700 H         7 CUB7        0.0000 
    173 DU         27.5400  -24.8700  121.4800 H         7 CUB7        0.0000 
    174 DU         27.0200  -25.9800  122.3500 H         7 CUB7        0.0000 
    175 DU         28.1300  -24.2000  122.6800 H         7 CUB7        0.0000 
@<TRIPOS>BOND
@<TRIPOS>SUBSTRUCTURE
     1 SER1        1 GROUP   
     2 ALA2       26 GROUP   
     3 ASP3       68 GROUP   
     4 LYS4       89 GROUP   
     5 PHE5      102 GROUP   
     6 GLY6      132 GROUP   
     7 CUB7      154 GROUP   
@<TRIPOS>SET

