#    Name: 5yhw_15_DGT
#    Modification time : Fri May 22 19:20:57 2020

@<TRIPOS>MOLECULE
5yhw_15_DGT
   31    33     1     0     0
SMALL
NO_CHARGES


@<TRIPOS>ATOM
      1 PG         34.0140   16.4170  125.5500 P.3       1 DGT703      0.0000 
      2 O1G        33.9230   15.0510  124.9280 O.co2     1 DGT703      0.0000 
      3 O2G        35.3920   16.6130  126.1250 O.co2     1 DGT703      0.0000 
      4 O3G        33.7300   17.4540  124.5010 O.co2     1 DGT703      0.0000 
      5 O3B        32.9230   16.6260  126.7550 O.3       1 DGT703      0.0000 
      6 PB         31.7080   15.6100  127.1920 P.3       1 DGT703      0.0000 
      7 O1B        31.6950   15.5400  128.6930 O.co2     1 DGT703      0.0000 
      8 O2B        31.8980   14.2310  126.6240 O.co2     1 DGT703      0.0000 
      9 O3A        30.3030   16.2760  126.6960 O.3       1 DGT703      0.0000 
     10 PA         29.7560   16.1110  125.1670 P.3       1 DGT703      0.0000 
     11 O1A        29.5690   17.4640  124.5430 O.co2     1 DGT703      0.0000 
     12 O2A        30.7510   15.3130  124.3730 O.co2     1 DGT703      0.0000 
     13 O5'        28.3160   15.3290  125.2180 O.3       1 DGT703      0.0000 
     14 C5'        28.3480   13.9360  125.2570 C.3       1 DGT703      0.0000 
     15 C4'        27.6030   13.3910  124.1140 C.3       1 DGT703      0.0000 
     16 O4'        26.1600   14.1790  123.9520 O.3       1 DGT703      0.0000 
     17 C3'        28.2110   13.6500  122.9570 C.3       1 DGT703      0.0000 
     18 O3'        29.2300   12.6330  122.6870 O.3       1 DGT703      0.0000 
     19 C2'        27.0600   13.5760  121.9050 C.3       1 DGT703      0.0000 
     20 C1'        25.7320   13.8010  122.7780 C.3       1 DGT703      0.0000 
     21 N9         24.7530   14.7590  122.2870 N.pl3     1 DGT703      0.0000 
     22 C8         23.4370   14.8530  122.0260 C.2       1 DGT703      0.0000 
     23 N7         23.1770   16.1050  121.6100 N.2       1 DGT703      0.0000 
     24 C5         24.3130   16.7870  121.6300 C.2       1 DGT703      0.0000 
     25 C6         24.6170   18.2470  121.2700 C.2       1 DGT703      0.0000 
     26 O6         23.7460   18.9610  120.9010 O.2       1 DGT703      0.0000 
     27 N1         25.9470   18.7500  121.3810 N.am      1 DGT703      0.0000 
     28 C2         26.9910   17.8710  121.8300 C.2       1 DGT703      0.0000 
     29 N2         28.3530   18.3520  121.9510 N.pl3     1 DGT703      0.0000 
     30 N3         26.6900   16.4940  122.1800 N.2       1 DGT703      0.0000 
     31 C4         25.3070   15.9550  122.0610 C.2       1 DGT703      0.0000 
@<TRIPOS>BOND
     1    1    2 ar   
     2    1    3 ar   
     3    1    4 ar   
     4    1    5 1    
     5    5    6 1    
     6    6    7 ar   
     7    6    8 ar   
     8    6    9 1    
     9    9   10 1    
    10   10   11 ar   
    11   10   12 ar   
    12   10   13 1    
    13   13   14 1    
    14   14   15 1    
    15   15   16 1    
    16   15   17 1    
    17   16   20 1    
    18   17   18 1    
    19   17   19 1    
    20   19   20 1    
    21   20   21 1    
    22   21   22 1    
    23   21   31 1    
    24   22   23 2    
    25   23   24 1    
    26   24   25 1    
    27   24   31 2    
    28   25   26 2    
    29   25   27 am   
    30   27   28 1    
    31   28   29 1    
    32   28   30 2    
    33   30   31 1    
@<TRIPOS>SUBSTRUCTURE
     1 DGT703      1 GROUP   
@<TRIPOS>SET

