#    Name: 5yhw_7_DGT_CAVITY_N1_4
#    Modification time : Fri May 22 19:19:38 2020

@<TRIPOS>MOLECULE
5yhw_7_DGT_CAVITY_N1_4
  103     0     7     0     0
SMALL
NO_CHARGES


@<TRIPOS>ATOM
      1 OG         -0.1400  -15.7800   90.7400 O.3       1 SER1        0.0000 
      2 OG          0.4600  -15.1100   91.9400 O.3       1 SER1        0.0000 
      3 OG         -4.9300  -16.1600   95.1700 O.3       1 SER1        0.0000 
      4 OG         -3.0600  -16.2400   96.1700 O.3       1 SER1        0.0000 
      5 OG         -4.3400  -15.4900   96.3700 O.3       1 SER1        0.0000 
      6 OG         -0.1600  -14.1200   95.4300 O.3       1 SER1        0.0000 
      7 OG         -1.9600  -14.4700   96.5000 O.3       1 SER1        0.0000 
      8 OG         -2.4700  -15.5700   97.3700 O.3       1 SER1        0.0000 
      9 OG         -0.0900  -14.5500   97.5000 O.3       1 SER1        0.0000 
     10 OG         -3.9200  -12.2800   98.1100 O.3       1 SER1        0.0000 
     11 OG         -0.6100  -15.6600   98.3700 O.3       1 SER1        0.0000 
     12 N           2.3500  -16.8700   88.2600 N.am      2 ALA2        0.0000 
     13 N           1.4200  -12.4600   88.1300 N.am      2 ALA2        0.0000 
     14 O           3.4600  -15.0900   88.5900 O.2       2 ALA2        0.0000 
     15 N           2.1800  -14.3300   88.7900 N.am      2 ALA2        0.0000 
     16 N           0.9000  -13.5700   89.0000 N.am      2 ALA2        0.0000 
     17 N           2.9400  -16.1900   89.4600 N.am      2 ALA2        0.0000 
     18 N           2.4200  -17.3000   90.3300 N.am      2 ALA2        0.0000 
     19 N           4.0500  -14.4200   89.7900 N.am      2 ALA2        0.0000 
     20 N           2.2500  -14.7600   90.8700 N.am      2 ALA2        0.0000 
     21 N           0.9700  -14.0100   91.0700 N.am      2 ALA2        0.0000 
     22 N           5.9100  -14.5000   90.8000 N.am      2 ALA2        0.0000 
     23 N           4.6400  -13.7400   91.0000 N.am      2 ALA2        0.0000 
     24 N           4.1200  -14.8500   91.8700 N.am      2 ALA2        0.0000 
     25 N           2.8400  -14.0900   92.0700 N.am      2 ALA2        0.0000 
     26 N           5.9900  -14.9400   92.8700 N.am      2 ALA2        0.0000 
     27 O           1.7800  -14.6400   98.5000 O.2       2 ALA2        0.0000 
     28 O          -0.0100  -14.9900   99.5800 O.2       2 ALA2        0.0000 
     29 O           2.3700  -13.9700   99.7100 O.2       2 ALA2        0.0000 
     30 OD1         2.8700  -15.7600   87.3900 O.co2     3 ASP3        0.0000 
     31 OD1         4.7300  -15.8500   88.3900 O.co2     3 ASP3        0.0000 
     32 OD1         4.2200  -16.9500   89.2600 O.co2     3 ASP3        0.0000 
     33 OD1        -5.6900  -14.2900   94.5000 O.co2     3 ASP3        0.0000 
     34 OD1        -6.2100  -15.4000   95.3700 O.co2     3 ASP3        0.0000 
     35 OD1        -3.3100  -13.2700   94.6300 O.co2     3 ASP3        0.0000 
     36 OD1        -4.5800  -12.5100   94.8300 O.co2     3 ASP3        0.0000 
     37 OD1        -5.8600  -11.7600   95.0400 O.co2     3 ASP3        0.0000 
     38 OD1        -5.1000  -13.6200   95.7000 O.co2     3 ASP3        0.0000 
     39 OD1        -5.6200  -14.7300   96.5700 O.co2     3 ASP3        0.0000 
     40 OD1        -6.1400  -15.8300   97.4400 O.co2     3 ASP3        0.0000 
     41 OD1        -3.9900  -11.8400   96.0400 O.co2     3 ASP3        0.0000 
     42 OD1        -4.5100  -12.9500   96.9100 O.co2     3 ASP3        0.0000 
     43 OD1        -5.7900  -12.1900   97.1100 O.co2     3 ASP3        0.0000 
     44 OD1        -5.0300  -14.0600   97.7800 O.co2     3 ASP3        0.0000 
     45 OD1        -2.9900  -16.6800   98.2400 O.co2     3 ASP3        0.0000 
     46 OD1        -4.2700  -15.9200   98.4500 O.co2     3 ASP3        0.0000 
     47 OD1         2.4700  -16.0700   97.0900 O.co2     3 ASP3        0.0000 
     48 OD1        -1.1200  -16.7600   99.2400 O.co2     3 ASP3        0.0000 
     49 NZ          4.8100  -16.2800   90.4600 N.4       4 LYS4        0.0000 
     50 NZ         -6.7300  -16.5000   96.2400 N.4       4 LYS4        0.0000 
     51 NZ          5.4000  -15.6100   91.6700 N.4       4 LYS4        0.0000 
     52 NZ          7.2700  -15.7000   92.6700 N.4       4 LYS4        0.0000 
     53 NZ         -3.7500  -14.8100   97.5700 N.4       4 LYS4        0.0000 
     54 NZ         -1.8800  -14.9000   98.5800 N.4       4 LYS4        0.0000 
     55 NZ         -3.1600  -14.1400   98.7800 N.4       4 LYS4        0.0000 
     56 NZ         -4.4400  -13.3800   98.9800 N.4       4 LYS4        0.0000 
     57 NZ         -2.4000  -16.0100   99.4500 N.4       4 LYS4        0.0000 
     58 NZ          2.8900  -12.8600   98.8400 N.4       4 LYS4        0.0000 
     59 CZ         -0.3100  -13.2500   91.2800 C.ar      5 PHE5        0.0000 
     60 CZ         -4.4100  -15.0500   94.3000 C.ar      5 PHE5        0.0000 
     61 CZ          1.5600  -13.3300   92.2800 C.ar      5 PHE5        0.0000 
     62 CZ          2.3200  -15.2000   92.9400 C.ar      5 PHE5        0.0000 
     63 CZ          1.0500  -14.4400   93.1500 C.ar      5 PHE5        0.0000 
     64 CZ         -0.2300  -13.6800   93.3500 C.ar      5 PHE5        0.0000 
     65 CZ         -2.0300  -14.0300   94.4300 C.ar      5 PHE5        0.0000 
     66 CZ         -2.5500  -15.1400   95.3000 C.ar      5 PHE5        0.0000 
     67 CZ         -4.8600  -16.5900   97.2400 C.ar      5 PHE5        0.0000 
     68 CZ          2.9100  -14.5300   94.1500 C.ar      5 PHE5        0.0000 
     69 CZ          1.6400  -13.7700   94.3500 C.ar      5 PHE5        0.0000 
     70 CZ          2.4000  -15.6300   95.0200 C.ar      5 PHE5        0.0000 
     71 CZ          1.1200  -14.8800   95.2200 C.ar      5 PHE5        0.0000 
     72 CZ          3.5000  -13.8600   95.3500 C.ar      5 PHE5        0.0000 
     73 CZ          2.2300  -13.1000   95.5600 C.ar      5 PHE5        0.0000 
     74 CZ          2.9900  -14.9600   96.2200 C.ar      5 PHE5        0.0000 
     75 CZ          1.7100  -14.2000   96.4300 C.ar      5 PHE5        0.0000 
     76 CZ          1.1900  -15.3100   97.3000 C.ar      5 PHE5        0.0000 
     77 CZ         -1.3700  -13.7900   97.7000 C.ar      5 PHE5        0.0000 
     78 CZ         -2.6400  -13.0400   97.9100 C.ar      5 PHE5        0.0000 
     79 CZ          4.0900  -13.1800   96.5600 C.ar      5 PHE5        0.0000 
     80 CZ          2.8200  -12.4300   96.7600 C.ar      5 PHE5        0.0000 
     81 CZ          2.3000  -13.5300   97.6300 C.ar      5 PHE5        0.0000 
     82 CZ          1.0200  -12.7700   97.8300 C.ar      5 PHE5        0.0000 
     83 CA          1.1400  -16.5400   90.5300 C.3       6 GLY6        0.0000 
     84 CA          3.5300  -15.5200   90.6700 C.3       6 GLY6        0.0000 
     85 CA          4.2900  -17.3900   91.3300 C.3       6 GLY6        0.0000 
     86 CA          1.7300  -15.8700   91.7400 C.3       6 GLY6        0.0000 
     87 CA          4.8800  -16.7100   92.5400 C.3       6 GLY6        0.0000 
     88 CA          3.6000  -15.9600   92.7400 C.3       6 GLY6        0.0000 
     89 CA          4.7100  -14.1800   93.0700 C.3       6 GLY6        0.0000 
     90 CA          3.4300  -13.4200   93.2800 C.3       6 GLY6        0.0000 
     91 CA          4.1900  -15.2900   93.9400 C.3       6 GLY6        0.0000 
     92 CA         -5.2700  -11.0800   96.2400 C.3       6 GLY6        0.0000 
     93 CA          6.5800  -14.2700   94.0700 C.3       6 GLY6        0.0000 
     94 CA          5.3000  -13.5100   94.2800 C.3       6 GLY6        0.0000 
     95 CA          4.7800  -14.6100   95.1500 C.3       6 GLY6        0.0000 
     96 CA          3.5800  -14.2900   97.4300 C.3       6 GLY6        0.0000 
     97 CA          3.0600  -15.4000   98.3000 C.3       6 GLY6        0.0000 
     98 DU          1.5900  -15.0000   87.5900 H         7 CUB7        0.0000 
     99 DU          1.0700  -16.1100   88.4600 H         7 CUB7        0.0000 
    100 DU          1.6600  -15.4400   89.6600 H         7 CUB7        0.0000 
    101 DU          0.3800  -14.6800   89.8700 H         7 CUB7        0.0000 
    102 DU         -3.8200  -14.3800   95.5000 H         7 CUB7        0.0000 
    103 DU         -3.2300  -13.7100   96.7000 H         7 CUB7        0.0000 
@<TRIPOS>BOND
@<TRIPOS>SUBSTRUCTURE
     1 SER1        1 GROUP   
     2 ALA2       12 GROUP   
     3 ASP3       30 GROUP   
     4 LYS4       49 GROUP   
     5 PHE5       59 GROUP   
     6 GLY6       83 GROUP   
     7 CUB7       98 GROUP   
@<TRIPOS>SET

