#    Name: 5yhw_7_DGT
#    Modification time : Fri May 22 19:19:37 2020

@<TRIPOS>MOLECULE
5yhw_7_DGT
   31    33     1     0     0
SMALL
NO_CHARGES


@<TRIPOS>ATOM
      1 PG         -4.6210  -12.2200   96.6500 P.3       1 DGT701      0.0000 
      2 O1G        -5.8580  -12.3440   97.5020 O.co2     1 DGT701      0.0000 
      3 O2G        -3.7810  -11.0770   97.1630 O.co2     1 DGT701      0.0000 
      4 O3G        -4.9870  -11.9650   95.2080 O.co2     1 DGT701      0.0000 
      5 O3B        -3.7390  -13.6000   96.7290 O.3       1 DGT701      0.0000 
      6 PB         -4.3560  -15.1070   96.9190 P.3       1 DGT701      0.0000 
      7 O1B        -5.8010  -15.0390   97.3400 O.co2     1 DGT701      0.0000 
      8 O2B        -4.2270  -15.8810   95.6290 O.co2     1 DGT701      0.0000 
      9 O3A        -3.5020  -15.8700   98.0940 O.3       1 DGT701      0.0000 
     10 PA         -1.9590  -16.4140   97.9030 P.3       1 DGT701      0.0000 
     11 O1A        -1.4150  -16.7530   99.2700 O.co2     1 DGT701      0.0000 
     12 O2A        -1.9660  -17.6440   97.0260 O.co2     1 DGT701      0.0000 
     13 O5'        -1.0130  -15.2470   97.2200 O.3       1 DGT701      0.0000 
     14 C5'        -0.3860  -14.3080   98.0470 C.3       1 DGT701      0.0000 
     15 C4'         0.9900  -14.7250   98.3720 C.3       1 DGT701      0.0000 
     16 O4'         1.7050  -15.5220   97.0950 O.3       1 DGT701      0.0000 
     17 C3'         1.7540  -13.6590   98.6140 C.3       1 DGT701      0.0000 
     18 O3'         2.8460  -14.0260   99.5150 O.3       1 DGT701      0.0000 
     19 C2'         2.3380  -13.2740   97.2290 C.3       1 DGT701      0.0000 
     20 C1'         2.4730  -14.6680   96.4650 C.3       1 DGT701      0.0000 
     21 N9          2.0090  -14.5250   95.1100 N.pl3     1 DGT701      0.0000 
     22 C8          0.9080  -14.3760   94.3520 C.2       1 DGT701      0.0000 
     23 N7          1.3100  -14.3120   93.0700 N.2       1 DGT701      0.0000 
     24 C5          2.6360  -14.4220   93.0520 C.2       1 DGT701      0.0000 
     25 C6          3.6390  -14.4150   91.9020 C.2       1 DGT701      0.0000 
     26 O6          3.2470  -14.2940   90.7960 O.2       1 DGT701      0.0000 
     27 N1          5.0360  -14.5530   92.1670 N.am      1 DGT701      0.0000 
     28 C2          5.5030  -14.6960   93.5220 C.2       1 DGT701      0.0000 
     29 N2          6.9280  -14.8320   93.7790 N.pl3     1 DGT701      0.0000 
     30 N3          4.5390  -14.6980   94.6230 N.2       1 DGT701      0.0000 
     31 C4          3.0810  -14.5560   94.3320 C.2       1 DGT701      0.0000 
@<TRIPOS>BOND
     1    1    2 ar   
     2    1    3 ar   
     3    1    4 ar   
     4    1    5 1    
     5    5    6 1    
     6    6    7 ar   
     7    6    8 ar   
     8    6    9 1    
     9    9   10 1    
    10   10   11 ar   
    11   10   12 ar   
    12   10   13 1    
    13   13   14 1    
    14   14   15 1    
    15   15   16 1    
    16   15   17 1    
    17   16   20 1    
    18   17   18 1    
    19   17   19 1    
    20   19   20 1    
    21   20   21 1    
    22   21   22 1    
    23   21   31 1    
    24   22   23 2    
    25   23   24 1    
    26   24   25 1    
    27   24   31 2    
    28   25   26 2    
    29   25   27 am   
    30   27   28 1    
    31   28   29 1    
    32   28   30 2    
    33   30   31 1    
@<TRIPOS>SUBSTRUCTURE
     1 DGT701      1 GROUP   
@<TRIPOS>SET

