#    Name: 5yhw_23_DGT
#    Modification time : Fri May 22 19:22:08 2020

@<TRIPOS>MOLECULE
5yhw_23_DGT
   31    33     1     0     0
SMALL
NO_CHARGES


@<TRIPOS>ATOM
      1 PG        -19.3990   30.0440   22.9880 P.3       1 DGT705      0.0000 
      2 O1G       -18.4980   30.8450   23.8790 O.co2     1 DGT705      0.0000 
      3 O2G       -18.6590   28.8760   22.4040 O.co2     1 DGT705      0.0000 
      4 O3G       -19.9110   30.9370   21.8970 O.co2     1 DGT705      0.0000 
      5 O3B       -20.6510   29.4830   23.8830 O.3       1 DGT705      0.0000 
      6 PB        -20.4760   28.3590   25.0620 P.3       1 DGT705      0.0000 
      7 O1B       -21.6170   27.3900   25.0280 O.co2     1 DGT705      0.0000 
      8 O2B       -19.1950   27.6100   24.8440 O.co2     1 DGT705      0.0000 
      9 O3A       -20.3780   29.1140   26.5140 O.3       1 DGT705      0.0000 
     10 PA        -21.6170   29.6550   27.4410 P.3       1 DGT705      0.0000 
     11 O1A       -21.3560   31.0670   27.8700 O.co2     1 DGT705      0.0000 
     12 O2A       -22.8940   29.6330   26.6640 O.co2     1 DGT705      0.0000 
     13 O5'       -21.7040   28.6870   28.7590 O.3       1 DGT705      0.0000 
     14 C5'       -20.5980   28.6080   29.6060 C.3       1 DGT705      0.0000 
     15 C4'       -20.9870   28.2330   30.9780 C.3       1 DGT705      0.0000 
     16 O4'       -22.0590   29.3300   31.6320 O.3       1 DGT705      0.0000 
     17 C3'       -21.5740   27.0370   31.0030 C.3       1 DGT705      0.0000 
     18 O3'       -21.1390   26.2810   32.1800 O.3       1 DGT705      0.0000 
     19 C2'       -23.1000   27.3040   31.1220 C.3       1 DGT705      0.0000 
     20 C1'       -23.2470   28.7840   31.6890 C.3       1 DGT705      0.0000 
     21 N9        -24.1550   29.5580   30.8780 N.pl3     1 DGT705      0.0000 
     22 C8        -24.6690   29.6950   29.6470 C.2       1 DGT705      0.0000 
     23 N7        -25.5010   30.7500   29.6710 N.2       1 DGT705      0.0000 
     24 C5        -25.4980   31.2490   30.9010 C.2       1 DGT705      0.0000 
     25 C6        -26.2350   32.4340   31.5290 C.2       1 DGT705      0.0000 
     26 O6        -26.9690   33.0890   30.8770 O.2       1 DGT705      0.0000 
     27 N1        -26.0310   32.7510   32.9030 N.am      1 DGT705      0.0000 
     28 C2        -25.1360   31.9540   33.6930 C.2       1 DGT705      0.0000 
     29 N2        -24.9300   32.2730   35.0900 N.pl3     1 DGT705      0.0000 
     30 N3        -24.4380   30.8250   33.0950 N.2       1 DGT705      0.0000 
     31 C4        -24.6510   30.5020   31.6580 C.2       1 DGT705      0.0000 
@<TRIPOS>BOND
     1    1    2 ar   
     2    1    3 ar   
     3    1    4 ar   
     4    1    5 1    
     5    5    6 1    
     6    6    7 ar   
     7    6    8 ar   
     8    6    9 1    
     9    9   10 1    
    10   10   11 ar   
    11   10   12 ar   
    12   10   13 1    
    13   13   14 1    
    14   14   15 1    
    15   15   16 1    
    16   15   17 1    
    17   16   20 1    
    18   17   18 1    
    19   17   19 1    
    20   19   20 1    
    21   20   21 1    
    22   21   22 1    
    23   21   31 1    
    24   22   23 2    
    25   23   24 1    
    26   24   25 1    
    27   24   31 2    
    28   25   26 2    
    29   25   27 am   
    30   27   28 1    
    31   28   29 1    
    32   28   30 2    
    33   30   31 1    
@<TRIPOS>SUBSTRUCTURE
     1 DGT705      1 GROUP   
@<TRIPOS>SET

