#    Name: 5yhw_21_DGT
#    Modification time : Fri May 22 19:21:46 2020

@<TRIPOS>MOLECULE
5yhw_21_DGT
   31    33     1     0     0
SMALL
NO_CHARGES


@<TRIPOS>ATOM
      1 PG        -30.7690   54.3880   37.3770 P.3       1 DGT701      0.0000 
      2 O1G       -29.4270   54.3920   36.6890 O.co2     1 DGT701      0.0000 
      3 O2G       -31.2580   52.9710   37.5450 O.co2     1 DGT701      0.0000 
      4 O3G       -31.7570   55.1860   36.5640 O.co2     1 DGT701      0.0000 
      5 O3B       -30.6020   55.0590   38.8630 O.3       1 DGT701      0.0000 
      6 PB        -29.8960   56.5210   39.1200 P.3       1 DGT701      0.0000 
      7 O1B       -30.9570   57.5950   39.1120 O.co2     1 DGT701      0.0000 
      8 O2B       -28.8790   56.8010   38.0410 O.co2     1 DGT701      0.0000 
      9 O3A       -29.1480   56.4940   40.5800 O.3       1 DGT701      0.0000 
     10 PA        -29.8360   55.9700   41.9810 P.3       1 DGT701      0.0000 
     11 O1A       -30.1010   57.1720   42.8570 O.co2     1 DGT701      0.0000 
     12 O2A       -28.8710   55.0230   42.6650 O.co2     1 DGT701      0.0000 
     13 O5'       -31.2530   55.1690   41.6950 O.3       1 DGT701      0.0000 
     14 C5'       -31.3620   53.8320   42.1000 C.3       1 DGT701      0.0000 
     15 C4'       -31.6820   53.7680   43.5330 C.3       1 DGT701      0.0000 
     16 O4'       -32.7630   54.9700   43.9300 O.3       1 DGT701      0.0000 
     17 C3'       -32.2520   52.6000   43.8260 C.3       1 DGT701      0.0000 
     18 O3'       -31.7480   52.1110   45.1140 O.3       1 DGT701      0.0000 
     19 C2'       -33.7800   52.8860   43.9150 C.3       1 DGT701      0.0000 
     20 C1'       -33.9010   54.4310   44.2830 C.3       1 DGT701      0.0000 
     21 N9        -34.9730   55.0500   43.5370 N.pl3     1 DGT701      0.0000 
     22 C8        -35.2890   55.5850   42.3450 C.2       1 DGT701      0.0000 
     23 N7        -36.5760   55.9850   42.4090 N.2       1 DGT701      0.0000 
     24 C5        -37.0360   55.7020   43.6230 C.2       1 DGT701      0.0000 
     25 C6        -38.4050   55.9220   44.2670 C.2       1 DGT701      0.0000 
     26 O6        -39.2720   56.4310   43.6420 O.2       1 DGT701      0.0000 
     27 N1        -38.6350   55.5110   45.6180 N.am      1 DGT701      0.0000 
     28 C2        -37.5720   54.8930   46.3660 C.2       1 DGT701      0.0000 
     29 N2        -37.8030   54.4780   47.7380 N.pl3     1 DGT701      0.0000 
     30 N3        -36.2650   54.6860   45.7420 N.2       1 DGT701      0.0000 
     31 C4        -36.0340   55.1150   44.3340 C.2       1 DGT701      0.0000 
@<TRIPOS>BOND
     1    1    2 ar   
     2    1    3 ar   
     3    1    4 ar   
     4    1    5 1    
     5    5    6 1    
     6    6    7 ar   
     7    6    8 ar   
     8    6    9 1    
     9    9   10 1    
    10   10   11 ar   
    11   10   12 ar   
    12   10   13 1    
    13   13   14 1    
    14   14   15 1    
    15   15   16 1    
    16   15   17 1    
    17   16   20 1    
    18   17   18 1    
    19   17   19 1    
    20   19   20 1    
    21   20   21 1    
    22   21   22 1    
    23   21   31 1    
    24   22   23 2    
    25   23   24 1    
    26   24   25 1    
    27   24   31 2    
    28   25   26 2    
    29   25   27 am   
    30   27   28 1    
    31   28   29 1    
    32   28   30 2    
    33   30   31 1    
@<TRIPOS>SUBSTRUCTURE
     1 DGT701      1 GROUP   
@<TRIPOS>SET

