#    Name: 5yhw_16_DGT
#    Modification time : Fri May 22 19:21:09 2020

@<TRIPOS>MOLECULE
5yhw_16_DGT
   31    33     1     0     0
SMALL
NO_CHARGES


@<TRIPOS>ATOM
      1 PG          5.6620  -26.1660  128.2580 P.3       1 DGT704      0.0000 
      2 O1G         4.6270  -25.1060  128.4750 O.co2     1 DGT704      0.0000 
      3 O2G         6.1360  -26.7080  129.5730 O.co2     1 DGT704      0.0000 
      4 O3G         5.0770  -27.2920  127.4590 O.co2     1 DGT704      0.0000 
      5 O3B         6.9260  -25.5190  127.4260 O.3       1 DGT704      0.0000 
      6 PB          6.9370  -25.2230  125.8100 P.3       1 DGT704      0.0000 
      7 O1B         8.2890  -25.5250  125.2450 O.co2     1 DGT704      0.0000 
      8 O2B         5.9150  -26.0890  125.1430 O.co2     1 DGT704      0.0000 
      9 O3A         6.5240  -23.6630  125.5220 O.3       1 DGT704      0.0000 
     10 PA          7.5410  -22.3810  125.4090 P.3       1 DGT704      0.0000 
     11 O1A         7.0360  -21.2400  126.2390 O.co2     1 DGT704      0.0000 
     12 O2A         8.9030  -22.7650  125.8910 O.co2     1 DGT704      0.0000 
     13 O5'         7.5850  -21.9150  123.8450 O.3       1 DGT704      0.0000 
     14 C5'         6.4600  -21.2890  123.3120 C.3       1 DGT704      0.0000 
     15 C4'         6.8450  -20.4840  122.1470 C.3       1 DGT704      0.0000 
     16 O4'         7.6950  -19.1480  122.6530 O.3       1 DGT704      0.0000 
     17 C3'         7.6220  -21.1910  121.3230 C.3       1 DGT704      0.0000 
     18 O3'         7.2170  -20.9740  119.9310 O.3       1 DGT704      0.0000 
     19 C2'         9.0680  -20.6630  121.5180 C.3       1 DGT704      0.0000 
     20 C1'         8.9390  -19.2590  122.2660 C.3       1 DGT704      0.0000 
     21 N9          9.7860  -19.2230  123.4310 N.pl3     1 DGT704      0.0000 
     22 C8         10.3900  -19.9970  124.3450 C.2       1 DGT704      0.0000 
     23 N7         11.0270  -19.1780  125.1940 N.2       1 DGT704      0.0000 
     24 C5         10.8150  -17.9280  124.8050 C.2       1 DGT704      0.0000 
     25 C6         11.2870  -16.5990  125.3800 C.2       1 DGT704      0.0000 
     26 O6         11.9630  -16.5920  126.3450 O.2       1 DGT704      0.0000 
     27 N1         10.9070  -15.3770  124.7610 N.am      1 DGT704      0.0000 
     28 C2         10.0770  -15.4000  123.5930 C.2       1 DGT704      0.0000 
     29 N2          9.7020  -14.1460  122.9720 N.pl3     1 DGT704      0.0000 
     30 N3          9.6270  -16.6720  123.0410 N.2       1 DGT704      0.0000 
     31 C4         10.0320  -17.9480  123.6990 C.2       1 DGT704      0.0000 
@<TRIPOS>BOND
     1    1    2 ar   
     2    1    3 ar   
     3    1    4 ar   
     4    1    5 1    
     5    5    6 1    
     6    6    7 ar   
     7    6    8 ar   
     8    6    9 1    
     9    9   10 1    
    10   10   11 ar   
    11   10   12 ar   
    12   10   13 1    
    13   13   14 1    
    14   14   15 1    
    15   15   16 1    
    16   15   17 1    
    17   16   20 1    
    18   17   18 1    
    19   17   19 1    
    20   19   20 1    
    21   20   21 1    
    22   21   22 1    
    23   21   31 1    
    24   22   23 2    
    25   23   24 1    
    26   24   25 1    
    27   24   31 2    
    28   25   26 2    
    29   25   27 am   
    30   27   28 1    
    31   28   29 1    
    32   28   30 2    
    33   30   31 1    
@<TRIPOS>SUBSTRUCTURE
     1 DGT704      1 GROUP   
@<TRIPOS>SET

