#    Name: 5yhw_2_DGT
#    Modification time : Fri May 22 19:18:49 2020

@<TRIPOS>MOLECULE
5yhw_2_DGT
   31    33     1     0     0
SMALL
NO_CHARGES


@<TRIPOS>ATOM
      1 PG        -35.7610    4.2410   61.5640 P.3       1 DGT703      0.0000 
      2 O1G       -35.8110    5.7210   61.8200 O.co2     1 DGT703      0.0000 
      3 O2G       -35.5300    3.4870   62.8470 O.co2     1 DGT703      0.0000 
      4 O3G       -37.0560    3.8220   60.9340 O.co2     1 DGT703      0.0000 
      5 O3B       -34.5590    3.8660   60.5210 O.3       1 DGT703      0.0000 
      6 PB        -33.0610    4.5230   60.5330 P.3       1 DGT703      0.0000 
      7 O1B       -32.9960    5.6000   61.5770 O.co2     1 DGT703      0.0000 
      8 O2B       -32.0570    3.4450   60.8320 O.co2     1 DGT703      0.0000 
      9 O3A       -32.7660    5.1560   59.0510 O.3       1 DGT703      0.0000 
     10 PA        -33.8210    6.1420   58.2740 P.3       1 DGT703      0.0000 
     11 O1A       -34.6790    6.8480   59.2810 O.co2     1 DGT703      0.0000 
     12 O2A       -34.7000    5.3410   57.3640 O.co2     1 DGT703      0.0000 
     13 O5'       -32.9830    7.2470   57.4010 O.3       1 DGT703      0.0000 
     14 C5'       -32.3350    8.2670   58.0940 C.3       1 DGT703      0.0000 
     15 C4'       -32.8090    9.5630   57.5970 C.3       1 DGT703      0.0000 
     16 O4'       -32.4500    9.6320   55.9850 O.3       1 DGT703      0.0000 
     17 C3'       -34.1390    9.6670   57.6570 C.3       1 DGT703      0.0000 
     18 O3'       -34.5620   10.2380   58.9400 O.3       1 DGT703      0.0000 
     19 C2'       -34.5130   10.6250   56.4850 C.3       1 DGT703      0.0000 
     20 C1'       -33.2640   10.5260   55.4790 C.3       1 DGT703      0.0000 
     21 N9        -33.4940   10.2000   54.0740 N.pl3     1 DGT703      0.0000 
     22 C8        -33.0620   10.6140   52.8720 C.2       1 DGT703      0.0000 
     23 N7        -33.6370    9.8600   51.9280 N.2       1 DGT703      0.0000 
     24 C5        -34.4120    8.9720   52.5290 C.2       1 DGT703      0.0000 
     25 C6        -35.2990    7.8680   51.9380 C.2       1 DGT703      0.0000 
     26 O6        -35.3560    7.7180   50.7670 O.2       1 DGT703      0.0000 
     27 N1        -36.0550    7.0210   52.7990 N.am      1 DGT703      0.0000 
     28 C2        -35.9740    7.2220   54.2180 C.2       1 DGT703      0.0000 
     29 N2        -36.7400    6.3720   55.1100 N.pl3     1 DGT703      0.0000 
     30 N3        -35.1220    8.2690   54.7670 N.2       1 DGT703      0.0000 
     31 C4        -34.3260    9.1660   53.8790 C.2       1 DGT703      0.0000 
@<TRIPOS>BOND
     1    1    2 ar   
     2    1    3 ar   
     3    1    4 ar   
     4    1    5 1    
     5    5    6 1    
     6    6    7 ar   
     7    6    8 ar   
     8    6    9 1    
     9    9   10 1    
    10   10   11 ar   
    11   10   12 ar   
    12   10   13 1    
    13   13   14 1    
    14   14   15 1    
    15   15   16 1    
    16   15   17 1    
    17   16   20 1    
    18   17   18 1    
    19   17   19 1    
    20   19   20 1    
    21   20   21 1    
    22   21   22 1    
    23   21   31 1    
    24   22   23 2    
    25   23   24 1    
    26   24   25 1    
    27   24   31 2    
    28   25   26 2    
    29   25   27 am   
    30   27   28 1    
    31   28   29 1    
    32   28   30 2    
    33   30   31 1    
@<TRIPOS>SUBSTRUCTURE
     1 DGT703      1 GROUP   
@<TRIPOS>SET

