#    Name: 5yhw_1_DGT
#    Modification time : Fri May 22 19:18:33 2020

@<TRIPOS>MOLECULE
5yhw_1_DGT
   31    33     1     0     0
SMALL
NO_CHARGES


@<TRIPOS>ATOM
      1 PG         -9.1850   15.9120   54.4600 P.3       1 DGT701      0.0000 
      2 O1G        -7.9670   15.5550   55.2710 O.co2     1 DGT701      0.0000 
      3 O2G       -10.3690   16.1210   55.3690 O.co2     1 DGT701      0.0000 
      4 O3G        -8.9040   17.1650   53.6700 O.co2     1 DGT701      0.0000 
      5 O3B        -9.5150   14.6640   53.4460 O.3       1 DGT701      0.0000 
      6 PB         -8.7560   14.4680   52.0040 P.3       1 DGT701      0.0000 
      7 O1B        -8.1890   13.0720   51.9190 O.co2     1 DGT701      0.0000 
      8 O2B        -7.6490   15.4830   51.8560 O.co2     1 DGT701      0.0000 
      9 O3A        -9.8430   14.7150   50.8000 O.3       1 DGT701      0.0000 
     10 PA        -11.0390   13.6530   50.4050 P.3       1 DGT701      0.0000 
     11 O1A       -10.4900   12.2440   50.4390 O.co2     1 DGT701      0.0000 
     12 O2A       -11.5100   13.9670   49.0050 O.co2     1 DGT701      0.0000 
     13 O5'       -12.2890   13.7910   51.4800 O.3       1 DGT701      0.0000 
     14 C5'       -13.0370   14.9740   51.5280 C.3       1 DGT701      0.0000 
     15 C4'       -14.3870   14.7670   50.9690 C.3       1 DGT701      0.0000 
     16 O4'       -14.8620   13.1760   51.1070 O.3       1 DGT701      0.0000 
     17 C3'       -15.2880   15.5000   51.6270 C.3       1 DGT701      0.0000 
     18 O3'       -16.3080   15.9870   50.6970 O.3       1 DGT701      0.0000 
     19 C2'       -15.9440   14.5430   52.6620 C.3       1 DGT701      0.0000 
     20 C1'       -15.7630   13.0840   52.0500 C.3       1 DGT701      0.0000 
     21 N9        -15.2650   12.1990   53.0670 N.pl3     1 DGT701      0.0000 
     22 C8        -14.1680   11.9070   53.7840 C.2       1 DGT701      0.0000 
     23 N7        -14.4810   10.8790   54.5930 N.2       1 DGT701      0.0000 
     24 C5        -15.7470   10.5480   54.3700 C.2       1 DGT701      0.0000 
     25 C6        -16.6290    9.4670   54.9910 C.2       1 DGT701      0.0000 
     26 O6        -16.1720    8.7650   55.8250 O.2       1 DGT701      0.0000 
     27 N1        -17.9870    9.3180   54.5630 N.am      1 DGT701      0.0000 
     28 C2        -18.5140   10.1920   53.5450 C.2       1 DGT701      0.0000 
     29 N2        -19.8930   10.0450   53.1130 N.pl3     1 DGT701      0.0000 
     30 N3        -17.6620   11.2240   52.9540 N.2       1 DGT701      0.0000 
     31 C4        -16.2470   11.3740   53.4090 C.2       1 DGT701      0.0000 
@<TRIPOS>BOND
     1    1    2 ar   
     2    1    3 ar   
     3    1    4 ar   
     4    1    5 1    
     5    5    6 1    
     6    6    7 ar   
     7    6    8 ar   
     8    6    9 1    
     9    9   10 1    
    10   10   11 ar   
    11   10   12 ar   
    12   10   13 1    
    13   13   14 1    
    14   14   15 1    
    15   15   16 1    
    16   15   17 1    
    17   16   20 1    
    18   17   18 1    
    19   17   19 1    
    20   19   20 1    
    21   20   21 1    
    22   21   22 1    
    23   21   31 1    
    24   22   23 2    
    25   23   24 1    
    26   24   25 1    
    27   24   31 2    
    28   25   26 2    
    29   25   27 am   
    30   27   28 1    
    31   28   29 1    
    32   28   30 2    
    33   30   31 1    
@<TRIPOS>SUBSTRUCTURE
     1 DGT701      1 GROUP   
@<TRIPOS>SET

