#    Name: 5yhw_14_DGT
#    Modification time : Fri May 22 19:20:46 2020

@<TRIPOS>MOLECULE
5yhw_14_DGT
   31    33     1     0     0
SMALL
NO_CHARGES


@<TRIPOS>ATOM
      1 PG         11.3990    2.0340  138.9640 P.3       1 DGT701      0.0000 
      2 O1G        12.4350    2.2740  140.0320 O.co2     1 DGT701      0.0000 
      3 O2G        10.2940    1.1840  139.5280 O.co2     1 DGT701      0.0000 
      4 O3G        12.0340    1.3240  137.7980 O.co2     1 DGT701      0.0000 
      5 O3B        10.7690    3.4610  138.4530 O.3       1 DGT701      0.0000 
      6 PB          9.8760    4.4750  139.3960 P.3       1 DGT701      0.0000 
      7 O1B        10.7580    5.1880  140.3890 O.co2     1 DGT701      0.0000 
      8 O2B         8.8210    3.7000  140.1550 O.co2     1 DGT701      0.0000 
      9 O3A         9.1400    5.5700  138.4130 O.3       1 DGT701      0.0000 
     10 PA          9.8800    6.5030  137.2710 P.3       1 DGT701      0.0000 
     11 O1A        10.1990    7.8380  137.9010 O.co2     1 DGT701      0.0000 
     12 O2A         8.9190    6.6780  136.1120 O.co2     1 DGT701      0.0000 
     13 O5'        11.2820    5.8270  136.7100 O.3       1 DGT701      0.0000 
     14 C5'        11.3380    5.3370  135.3960 C.3       1 DGT701      0.0000 
     15 C4'        11.6120    6.4080  134.4210 C.3       1 DGT701      0.0000 
     16 O4'        12.3210    7.7180  135.1690 O.3       1 DGT701      0.0000 
     17 C3'        12.4460    5.9770  133.4700 C.3       1 DGT701      0.0000 
     18 O3'        12.0370    6.4990  132.1640 O.3       1 DGT701      0.0000 
     19 C2'        13.8430    6.5530  133.8280 C.3       1 DGT701      0.0000 
     20 C1'        13.5600    7.8200  134.7580 C.3       1 DGT701      0.0000 
     21 N9         14.4600    7.7930  135.8890 N.pl3     1 DGT701      0.0000 
     22 C8         14.6260    7.2910  137.1250 C.2       1 DGT701      0.0000 
     23 N7         15.8080    7.7390  137.5860 N.2       1 DGT701      0.0000 
     24 C5         16.3550    8.5040  136.6440 C.2       1 DGT701      0.0000 
     25 C6         17.6750    9.2780  136.5970 C.2       1 DGT701      0.0000 
     26 O6         18.4020    9.2450  137.5250 O.2       1 DGT701      0.0000 
     27 N1         18.0280   10.0370  135.4410 N.am      1 DGT701      0.0000 
     28 C2         17.1320   10.0680  134.3130 C.2       1 DGT701      0.0000 
     29 N2         17.4880   10.8380  133.1350 N.pl3     1 DGT701      0.0000 
     30 N3         15.8700    9.3290  134.3620 N.2       1 DGT701      0.0000 
     31 C4         15.5120    8.5390  135.5760 C.2       1 DGT701      0.0000 
@<TRIPOS>BOND
     1    1    2 ar   
     2    1    3 ar   
     3    1    4 ar   
     4    1    5 1    
     5    5    6 1    
     6    6    7 ar   
     7    6    8 ar   
     8    6    9 1    
     9    9   10 1    
    10   10   11 ar   
    11   10   12 ar   
    12   10   13 1    
    13   13   14 1    
    14   14   15 1    
    15   15   16 1    
    16   15   17 1    
    17   16   20 1    
    18   17   18 1    
    19   17   19 1    
    20   19   20 1    
    21   20   21 1    
    22   21   22 1    
    23   21   31 1    
    24   22   23 2    
    25   23   24 1    
    26   24   25 1    
    27   24   31 2    
    28   25   26 2    
    29   25   27 am   
    30   27   28 1    
    31   28   29 1    
    32   28   30 2    
    33   30   31 1    
@<TRIPOS>SUBSTRUCTURE
     1 DGT701      1 GROUP   
@<TRIPOS>SET

