#    Name: 5yhw_1_DGT_CAVITY_N1_12
#    Modification time : Fri May 22 19:18:35 2020

@<TRIPOS>MOLECULE
5yhw_1_DGT_CAVITY_N1_12
  168     0     7     0     0
SMALL
NO_CHARGES


@<TRIPOS>ATOM
      1 OG        -12.2200   13.2000   50.6100 O.3       1 SER1        0.0000 
      2 OG        -14.0200   12.8500   51.6800 O.3       1 SER1        0.0000 
      3 OG        -13.5300    6.9100   54.7600 O.3       1 SER1        0.0000 
      4 OG         -8.5600   13.4600   50.5300 O.3       1 SER1        0.0000 
      5 OG         -9.0700   12.3500   51.4000 O.3       1 SER1        0.0000 
      6 OG        -10.3500   13.1100   51.6100 O.3       1 SER1        0.0000 
      7 OG        -11.6300   13.8700   51.8100 O.3       1 SER1        0.0000 
      8 OG        -12.9100   14.6300   52.0200 O.3       1 SER1        0.0000 
      9 OG         -8.3100   10.4900   52.0700 O.3       1 SER1        0.0000 
     10 OG        -13.4300   13.5200   52.8900 O.3       1 SER1        0.0000 
     11 OG        -14.4600   11.3100   54.6300 O.3       1 SER1        0.0000 
     12 OG        -13.7000    9.4400   55.2900 O.3       1 SER1        0.0000 
     13 OG        -11.6600    6.8200   55.7600 O.3       1 SER1        0.0000 
     14 OG        -12.9400    7.5800   55.9600 O.3       1 SER1        0.0000 
     15 OG         -7.2100   12.2700   52.4000 O.3       1 SER1        0.0000 
     16 OG        -13.3500   13.0900   54.9600 O.3       1 SER1        0.0000 
     17 OG        -13.1100   10.1100   56.5000 O.3       1 SER1        0.0000 
     18 OG        -10.4500   15.2100   54.2200 O.3       1 SER1        0.0000 
     19 OG        -11.4900   13.0000   55.9600 O.3       1 SER1        0.0000 
     20 OG        -12.0000   11.8900   56.8300 O.3       1 SER1        0.0000 
     21 OG        -12.5200   10.7900   57.7000 O.3       1 SER1        0.0000 
     22 OG        -11.9300   11.4600   58.9100 O.3       1 SER1        0.0000 
     23 N         -17.5100   10.0500   51.2200 N.am      2 ALA2        0.0000 
     24 N         -18.7900   10.8100   51.4200 N.am      2 ALA2        0.0000 
     25 N         -19.3100    9.7000   52.2900 N.am      2 ALA2        0.0000 
     26 N         -21.1000    9.3500   53.3700 N.am      2 ALA2        0.0000 
     27 O         -22.9000    9.0100   54.4400 O.2       2 ALA2        0.0000 
     28 N         -16.4000   11.8300   51.5500 N.am      2 ALA2        0.0000 
     29 N         -18.7200   10.3700   53.5000 N.am      2 ALA2        0.0000 
     30 N         -17.9600    8.5100   54.1600 N.am      2 ALA2        0.0000 
     31 N         -19.2300    9.2700   54.3700 N.am      2 ALA2        0.0000 
     32 N         -20.5100   10.0300   54.5700 N.am      2 ALA2        0.0000 
     33 N         -14.6400    5.1300   54.4200 N.am      2 ALA2        0.0000 
     34 N         -19.7500    8.1600   55.2400 N.am      2 ALA2        0.0000 
     35 O         -14.2600   15.8200   50.1400 O.2       2 ALA2        0.0000 
     36 N         -16.8500   10.2900   54.5000 N.am      2 ALA2        0.0000 
     37 O         -16.0900    8.4200   55.1600 O.2       2 ALA2        0.0000 
     38 N         -17.3700    9.1800   55.3700 N.am      2 ALA2        0.0000 
     39 N         -16.6000    7.3200   56.0300 N.am      2 ALA2        0.0000 
     40 N         -17.8800    8.0800   56.2400 N.am      2 ALA2        0.0000 
     41 N         -13.2900    3.9400   56.2900 N.am      2 ALA2        0.0000 
     42 N         -13.8100    2.8300   57.1700 N.am      2 ALA2        0.0000 
     43 O         -14.9800   10.2000   55.5000 O.2       2 ALA2        0.0000 
     44 O         -16.2600   10.9600   55.7000 O.2       2 ALA2        0.0000 
     45 O         -14.2200    8.3400   56.1600 O.2       2 ALA2        0.0000 
     46 O         -14.7400    7.2300   57.0400 O.2       2 ALA2        0.0000 
     47 O         -16.0100    7.9900   57.2400 O.2       2 ALA2        0.0000 
     48 N         -12.7000    4.6100   57.5000 N.am      2 ALA2        0.0000 
     49 N         -15.2500    6.1200   57.9100 N.am      2 ALA2        0.0000 
     50 N         -11.9400    2.7400   58.1700 N.am      2 ALA2        0.0000 
     51 N         -13.2200    3.5000   58.3700 N.am      2 ALA2        0.0000 
     52 O         -14.3900   10.8700   56.7000 O.2       2 ALA2        0.0000 
     53 O         -13.6300    9.0100   57.3700 O.2       2 ALA2        0.0000 
     54 O         -14.1500    7.9000   58.2400 O.2       2 ALA2        0.0000 
     55 N         -14.6600    6.8000   59.1100 N.am      2 ALA2        0.0000 
     56 N         -12.6200    4.1700   59.5700 N.am      2 ALA2        0.0000 
     57 N         -13.9000    4.9300   59.7800 N.am      2 ALA2        0.0000 
     58 O         -13.0400    9.6800   58.5700 O.2       2 ALA2        0.0000 
     59 O         -12.8000    6.7100   60.1100 O.2       2 ALA2        0.0000 
     60 N         -12.4500   10.3500   59.7800 N.am      2 ALA2        0.0000 
     61 N         -11.6900    8.4900   60.4500 N.am      2 ALA2        0.0000 
     62 N         -12.9700    9.2500   60.6500 N.am      2 ALA2        0.0000 
     63 N         -10.0600   11.3700   59.9100 N.am      2 ALA2        0.0000 
     64 N         -11.3400   12.1300   60.1100 N.am      2 ALA2        0.0000 
     65 N         -13.1400   11.7800   61.1900 N.am      2 ALA2        0.0000 
     66 OD1       -15.3700   14.0400   49.8100 O.co2     3 ASP3        0.0000 
     67 OD1       -15.8900   12.9400   50.6800 O.co2     3 ASP3        0.0000 
     68 OD1       -15.9200    5.8900   54.6300 O.co2     3 ASP3        0.0000 
     69 OD1       -17.2000    6.6500   54.8300 O.co2     3 ASP3        0.0000 
     70 OD1       -15.1600    4.0200   55.2900 O.co2     3 ASP3        0.0000 
     71 OD1       -17.7100    5.5400   55.7000 O.co2     3 ASP3        0.0000 
     72 OD1       -10.4300   13.5500   49.5300 O.co2     3 ASP3        0.0000 
     73 OD1       -11.7000   14.3000   49.7400 O.co2     3 ASP3        0.0000 
     74 OD1       -12.9800   15.0600   49.9400 O.co2     3 ASP3        0.0000 
     75 OD1       -13.5000   13.9600   50.8100 O.co2     3 ASP3        0.0000 
     76 OD1       -14.7800   14.7100   51.0100 O.co2     3 ASP3        0.0000 
     77 OD1       -14.5700    4.6900   56.5000 O.co2     3 ASP3        0.0000 
     78 OD1       -15.8400    5.4500   56.7000 O.co2     3 ASP3        0.0000 
     79 OD1       -17.1200    6.2100   56.9100 O.co2     3 ASP3        0.0000 
     80 OD1       -15.0800    3.5900   57.3700 O.co2     3 ASP3        0.0000 
     81 OD1        -9.3200   15.3200   49.8700 O.co2     3 ASP3        0.0000 
     82 OD1        -9.8400   14.2200   50.7400 O.co2     3 ASP3        0.0000 
     83 OD1       -15.7700    5.0200   58.7800 O.co2     3 ASP3        0.0000 
     84 OD1        -9.2500   14.8900   51.9400 O.co2     3 ASP3        0.0000 
     85 OD1        -8.4800   13.0200   52.6100 O.co2     3 ASP3        0.0000 
     86 OD1        -8.6500   15.5600   53.1500 O.co2     3 ASP3        0.0000 
     87 OD1        -7.8900   13.7000   53.8100 O.co2     3 ASP3        0.0000 
     88 OD1        -9.1700   14.4500   54.0200 O.co2     3 ASP3        0.0000 
     89 OD1        -9.6900   13.3500   54.8900 O.co2     3 ASP3        0.0000 
     90 OD1       -10.9700   14.1100   55.0900 O.co2     3 ASP3        0.0000 
     91 OD1       -10.2100   12.2400   55.7600 O.co2     3 ASP3        0.0000 
     92 OD1        -8.0600   16.2300   54.3500 O.co2     3 ASP3        0.0000 
     93 OD1        -8.5800   15.1300   55.2200 O.co2     3 ASP3        0.0000 
     94 OD1        -9.8600   15.8800   55.4200 O.co2     3 ASP3        0.0000 
     95 OD1        -9.1000   14.0200   56.0900 O.co2     3 ASP3        0.0000 
     96 OD1        -9.6200   12.9100   56.9600 O.co2     3 ASP3        0.0000 
     97 OD1       -10.1300   11.8100   57.8300 O.co2     3 ASP3        0.0000 
     98 OD1       -11.4100   12.5600   58.0400 O.co2     3 ASP3        0.0000 
     99 OD1        -9.5400   12.4800   59.0400 O.co2     3 ASP3        0.0000 
    100 NZ        -18.5500    7.8400   52.9600 N.4       4 LYS4        0.0000 
    101 NZ        -19.8200    8.6000   53.1600 N.4       4 LYS4        0.0000 
    102 NZ        -17.7900    5.9700   53.6300 N.4       4 LYS4        0.0000 
    103 NZ        -21.6200    8.2500   54.2400 N.4       4 LYS4        0.0000 
    104 NZ        -18.4700    7.4000   55.0300 N.4       4 LYS4        0.0000 
    105 NZ        -11.1900   15.4100   48.8700 N.4       4 LYS4        0.0000 
    106 NZ        -16.0600   15.4700   51.2200 N.4       4 LYS4        0.0000 
    107 NZ        -11.1100   14.9800   50.9400 N.4       4 LYS4        0.0000 
    108 CZ        -14.5300   11.7400   52.5500 C.ar      5 PHE5        0.0000 
    109 CZ        -15.8100   12.5000   52.7600 C.ar      5 PHE5        0.0000 
    110 CZ        -17.0900   13.2600   52.9600 C.ar      5 PHE5        0.0000 
    111 CZ        -15.0500   10.6400   53.4200 C.ar      5 PHE5        0.0000 
    112 CZ        -12.3900   15.7300   51.1400 C.ar      5 PHE5        0.0000 
    113 CZ        -14.1900   15.3900   52.2200 C.ar      5 PHE5        0.0000 
    114 CZ        -15.9800   15.0400   53.2900 C.ar      5 PHE5        0.0000 
    115 CZ        -13.9400   12.4100   53.7600 C.ar      5 PHE5        0.0000 
    116 CZ        -15.2200   13.1700   53.9600 C.ar      5 PHE5        0.0000 
    117 CZ        -10.5200   15.6500   52.1500 C.ar      5 PHE5        0.0000 
    118 CZ        -12.3200   15.3000   53.2200 C.ar      5 PHE5        0.0000 
    119 CZ         -9.0000   11.9200   53.4800 C.ar      5 PHE5        0.0000 
    120 CZ        -10.2800   12.6800   53.6800 C.ar      5 PHE5        0.0000 
    121 CZ        -11.5600   13.4300   53.8900 C.ar      5 PHE5        0.0000 
    122 CZ        -12.8400   14.1900   54.0900 C.ar      5 PHE5        0.0000 
    123 CZ        -14.1100   14.9500   54.2900 C.ar      5 PHE5        0.0000 
    124 CZ        -10.8000   11.5700   54.5500 C.ar      5 PHE5        0.0000 
    125 CZ        -12.0800   12.3300   54.7600 C.ar      5 PHE5        0.0000 
    126 CZ        -12.5900   11.2200   55.6300 C.ar      5 PHE5        0.0000 
    127 CZ         -9.9300   16.3200   53.3500 C.ar      5 PHE5        0.0000 
    128 CZ        -12.2500   14.8600   55.2900 C.ar      5 PHE5        0.0000 
    129 CZ        -13.7300   11.1100   59.9800 C.ar      5 PHE5        0.0000 
    130 CZ        -12.6200   12.8900   60.3200 C.ar      5 PHE5        0.0000 
    131 CA        -18.0300    8.9400   52.0900 C.3       6 GLY6        0.0000 
    132 CA        -17.2700    7.0800   52.7600 C.3       6 GLY6        0.0000 
    133 CA        -22.3800   10.1100   53.5700 C.3       6 GLY6        0.0000 
    134 CA        -17.6800   12.5900   51.7500 C.3       6 GLY6        0.0000 
    135 CA        -16.9200   10.7200   52.4200 C.3       6 GLY6        0.0000 
    136 CA        -18.2000   11.4800   52.6300 C.3       6 GLY6        0.0000 
    137 CA        -19.4800   12.2400   52.8300 C.3       6 GLY6        0.0000 
    138 CA        -17.4400    9.6200   53.2900 C.3       6 GLY6        0.0000 
    139 CA        -19.9900   11.1300   53.7000 C.3       6 GLY6        0.0000 
    140 CA        -16.6800    7.7500   53.9600 C.3       6 GLY6        0.0000 
    141 CA        -16.5700   14.3700   52.0900 C.3       6 GLY6        0.0000 
    142 CA        -16.3300   11.3900   53.6300 C.3       6 GLY6        0.0000 
    143 CA        -17.6100   12.1500   53.8300 C.3       6 GLY6        0.0000 
    144 CA        -15.5700    9.5300   54.2900 C.3       6 GLY6        0.0000 
    145 CA        -18.1300   11.0500   54.7000 C.3       6 GLY6        0.0000 
    146 CA        -12.2500    6.1500   54.5500 C.3       6 GLY6        0.0000 
    147 CA        -14.8100    7.6700   54.9600 C.3       6 GLY6        0.0000 
    148 CA        -12.7700    5.0400   55.4200 C.3       6 GLY6        0.0000 
    149 CA        -15.7400   12.0700   54.8300 C.3       6 GLY6        0.0000 
    150 CA        -15.1800    5.6900   59.9800 C.3       6 GLY6        0.0000 
    151 CA        -14.0700    7.4700   60.3100 C.3       6 GLY6        0.0000 
    152 DU        -15.3000   13.6100   51.8800 H         7 CUB7        0.0000 
    153 DU        -14.0500    5.8000   55.6300 H         7 CUB7        0.0000 
    154 DU        -15.3300    6.5600   55.8300 H         7 CUB7        0.0000 
    155 DU        -14.7000   14.2800   53.0900 H         7 CUB7        0.0000 
    156 DU        -12.1800    5.7100   56.6300 H         7 CUB7        0.0000 
    157 DU        -13.9800    5.3700   57.7000 H         7 CUB7        0.0000 
    158 DU        -14.4900    4.2600   58.5700 H         7 CUB7        0.0000 
    159 DU         -9.7600   13.7800   52.8100 H         7 CUB7        0.0000 
    160 DU        -11.0400   14.5400   53.0200 H         7 CUB7        0.0000 
    161 DU        -12.8700    7.1400   58.0400 H         7 CUB7        0.0000 
    162 DU        -10.8300    4.5200   58.5000 H         7 CUB7        0.0000 
    163 DU        -12.1100    5.2800   58.7000 H         7 CUB7        0.0000 
    164 DU        -13.3900    6.0400   58.9100 H         7 CUB7        0.0000 
    165 DU        -10.7300   11.1300   56.6300 H         7 CUB7        0.0000 
    166 DU        -12.2800    7.8200   59.2400 H         7 CUB7        0.0000 
    167 DU        -11.5200    5.9500   59.9100 H         7 CUB7        0.0000 
    168 DU        -10.6500   10.7000   58.7000 H         7 CUB7        0.0000 
@<TRIPOS>BOND
@<TRIPOS>SUBSTRUCTURE
     1 SER1        1 GROUP   
     2 ALA2       23 GROUP   
     3 ASP3       66 GROUP   
     4 LYS4      100 GROUP   
     5 PHE5      108 GROUP   
     6 GLY6      131 GROUP   
     7 CUB7      152 GROUP   
@<TRIPOS>SET

