#    Name: 5yhw_4_DGT
#    Modification time : Fri May 22 19:19:15 2020

@<TRIPOS>MOLECULE
5yhw_4_DGT
   31    33     1     0     0
SMALL
NO_CHARGES


@<TRIPOS>ATOM
      1 PG        -52.9140   45.6300   50.5340 P.3       1 DGT702      0.0000 
      2 O1G       -53.1280   44.1990   50.9370 O.co2     1 DGT702      0.0000 
      3 O2G       -53.2560   46.5310   51.6880 O.co2     1 DGT702      0.0000 
      4 O3G       -53.7470   45.9880   49.3360 O.co2     1 DGT702      0.0000 
      5 O3B       -51.3370   45.8400   50.1220 O.3       1 DGT702      0.0000 
      6 PB        -50.1080   46.1630   51.1630 P.3       1 DGT702      0.0000 
      7 O1B       -50.6120   46.4740   52.5430 O.co2     1 DGT702      0.0000 
      8 O2B       -49.3580   47.3470   50.6260 O.co2     1 DGT702      0.0000 
      9 O3A       -49.1630   44.8310   51.2840 O.3       1 DGT702      0.0000 
     10 PA        -48.1650   44.2430   50.1190 P.3       1 DGT702      0.0000 
     11 O1A       -48.6500   42.9090   49.6370 O.co2     1 DGT702      0.0000 
     12 O2A       -48.0860   45.1840   48.9510 O.co2     1 DGT702      0.0000 
     13 O5'       -46.6950   44.0440   50.8000 O.3       1 DGT702      0.0000 
     14 C5'       -46.5830   43.4170   52.0420 C.3       1 DGT702      0.0000 
     15 C4'       -45.1680   43.0970   52.3020 C.3       1 DGT702      0.0000 
     16 O4'       -44.4840   42.3570   50.9770 O.3       1 DGT702      0.0000 
     17 C3'       -44.4580   44.2030   52.5460 C.3       1 DGT702      0.0000 
     18 O3'       -43.4580   43.9240   53.5800 O.3       1 DGT702      0.0000 
     19 C2'       -43.7480   44.5690   51.2110 C.3       1 DGT702      0.0000 
     20 C1'       -43.6600   43.1980   50.3990 C.3       1 DGT702      0.0000 
     21 N9        -44.0740   43.3890   49.0310 N.pl3     1 DGT702      0.0000 
     22 C8        -44.7930   44.1740   48.2140 C.2       1 DGT702      0.0000 
     23 N7        -44.7050   43.6550   46.9760 N.2       1 DGT702      0.0000 
     24 C5        -43.9430   42.5690   47.0370 C.2       1 DGT702      0.0000 
     25 C6        -43.4900   41.5770   45.9680 C.2       1 DGT702      0.0000 
     26 O6        -43.8380   41.7280   44.8510 O.2       1 DGT702      0.0000 
     27 N1        -42.6540   40.4760   46.3160 N.am      1 DGT702      0.0000 
     28 C2        -42.2370   40.3020   47.6790 C.2       1 DGT702      0.0000 
     29 N2        -41.3900   39.1850   48.0450 N.pl3     1 DGT702      0.0000 
     30 N3        -42.6690   41.2510   48.6950 N.2       1 DGT702      0.0000 
     31 C4        -43.5450   42.4000   48.3240 C.2       1 DGT702      0.0000 
@<TRIPOS>BOND
     1    1    2 ar   
     2    1    3 ar   
     3    1    4 ar   
     4    1    5 1    
     5    5    6 1    
     6    6    7 ar   
     7    6    8 ar   
     8    6    9 1    
     9    9   10 1    
    10   10   11 ar   
    11   10   12 ar   
    12   10   13 1    
    13   13   14 1    
    14   14   15 1    
    15   15   16 1    
    16   15   17 1    
    17   16   20 1    
    18   17   18 1    
    19   17   19 1    
    20   19   20 1    
    21   20   21 1    
    22   21   22 1    
    23   21   31 1    
    24   22   23 2    
    25   23   24 1    
    26   24   25 1    
    27   24   31 2    
    28   25   26 2    
    29   25   27 am   
    30   27   28 1    
    31   28   29 1    
    32   28   30 2    
    33   30   31 1    
@<TRIPOS>SUBSTRUCTURE
     1 DGT702      1 GROUP   
@<TRIPOS>SET

