#    Name: 5yhw_22_DGT
#    Modification time : Fri May 22 19:21:57 2020

@<TRIPOS>MOLECULE
5yhw_22_DGT
   31    33     1     0     0
SMALL
NO_CHARGES


@<TRIPOS>ATOM
      1 PG        -54.2560   48.8950   54.9530 P.3       1 DGT703      0.0000 
      2 O1G       -54.1260   48.7910   56.4450 O.co2     1 DGT703      0.0000 
      3 O2G       -55.6900   49.0070   54.5110 O.co2     1 DGT703      0.0000 
      4 O3G       -53.6590   47.6550   54.3510 O.co2     1 DGT703      0.0000 
      5 O3B       -53.5200   50.2600   54.4170 O.3       1 DGT703      0.0000 
      6 PB        -52.1490   50.3210   53.5160 P.3       1 DGT703      0.0000 
      7 O1B       -52.0000   49.0730   52.6880 O.co2     1 DGT703      0.0000 
      8 O2B       -52.2620   51.5260   52.6170 O.co2     1 DGT703      0.0000 
      9 O3A       -50.8840   50.4700   54.5470 O.3       1 DGT703      0.0000 
     10 PA        -50.2290   49.1970   55.3390 P.3       1 DGT703      0.0000 
     11 O1A       -50.2540   49.4120   56.8210 O.co2     1 DGT703      0.0000 
     12 O2A       -51.0140   47.9550   55.0240 O.co2     1 DGT703      0.0000 
     13 O5'       -48.6620   49.0240   54.8690 O.3       1 DGT703      0.0000 
     14 C5'       -48.3750   48.3430   53.6840 C.3       1 DGT703      0.0000 
     15 C4'       -47.5070   47.2080   54.0030 C.3       1 DGT703      0.0000 
     16 O4'       -46.2300   47.7450   54.9060 O.3       1 DGT703      0.0000 
     17 C3'       -48.1190   46.3410   54.8120 C.3       1 DGT703      0.0000 
     18 O3'       -48.9100   45.3820   54.0290 O.3       1 DGT703      0.0000 
     19 C2'       -46.9540   45.6330   55.5740 C.3       1 DGT703      0.0000 
     20 C1'       -45.7220   46.6450   55.3970 C.3       1 DGT703      0.0000 
     21 N9        -44.9540   46.9510   56.5890 N.pl3     1 DGT703      0.0000 
     22 C8        -43.6970   46.8840   57.0580 C.2       1 DGT703      0.0000 
     23 N7        -43.6800   47.4020   58.2970 N.2       1 DGT703      0.0000 
     24 C5        -44.9130   47.7920   58.5920 C.2       1 DGT703      0.0000 
     25 C6        -45.4850   48.4470   59.8520 C.2       1 DGT703      0.0000 
     26 O6        -44.7770   48.6810   60.7700 O.2       1 DGT703      0.0000 
     27 N1        -46.8720   48.7790   59.9150 N.am      1 DGT703      0.0000 
     28 C2        -47.7230   48.4890   58.7870 C.2       1 DGT703      0.0000 
     29 N2        -49.1410   48.8110   58.8150 N.pl3     1 DGT703      0.0000 
     30 N3        -47.1620   47.8740   57.5940 N.2       1 DGT703      0.0000 
     31 C4        -45.7170   47.5210   57.5220 C.2       1 DGT703      0.0000 
@<TRIPOS>BOND
     1    1    2 ar   
     2    1    3 ar   
     3    1    4 ar   
     4    1    5 1    
     5    5    6 1    
     6    6    7 ar   
     7    6    8 ar   
     8    6    9 1    
     9    9   10 1    
    10   10   11 ar   
    11   10   12 ar   
    12   10   13 1    
    13   13   14 1    
    14   14   15 1    
    15   15   16 1    
    16   15   17 1    
    17   16   20 1    
    18   17   18 1    
    19   17   19 1    
    20   19   20 1    
    21   20   21 1    
    22   21   22 1    
    23   21   31 1    
    24   22   23 2    
    25   23   24 1    
    26   24   25 1    
    27   24   31 2    
    28   25   26 2    
    29   25   27 am   
    30   27   28 1    
    31   28   29 1    
    32   28   30 2    
    33   30   31 1    
@<TRIPOS>SUBSTRUCTURE
     1 DGT703      1 GROUP   
@<TRIPOS>SET

