#    Name: 6brs_2_UNK_UNK_UNK_UNK
#    Modification time : Fri May 22 19:33:13 2020

@<TRIPOS>MOLECULE
6brs_2_UNK_UNK_UNK_UNK
   20    19     4     0     0
SMALL
NO_CHARGES


@<TRIPOS>ATOM
      1 N         -18.4030   32.9570   15.0110 N.4       1 UNK67       0.0000 
      2 CA        -17.8450   31.6990   14.5000 C.3       1 UNK67       0.0000 
      3 C         -17.4800   31.6990   12.9930 C.2       1 UNK67       0.0000 
      4 O         -17.9540   32.5050   12.1970 O.2       1 UNK67       0.0000 
      5 CB        -18.8130   30.5040   14.8090 C.3       1 UNK67       0.0000 
      6 N         -16.6320   30.7410   12.6180 N.am      2 UNK68       0.0000 
      7 CA        -15.9640   30.6640   11.3200 C.3       2 UNK68       0.0000 
      8 C         -15.0660   31.8590   11.0580 C.2       2 UNK68       0.0000 
      9 O         -14.6250   32.0620    9.9220 O.2       2 UNK68       0.0000 
     10 CB        -16.9520   30.5080   10.1640 C.3       2 UNK68       0.0000 
     11 N         -14.8170   32.6780   12.0760 N.am      3 UNK69       0.0000 
     12 CA        -13.6820   33.5880   12.0990 C.3       3 UNK69       0.0000 
     13 C         -12.7930   33.3040   13.3050 C.2       3 UNK69       0.0000 
     14 O         -11.8550   34.0720   13.5750 O.2       3 UNK69       0.0000 
     15 CB        -14.1590   35.0450   12.0890 C.3       3 UNK69       0.0000 
     16 N         -13.0580   32.1990   14.0120 N.am      4 UNK70       0.0000 
     17 CA        -12.4480   31.8620   15.3010 C.3       4 UNK70       0.0000 
     18 C         -11.6450   30.5580   15.2530 C.2       4 UNK70       0.0000 
     19 O         -10.9080   30.2320   16.1910 O.2       4 UNK70       0.0000 
     20 CB        -13.5240   31.7640   16.3700 C.3       4 UNK70       0.0000 
@<TRIPOS>BOND
     1    1    2 1    
     2    2    3 1    
     3    2    5 1    
     4    3    4 2    
     5    3    6 du   
     6    6    7 1    
     7    7    8 1    
     8    7   10 1    
     9    8    9 2    
    10    8   11 du   
    11   11   12 1    
    12   12   13 1    
    13   12   15 1    
    14   13   14 2    
    15   13   16 du   
    16   16   17 1    
    17   17   18 1    
    18   17   20 1    
    19   18   19 2    
@<TRIPOS>SUBSTRUCTURE
     1 UNK67       1 RESIDUE 
     2 UNK68       6 RESIDUE 
     3 UNK69      11 RESIDUE 
     4 UNK70      16 RESIDUE 
@<TRIPOS>SET

