#    Name: 6brs_2_UNK_UNK_UNK_UNK_CAVITY_N1_ALL
#    Modification time : Fri May 22 19:33:14 2020

@<TRIPOS>MOLECULE
6brs_2_UNK_UNK_UNK_UNK_CAVITY_N1_ALL
   89     0     7     0     0
SMALL
NO_CHARGES


@<TRIPOS>ATOM
      1 OG        -17.5100   26.9100   15.5400 O.3       1 SER1        0.0000 
      2 OG        -20.1500   30.8100   14.9800 O.3       1 SER1        0.0000 
      3 OG        -19.8300   31.4100   13.6400 O.3       1 SER1        0.0000 
      4 OG        -15.7600   26.0400   17.2500 O.3       1 SER1        0.0000 
      5 OG        -16.4300   27.7400   16.1700 O.3       1 SER1        0.0000 
      6 OG        -15.4400   26.6400   15.9200 O.3       1 SER1        0.0000 
      7 OG        -19.0700   31.6400   15.6100 O.3       1 SER1        0.0000 
      8 OG        -18.7500   32.2400   14.2700 O.3       1 SER1        0.0000 
      9 N         -17.1900   27.5100   14.2100 N.am      2 ALA2        0.0000 
     10 N         -16.8700   28.1100   12.8700 N.am      2 ALA2        0.0000 
     11 O         -18.2000   31.5100   10.7100 O.2       2 ALA2        0.0000 
     12 N         -16.2300   29.3100   10.2000 N.am      2 ALA2        0.0000 
     13 O         -17.1200   32.3400   11.3400 O.2       2 ALA2        0.0000 
     14 N         -15.8100   31.8400    9.7500 N.am      2 ALA2        0.0000 
     15 O         -15.4900   32.4400    8.4100 O.2       2 ALA2        0.0000 
     16 OD1       -18.7200   29.3400   18.0200 O.co2     3 ASP3        0.0000 
     17 OD1       -19.3900   31.0400   16.9400 O.co2     3 ASP3        0.0000 
     18 OD1       -18.4000   29.9400   16.6900 O.co2     3 ASP3        0.0000 
     19 OD1       -15.9900   27.3600   19.4800 O.co2     3 ASP3        0.0000 
     20 OD1       -15.0000   26.2600   19.2200 O.co2     3 ASP3        0.0000 
     21 OD1       -17.6400   30.1600   18.6500 O.co2     3 ASP3        0.0000 
     22 OD1       -16.6500   29.0600   18.4000 O.co2     3 ASP3        0.0000 
     23 OD1       -15.6600   27.9600   18.1400 O.co2     3 ASP3        0.0000 
     24 OD1       -17.3200   30.7600   17.3200 O.co2     3 ASP3        0.0000 
     25 OD1       -17.9800   32.4600   16.2400 O.co2     3 ASP3        0.0000 
     26 OD1       -13.9200   27.0900   19.8500 O.co2     3 ASP3        0.0000 
     27 OD1       -16.2300   31.5900   17.9500 O.co2     3 ASP3        0.0000 
     28 OD1       -15.2500   30.4900   17.6900 O.co2     3 ASP3        0.0000 
     29 OD1       -15.9100   32.1900   16.6100 O.co2     3 ASP3        0.0000 
     30 OD1       -14.9300   31.0900   16.3500 O.co2     3 ASP3        0.0000 
     31 OD1       -15.5900   32.7900   15.2700 O.co2     3 ASP3        0.0000 
     32 OD1       -14.6100   31.6900   15.0200 O.co2     3 ASP3        0.0000 
     33 OD1       -15.2700   33.3900   13.9400 O.co2     3 ASP3        0.0000 
     34 NZ        -15.1400   30.1400   10.8300 N.4       4 LYS4        0.0000 
     35 NZ        -14.1600   29.0400   10.5700 N.4       4 LYS4        0.0000 
     36 NZ        -14.8200   30.7400    9.4900 N.4       4 LYS4        0.0000 
     37 NZ        -14.0600   30.9600   11.4600 N.4       4 LYS4        0.0000 
     38 NZ        -15.7100   33.7600   10.6300 N.4       4 LYS4        0.0000 
     39 NZ        -14.7300   32.6600   10.3800 N.4       4 LYS4        0.0000 
     40 NZ        -14.4100   33.2600    9.0400 N.4       4 LYS4        0.0000 
     41 NZ        -14.0800   33.8600    7.7000 N.4       4 LYS4        0.0000 
     42 CZ        -18.8200   27.4100   17.1400 C.ar      5 PHE5        0.0000 
     43 CZ        -17.8300   26.3100   16.8800 C.ar      5 PHE5        0.0000 
     44 CZ        -19.5100   32.0100   12.3000 C.ar      5 PHE5        0.0000 
     45 CZ        -16.0800   25.4400   18.5900 C.ar      5 PHE5        0.0000 
     46 CZ        -17.7300   28.2400   17.7700 C.ar      5 PHE5        0.0000 
     47 CZ        -16.7500   27.1400   17.5100 C.ar      5 PHE5        0.0000 
     48 CA        -18.5000   28.0100   15.8000 C.3       6 GLY6        0.0000 
     49 CA        -19.1600   29.7100   14.7200 C.3       6 GLY6        0.0000 
     50 CA        -18.1800   28.6100   14.4600 C.3       6 GLY6        0.0000 
     51 CA        -18.8400   30.3100   13.3800 C.3       6 GLY6        0.0000 
     52 CA        -17.8600   29.2100   13.1300 C.3       6 GLY6        0.0000 
     53 CA        -18.5200   30.9100   12.0500 C.3       6 GLY6        0.0000 
     54 CA        -17.5300   29.8100   11.7900 C.3       6 GLY6        0.0000 
     55 CA        -17.2100   30.4100   10.4500 C.3       6 GLY6        0.0000 
     56 CA        -15.1200   27.2400   14.5800 C.3       6 GLY6        0.0000 
     57 CA        -18.4200   32.8400   12.9300 C.3       6 GLY6        0.0000 
     58 CA        -14.4800   28.4400   11.9100 C.3       6 GLY6        0.0000 
     59 CA        -18.1000   33.4400   11.6000 C.3       6 GLY6        0.0000 
     60 CA        -16.8000   32.9400   10.0000 C.3       6 GLY6        0.0000 
     61 CA        -17.3400   33.6600   13.5600 C.3       6 GLY6        0.0000 
     62 CA        -16.3500   32.5600   13.3100 C.3       6 GLY6        0.0000 
     63 CA        -16.0300   33.1600   11.9700 C.3       6 GLY6        0.0000 
     64 CA        -16.7000   34.8600   10.8900 C.3       6 GLY6        0.0000 
     65 CA        -15.9400   35.0900   12.8600 C.3       6 GLY6        0.0000 
     66 CA        -14.9500   33.9900   12.6000 C.3       6 GLY6        0.0000 
     67 DU        -17.4100   28.8400   16.4300 H         7 CUB7        0.0000 
     68 DU        -18.0800   30.5400   15.3500 H         7 CUB7        0.0000 
     69 DU        -17.0900   29.4400   15.0900 H         7 CUB7        0.0000 
     70 DU        -16.1100   28.3400   14.8400 H         7 CUB7        0.0000 
     71 DU        -17.7600   31.1400   14.0100 H         7 CUB7        0.0000 
     72 DU        -16.7700   30.0400   13.7600 H         7 CUB7        0.0000 
     73 DU        -15.7900   28.9400   13.5000 H         7 CUB7        0.0000 
     74 DU        -17.4400   31.7400   12.6800 H         7 CUB7        0.0000 
     75 DU        -16.4500   30.6400   12.4200 H         7 CUB7        0.0000 
     76 DU        -15.4600   29.5400   12.1600 H         7 CUB7        0.0000 
     77 DU        -16.1300   31.2400   11.0800 H         7 CUB7        0.0000 
     78 DU        -14.6800   26.8600   17.8800 H         7 CUB7        0.0000 
     79 DU        -16.3300   29.6600   17.0600 H         7 CUB7        0.0000 
     80 DU        -15.3400   28.5600   16.8000 H         7 CUB7        0.0000 
     81 DU        -17.0000   31.3600   15.9800 H         7 CUB7        0.0000 
     82 DU        -16.0100   30.2600   15.7200 H         7 CUB7        0.0000 
     83 DU        -15.0200   29.1600   15.4700 H         7 CUB7        0.0000 
     84 DU        -16.6800   31.9600   14.6400 H         7 CUB7        0.0000 
     85 DU        -15.6900   30.8600   14.3900 H         7 CUB7        0.0000 
     86 DU        -14.3800   30.3600   12.7900 H         7 CUB7        0.0000 
     87 DU        -15.0500   32.0600   11.7100 H         7 CUB7        0.0000 
     88 DU        -14.2800   32.2900   13.6800 H         7 CUB7        0.0000 
     89 DU        -14.6300   34.5900   11.2600 H         7 CUB7        0.0000 
@<TRIPOS>BOND
@<TRIPOS>SUBSTRUCTURE
     1 SER1        1 GROUP   
     2 ALA2        9 GROUP   
     3 ASP3       16 GROUP   
     4 LYS4       34 GROUP   
     5 PHE5       42 GROUP   
     6 GLY6       48 GROUP   
     7 CUB7       67 GROUP   
@<TRIPOS>SET

