#    Name: 6jcu_1_ATP
#    Modification time : Fri May 22 19:31:06 2020

@<TRIPOS>MOLECULE
6jcu_1_ATP
   31    33     1     0     1
SMALL
NO_CHARGES


@<TRIPOS>ATOM
      1 PG         19.6830   20.4420   78.6030 P.3       1 ATP401      0.0000 
      2 O1G        19.8010   21.9290   78.8870 O.co2     1 ATP401      0.0000 
      3 O2G        20.4060   20.0080   77.3600 O.co2     1 ATP401      0.0000 
      4 O3G        18.2370   19.9540   78.6820 O.co2     1 ATP401      0.0000 
      5 PB         21.8960   19.1810   80.0900 P.3       1 ATP401      0.0000 
      6 O1B        22.7840   19.5550   78.9450 O.co2     1 ATP401      0.0000 
      7 O2B        22.2540   19.5370   81.5230 O.co2     1 ATP401      0.0000 
      8 O3B        20.3680   19.6760   79.8680 O.3       1 ATP401      0.0000 
      9 PA         22.7160   16.4070   79.6060 P.3       1 ATP401      0.0000 
     10 O1A        24.0420   16.6040   80.2960 O.co2     1 ATP401      0.0000 
     11 O2A        22.7500   16.1910   78.1020 O.co2     1 ATP401      0.0000 
     12 O3A        21.6620   17.5690   80.0380 O.3       1 ATP401      0.0000 
     13 O5'        21.9810   15.1580   80.3050 O.3       1 ATP401      0.0000 
     14 C5'        21.6410   15.2300   81.6900 C.3       1 ATP401      0.0000 
     15 C4'        20.3880   14.3990   81.9270 C.3       1 ATP401      0.0000 
     16 O4'        20.5900   13.1060   81.3580 O.3       1 ATP401      0.0000 
     17 C3'        20.0600   14.1670   83.4040 C.3       1 ATP401      0.0000 
     18 O3'        18.6450   14.3200   83.5980 O.3       1 ATP401      0.0000 
     19 C2'        20.3960   12.7160   83.6630 C.3       1 ATP401      0.0000 
     20 O2'        19.5630   12.1260   84.6830 O.3       1 ATP401      0.0000 
     21 C1'        20.1520   12.1140   82.2940 C.3       1 ATP401      0.0000 
     22 N9         20.9400   10.8820   82.1070 N.pl3     1 ATP401      0.0000 
     23 C8         22.2730   10.7900   82.2080 C.2       1 ATP401      0.0000 
     24 N7         22.6810    9.5260   81.9690 N.2       1 ATP401      0.0000 
     25 C5         21.5830    8.7950   81.7180 C.ar      1 ATP401      0.0000 
     26 C6         21.3100    7.3920   81.3960 C.ar      1 ATP401      0.0000 
     27 N6         22.3290    6.5030   81.3140 N.pl3     1 ATP401      0.0000 
     28 N1         20.0280    7.0380   81.2160 N.ar      1 ATP401      0.0000 
     29 C2         19.0160    7.9070   81.3070 C.ar      1 ATP401      0.0000 
     30 N3         19.1880    9.2000   81.6010 N.ar      1 ATP401      0.0000 
     31 C4         20.4330    9.6880   81.8150 C.ar      1 ATP401      0.0000 
@<TRIPOS>BOND
     1    1    2 ar   
     2    1    3 ar   
     3    1    4 ar   
     4    1    8 1    
     5    5    6 ar   
     6    5    7 ar   
     7    5    8 1    
     8    5   12 1    
     9    9   10 ar   
    10    9   11 ar   
    11    9   12 1    
    12    9   13 1    
    13   13   14 1    
    14   14   15 1    
    15   15   16 1    
    16   15   17 1    
    17   16   21 1    
    18   17   18 1    
    19   17   19 1    
    20   19   20 1    
    21   19   21 1    
    22   21   22 1    
    23   22   23 1    
    24   22   31 1    
    25   23   24 2    
    26   24   25 1    
    27   25   26 ar   
    28   25   31 ar   
    29   26   27 1    
    30   26   28 ar   
    31   28   29 ar   
    32   29   30 ar   
    33   30   31 ar   
@<TRIPOS>SUBSTRUCTURE
     1 ATP401      1 GROUP   
@<TRIPOS>SET
ATOM$ORANGE STATIC     ATOMS   COLORGROUP SYSTEM 
20 14 14 15 15 17 17 19 19 21 21 23 23 25 25 26 26 29 \
29 31 31 

