#    Name: 6bd1_3_ARG_SER_SER_MET_ALA_ALA_SEP_CAVITY_N1_4
#    Modification time : Fri May 22 19:29:07 2020

@<TRIPOS>MOLECULE
6bd1_3_ARG_SER_SER_MET_ALA_ALA_SEP_CAVITY_N1_4
   51     0     5     0     0
SMALL
NO_CHARGES


@<TRIPOS>ATOM
      1 OG         -7.3000  -20.2600  -22.6200 O.3       1 SER1        0.0000 
      2 N          -7.0000  -23.1600  -26.6500 N.am      2 ALA2        0.0000 
      3 O          -8.8100  -18.1800  -24.7800 O.2       2 ALA2        0.0000 
      4 O          -8.7800  -19.0800  -23.5800 O.2       2 ALA2        0.0000 
      5 N          -3.0000  -19.3200  -25.7600 N.am      2 ALA2        0.0000 
      6 O          -2.9700  -20.2200  -24.5600 O.2       2 ALA2        0.0000 
      7 N          -1.5500  -19.6000  -26.0100 N.am      2 ALA2        0.0000 
      8 N          -2.6300  -18.1500  -24.9000 N.am      2 ALA2        0.0000 
      9 CZ         -9.5300  -21.4200  -25.3000 C.ar      3 PHE5        0.0000 
     10 CZ         -8.0500  -22.6000  -24.3400 C.ar      3 PHE5        0.0000 
     11 CZ         -7.6800  -21.4300  -23.4800 C.ar      3 PHE5        0.0000 
     12 CA         -9.9600  -20.8000  -28.5700 C.3       4 GLY6        0.0000 
     13 CA         -9.9300  -21.6900  -27.3700 C.3       4 GLY6        0.0000 
     14 CA         -9.9000  -22.5900  -26.1600 C.3       4 GLY6        0.0000 
     15 CA         -8.5100  -21.0800  -28.8100 C.3       4 GLY6        0.0000 
     16 CA         -8.4800  -21.9800  -27.6100 C.3       4 GLY6        0.0000 
     17 CA         -8.4500  -22.8700  -26.4100 C.3       4 GLY6        0.0000 
     18 CA         -8.4200  -23.7700  -25.2100 C.3       4 GLY6        0.0000 
     19 CA         -7.0300  -22.2600  -27.8600 C.3       4 GLY6        0.0000 
     20 CA         -6.9700  -24.0500  -25.4500 C.3       4 GLY6        0.0000 
     21 CA         -8.1600  -19.0200  -29.1600 C.3       4 GLY6        0.0000 
     22 CA         -8.1300  -19.9100  -27.9500 C.3       4 GLY6        0.0000 
     23 CA         -6.6800  -20.2000  -28.2000 C.3       4 GLY6        0.0000 
     24 CA         -6.6500  -21.0900  -26.9900 C.3       4 GLY6        0.0000 
     25 CA         -6.6000  -22.8800  -24.5900 C.3       4 GLY6        0.0000 
     26 CA         -5.2000  -21.3700  -27.2400 C.3       4 GLY6        0.0000 
     27 CA         -5.1700  -22.2700  -26.0400 C.3       4 GLY6        0.0000 
     28 CA         -5.1400  -23.1700  -24.8300 C.3       4 GLY6        0.0000 
     29 CA         -6.3300  -18.1300  -28.5400 C.3       4 GLY6        0.0000 
     30 CA         -4.8500  -19.3100  -27.5800 C.3       4 GLY6        0.0000 
     31 CA         -4.8300  -20.2100  -26.3800 C.3       4 GLY6        0.0000 
     32 CA         -4.8000  -21.1000  -25.1700 C.3       4 GLY6        0.0000 
     33 CA         -3.4000  -19.5900  -27.8300 C.3       4 GLY6        0.0000 
     34 CA         -3.3700  -20.4900  -26.6200 C.3       4 GLY6        0.0000 
     35 CA         -3.3500  -21.3800  -25.4200 C.3       4 GLY6        0.0000 
     36 CA         -3.0300  -18.4200  -26.9600 C.3       4 GLY6        0.0000 
     37 DU         -9.5800  -19.6300  -27.7100 H         5 CUB7        0.0000 
     38 DU         -9.5600  -20.5200  -26.5100 H         5 CUB7        0.0000 
     39 DU         -8.1000  -20.8100  -26.7500 H         5 CUB7        0.0000 
     40 DU         -8.0800  -21.7000  -25.5500 H         5 CUB7        0.0000 
     41 DU         -6.6200  -21.9900  -25.7900 H         5 CUB7        0.0000 
     42 DU         -9.1800  -19.3500  -25.6400 H         5 CUB7        0.0000 
     43 DU         -9.1600  -20.2500  -24.4400 H         5 CUB7        0.0000 
     44 DU         -7.7600  -18.7400  -27.0900 H         5 CUB7        0.0000 
     45 DU         -7.7000  -20.5300  -24.6900 H         5 CUB7        0.0000 
     46 DU         -6.3100  -19.0300  -27.3400 H         5 CUB7        0.0000 
     47 DU         -6.2800  -19.9200  -26.1300 H         5 CUB7        0.0000 
     48 DU         -6.2500  -20.8200  -24.9300 H         5 CUB7        0.0000 
     49 DU         -4.4800  -18.1400  -26.7200 H         5 CUB7        0.0000 
     50 DU         -4.4500  -19.0400  -25.5200 H         5 CUB7        0.0000 
     51 DU         -2.6500  -17.2600  -26.1000 H         5 CUB7        0.0000 
@<TRIPOS>BOND
@<TRIPOS>SUBSTRUCTURE
     1 SER1        1 GROUP   
     2 ALA2        2 GROUP   
     3 PHE5        9 GROUP   
     4 GLY6       12 GROUP   
     5 CUB7       37 GROUP   
@<TRIPOS>SET

