#    Name: 6bd1_3_ARG_SER_SER_MET_ALA_ALA_SEP
#    Modification time : Fri May 22 19:29:05 2020

@<TRIPOS>MOLECULE
6bd1_3_ARG_SER_SER_MET_ALA_ALA_SEP
   96    95     7     0     0
SMALL
NO_CHARGES


@<TRIPOS>ATOM
      1 N           9.8320  -10.9110  -27.2870 N.am      1 ARG363      0.0000 
      2 CA          9.4670  -11.9430  -26.3230 C.3       1 ARG363      0.0000 
      3 C           8.3960  -12.8710  -26.9030 C.2       1 ARG363      0.0000 
      4 O           7.6220  -12.4730  -27.7740 O.2       1 ARG363      0.0000 
      5 CB          8.9780  -11.3060  -25.0220 C.3       1 ARG363      0.0000 
      6 CG          8.8010  -12.2890  -23.8810 C.3       1 ARG363      0.0000 
      7 CD          8.3980  -11.5830  -22.5980 C.3       1 ARG363      0.0000 
      8 NE          7.4360  -12.3700  -21.8300 N.pl3     1 ARG363      0.0000 
      9 CZ          7.7550  -13.3870  -21.0340 C.cat     1 ARG363      0.0000 
     10 NH1         6.8010  -14.0380  -20.3820 N.pl3     1 ARG363      0.0000 
     11 NH2         9.0210  -13.7600  -20.8900 N.pl3     1 ARG363      0.0000 
     12 H           9.1650  -10.4510  -27.5760 H         1 ARG363      0.0000 
     13 HA         10.2500  -12.4780  -26.1200 H         1 ARG363      0.0000 
     14 HB2         9.6230  -10.6380  -24.7400 H         1 ARG363      0.0000 
     15 HB3         8.1200  -10.8840  -25.1850 H         1 ARG363      0.0000 
     16 HG2         8.1050  -12.9240  -24.1110 H         1 ARG363      0.0000 
     17 HG3         9.6390  -12.7510  -23.7240 H         1 ARG363      0.0000 
     18 HD2         9.1850  -11.4450  -22.0480 H         1 ARG363      0.0000 
     19 HD3         7.9880  -10.7310  -22.8160 H         1 ARG363      0.0000 
     20 HE          6.6040  -12.1600  -21.8970 H         1 ARG363      0.0000 
     21 HH11        5.9800  -13.8010  -20.4720 H         1 ARG363      0.0000 
     22 HH12        7.0050  -14.6960  -19.8670 H         1 ARG363      0.0000 
     23 HH21        9.6430  -13.3420  -21.3120 H         1 ARG363      0.0000 
     24 HH22        9.2190  -14.4190  -20.3740 H         1 ARG363      0.0000 
     25 N           8.3540  -14.1060  -26.4070 N.am      2 SER364      0.0000 
     26 CA          7.5020  -15.1320  -26.9910 C.3       2 SER364      0.0000 
     27 C           6.0240  -14.8030  -26.8010 C.2       2 SER364      0.0000 
     28 O           5.6330  -14.0190  -25.9310 O.2       2 SER364      0.0000 
     29 CB          7.8040  -16.4970  -26.3740 C.3       2 SER364      0.0000 
     30 OG          9.1140  -16.9260  -26.7020 O.3       2 SER364      0.0000 
     31 H           8.8130  -14.3740  -25.7300 H         2 SER364      0.0000 
     32 HA          7.6790  -15.1860  -27.9430 H         2 SER364      0.0000 
     33 HB2         7.7270  -16.4310  -25.4090 H         2 SER364      0.0000 
     34 HB3         7.1660  -17.1440  -26.7140 H         2 SER364      0.0000 
     35 HG          9.6780  -16.3750  -26.4130 H         2 SER364      0.0000 
     36 N           5.1990  -15.4340  -27.6320 N.am      3 SER365      0.0000 
     37 CA          3.7550  -15.2580  -27.5870 C.3       3 SER365      0.0000 
     38 C           3.0770  -16.5160  -27.0540 C.2       3 SER365      0.0000 
     39 O           3.2280  -17.6010  -27.6170 O.2       3 SER365      0.0000 
     40 CB          3.2100  -14.9230  -28.9790 C.3       3 SER365      0.0000 
     41 OG          3.8280  -13.7630  -29.5090 O.3       3 SER365      0.0000 
     42 H           5.4600  -15.9810  -28.2430 H         3 SER365      0.0000 
     43 HA          3.5410  -14.5220  -26.9920 H         3 SER365      0.0000 
     44 HB2         3.3840  -15.6700  -29.5730 H         3 SER365      0.0000 
     45 HB3         2.2550  -14.7680  -28.9140 H         3 SER365      0.0000 
     46 HG          3.5170  -13.5950  -30.2710 H         3 SER365      0.0000 
     47 N          -0.7720  -18.2100  -25.5560 N.am      4 MET367      0.0000 
     48 CA         -2.1450  -18.1590  -26.0380 C.3       4 MET367      0.0000 
     49 C          -2.8540  -16.9280  -25.4890 C.2       4 MET367      0.0000 
     50 O          -2.7350  -16.6000  -24.3080 O.2       4 MET367      0.0000 
     51 CB         -2.9200  -19.4210  -25.6550 C.3       4 MET367      0.0000 
     52 CG         -4.3780  -19.3550  -26.0740 C.3       4 MET367      0.0000 
     53 SD         -5.2510  -20.9260  -25.9900 S.3       4 MET367      0.0000 
     54 CE         -6.8890  -20.3950  -26.4820 C.3       4 MET367      0.0000 
     55 H          -0.5940  -18.8850  -25.0540 H         4 MET367      0.0000 
     56 HA         -2.1330  -18.1040  -27.0070 H         4 MET367      0.0000 
     57 HB2        -2.5150  -20.1860  -26.0930 H         4 MET367      0.0000 
     58 HB3        -2.8880  -19.5320  -24.6920 H         4 MET367      0.0000 
     59 HG2        -4.8400  -18.7310  -25.4930 H         4 MET367      0.0000 
     60 HG3        -4.4230  -19.0420  -26.9910 H         4 MET367      0.0000 
     61 HE1        -7.4830  -21.1610  -26.4820 H         4 MET367      0.0000 
     62 HE2        -7.2060  -19.7290  -25.8520 H         4 MET367      0.0000 
     63 HE3        -6.8420  -20.0120  -27.3720 H         4 MET367      0.0000 
     64 N          -3.5910  -16.2520  -26.3640 N.am      5 ALA368      0.0000 
     65 CA         -4.3100  -15.0440  -26.0000 C.3       5 ALA368      0.0000 
     66 C          -5.5890  -15.3860  -25.2360 C.2       5 ALA368      0.0000 
     67 O          -5.9590  -16.5520  -25.0720 O.2       5 ALA368      0.0000 
     68 CB         -4.6440  -14.2290  -27.2480 C.3       5 ALA368      0.0000 
     69 H          -3.6900  -16.4790  -27.1880 H         5 ALA368      0.0000 
     70 HA         -3.7500  -14.5010  -25.4240 H         5 ALA368      0.0000 
     71 HB1        -5.1230  -13.4290  -26.9830 H         5 ALA368      0.0000 
     72 HB2        -3.8180  -13.9880  -27.6970 H         5 ALA368      0.0000 
     73 HB3        -5.1960  -14.7660  -27.8370 H         5 ALA368      0.0000 
     74 N          -6.2590  -14.3380  -24.7630 N.am      6 ALA369      0.0000 
     75 CA         -7.5340  -14.4620  -24.0620 C.3       6 ALA369      0.0000 
     76 C          -8.4230  -15.5360  -24.6840 C.2       6 ALA369      0.0000 
     77 O          -9.4050  -15.2300  -25.3610 O.2       6 ALA369      0.0000 
     78 CB         -8.2580  -13.1190  -24.0580 C.3       6 ALA369      0.0000 
     79 H          -5.9890  -13.5250  -24.8380 H         6 ALA369      0.0000 
     80 HA         -7.3630  -14.7120  -23.1400 H         6 ALA369      0.0000 
     81 HB1        -9.1020  -13.2170  -23.5900 H         6 ALA369      0.0000 
     82 HB2        -7.7040  -12.4630  -23.6080 H         6 ALA369      0.0000 
     83 HB3        -8.4180  -12.8450  -24.9750 H         6 ALA369      0.0000 
     84 N           2.3390  -16.3630  -25.9610 N.am      7 SEP366      0.0000 
     85 CA          1.5290  -17.4460  -25.4220 C.3       7 SEP366      0.0000 
     86 CB          1.5920  -17.4710  -23.8960 C.3       7 SEP366      0.0000 
     87 OG          1.1000  -16.2600  -23.3600 O.3       7 SEP366      0.0000 
     88 C           0.0970  -17.2640  -25.8950 C.2       7 SEP366      0.0000 
     89 O          -0.2200  -16.2760  -26.5560 O.2       7 SEP366      0.0000 
     90 P           1.4010  -16.1830  -21.7830 P.3       7 SEP366      0.0000 
     91 O1P         2.9900  -16.1750  -21.5280 O.co2     7 SEP366      0.0000 
     92 O2P         0.7430  -17.4630  -21.0600 O.co2     7 SEP366      0.0000 
     93 O3P         0.7520  -14.8300  -21.1990 O.co2     7 SEP366      0.0000 
     94 HA          1.8610  -18.3040  -25.7610 H         7 SEP366      0.0000 
     95 HB2         2.5140  -17.5890  -23.6190 H         7 SEP366      0.0000 
     96 HB3         1.0500  -18.2060  -23.5690 H         7 SEP366      0.0000 
@<TRIPOS>BOND
     1    1    2 1    
     2    1   12 1    
     3    2    3 1    
     4    2    5 1    
     5    2   13 1    
     6    3    4 2    
     7    3   25 am   
     8    5    6 1    
     9    5   14 1    
    10    5   15 1    
    11    6    7 1    
    12    6   16 1    
    13    6   17 1    
    14    7    8 1    
    15    7   18 1    
    16    7   19 1    
    17    8    9 ar   
    18    9   10 ar   
    19    8   20 1    
    20    9   11 ar   
    21   25   26 1    
    22   10   21 1    
    23   10   22 1    
    24   11   23 1    
    25   11   24 1    
    26   26   27 1    
    27   25   31 1    
    28   26   29 1    
    29   26   32 1    
    30   27   28 2    
    31   27   36 am   
    32   29   30 1    
    33   29   33 1    
    34   29   34 1    
    35   30   35 1    
    36   36   37 1    
    37   36   42 1    
    38   37   38 1    
    39   37   40 1    
    40   37   43 1    
    41   38   39 2    
    42   38   84 du   
    43   40   41 1    
    44   40   44 1    
    45   40   45 1    
    46   41   46 1    
    47   47   48 1    
    48   47   55 1    
    49   47   88 am   
    50   48   49 1    
    51   48   51 1    
    52   48   56 1    
    53   49   50 2    
    54   49   64 am   
    55   51   52 1    
    56   51   57 1    
    57   51   58 1    
    58   52   53 1    
    59   52   59 1    
    60   52   60 1    
    61   53   54 1    
    62   54   61 1    
    63   54   62 1    
    64   54   63 1    
    65   64   65 1    
    66   64   69 1    
    67   65   66 1    
    68   65   68 1    
    69   65   70 1    
    70   66   67 2    
    71   66   74 am   
    72   68   71 1    
    73   68   72 1    
    74   68   73 1    
    75   74   75 1    
    76   74   79 1    
    77   75   76 1    
    78   75   78 1    
    79   75   80 1    
    80   76   77 2    
    81   78   81 1    
    82   78   82 1    
    83   78   83 1    
    84   84   85 1    
    85   85   86 1    
    86   85   88 1    
    87   85   94 1    
    88   86   87 1    
    89   86   95 1    
    90   86   96 1    
    91   87   90 1    
    92   88   89 2    
    93   90   91 ar   
    94   90   92 ar   
    95   90   93 ar   
@<TRIPOS>SUBSTRUCTURE
     1 ARG363      1 RESIDUE 
     2 SER364     25 RESIDUE 
     3 SER365     36 RESIDUE 
     4 MET367     47 RESIDUE 
     5 ALA368     64 RESIDUE 
     6 ALA369     74 RESIDUE 
     7 SEP366     84 RESIDUE 
@<TRIPOS>SET

