#    Name: 6bd1_1_ARG_SER_SER_MET_ALA_ALA_SEP
#    Modification time : Fri May 22 19:28:59 2020

@<TRIPOS>MOLECULE
6bd1_1_ARG_SER_SER_MET_ALA_ALA_SEP
   96    95     7     0     0
SMALL
NO_CHARGES


@<TRIPOS>ATOM
      1 N           1.8670  -11.5860   25.2570 N.am      1 ARG363      0.0000 
      2 CA          1.2720  -10.5700   24.3970 C.3       1 ARG363      0.0000 
      3 C           0.4520   -9.5700   25.2050 C.2       1 ARG363      0.0000 
      4 O          -0.0980   -9.9060   26.2540 O.2       1 ARG363      0.0000 
      5 CB          0.3920  -11.2220   23.3290 C.3       1 ARG363      0.0000 
      6 CG          0.9050  -11.0310   21.9110 C.3       1 ARG363      0.0000 
      7 CD          0.0370  -11.7640   20.8970 C.3       1 ARG363      0.0000 
      8 NE         -1.3610  -11.3450   20.9620 N.pl3     1 ARG363      0.0000 
      9 CZ         -1.8210  -10.1870   20.4960 C.cat     1 ARG363      0.0000 
     10 NH1        -3.1120   -9.8960   20.5990 N.pl3     1 ARG363      0.0000 
     11 NH2        -0.9930   -9.3150   19.9350 N.pl3     1 ARG363      0.0000 
     12 H           2.4990  -12.0340   24.8830 H         1 ARG363      0.0000 
     13 HA          1.9790  -10.0830   23.9460 H         1 ARG363      0.0000 
     14 HB2         0.3450  -12.1750   23.5020 H         1 ARG363      0.0000 
     15 HB3        -0.4970  -10.8350   23.3770 H         1 ARG363      0.0000 
     16 HG2         0.8960  -10.0860   21.6920 H         1 ARG363      0.0000 
     17 HG3         1.8070  -11.3820   21.8480 H         1 ARG363      0.0000 
     18 HD2         0.3670  -11.5780   20.0040 H         1 ARG363      0.0000 
     19 HD3         0.0760  -12.7160   21.0760 H         1 ARG363      0.0000 
     20 HE         -1.9240  -11.8830   21.3260 H         1 ARG363      0.0000 
     21 HH11       -3.6510  -10.4570   20.9650 H         1 ARG363      0.0000 
     22 HH12       -3.4090   -9.1460   20.3010 H         1 ARG363      0.0000 
     23 HH21       -0.1560   -9.5000   19.8660 H         1 ARG363      0.0000 
     24 HH22       -1.2950   -8.5670   19.6360 H         1 ARG363      0.0000 
     25 N           0.3790   -8.3390   24.7060 N.am      2 SER364      0.0000 
     26 CA         -0.4040   -7.3060   25.3670 C.3       2 SER364      0.0000 
     27 C          -1.8950   -7.5720   25.1920 C.2       2 SER364      0.0000 
     28 O          -2.3330   -8.1920   24.2190 O.2       2 SER364      0.0000 
     29 CB         -0.0560   -5.9260   24.8060 C.3       2 SER364      0.0000 
     30 OG          1.3430   -5.7720   24.6470 O.3       2 SER364      0.0000 
     31 H           0.7730   -8.0790   23.9880 H         2 SER364      0.0000 
     32 HA         -0.2030   -7.3090   26.3160 H         2 SER364      0.0000 
     33 HB2        -0.4840   -5.8220   23.9410 H         2 SER364      0.0000 
     34 HB3        -0.3800   -5.2470   25.4190 H         2 SER364      0.0000 
     35 HG          1.6370   -6.3540   24.1180 H         2 SER364      0.0000 
     36 N          -2.6780   -7.0880   26.1510 N.am      3 SER365      0.0000 
     37 CA         -4.1250   -7.2440   26.1150 C.3       3 SER365      0.0000 
     38 C          -4.7800   -5.9750   25.5850 C.2       3 SER365      0.0000 
     39 O          -4.5210   -4.8760   26.0780 O.2       3 SER365      0.0000 
     40 CB         -4.6710   -7.5730   27.5070 C.3       3 SER365      0.0000 
     41 OG         -4.0310   -8.7130   28.0530 O.3       3 SER365      0.0000 
     42 H          -2.3900   -6.6620   26.8400 H         3 SER365      0.0000 
     43 HA         -4.3530   -7.9750   25.5190 H         3 SER365      0.0000 
     44 HB2        -4.5160   -6.8150   28.0920 H         3 SER365      0.0000 
     45 HB3        -5.6220   -7.7490   27.4380 H         3 SER365      0.0000 
     46 HG         -3.2050   -8.5740   28.1190 H         3 SER365      0.0000 
     47 N          -8.7240   -4.2550   24.2770 N.am      4 MET367      0.0000 
     48 CA        -10.0780   -4.3020   24.8170 C.3       4 MET367      0.0000 
     49 C         -10.8190   -5.5230   24.2870 C.2       4 MET367      0.0000 
     50 O         -10.5970   -5.9550   23.1560 O.2       4 MET367      0.0000 
     51 CB        -10.8590   -3.0310   24.4770 C.3       4 MET367      0.0000 
     52 CG        -12.0810   -2.8350   25.3640 C.3       4 MET367      0.0000 
     53 SD        -13.5820   -2.4200   24.4530 S.3       4 MET367      0.0000 
     54 CE        -13.4030   -0.6490   24.3040 C.3       4 MET367      0.0000 
     55 H          -8.5590   -3.5710   23.7820 H         4 MET367      0.0000 
     56 HA        -10.0250   -4.3660   25.7840 H         4 MET367      0.0000 
     57 HB2       -10.2780   -2.2630   24.5920 H         4 MET367      0.0000 
     58 HB3       -11.1610   -3.0840   23.5570 H         4 MET367      0.0000 
     59 HG2       -12.2490   -3.6570   25.8520 H         4 MET367      0.0000 
     60 HG3       -11.9030   -2.1130   25.9870 H         4 MET367      0.0000 
     61 HE1       -14.1660   -0.2950   23.8210 H         4 MET367      0.0000 
     62 HE2       -13.3640   -0.2610   25.1920 H         4 MET367      0.0000 
     63 HE3       -12.5850   -0.4550   23.8210 H         4 MET367      0.0000 
     64 N         -11.7010   -6.0780   25.1210 N.am      5 ALA368      0.0000 
     65 CA        -12.4970   -7.2330   24.7260 C.3       5 ALA368      0.0000 
     66 C         -13.4510   -6.9240   23.5800 C.2       5 ALA368      0.0000 
     67 O         -13.9960   -7.8640   22.9910 O.2       5 ALA368      0.0000 
     68 CB        -13.2850   -7.7540   25.9300 C.3       5 ALA368      0.0000 
     69 H         -11.8550   -5.8010   25.9200 H         5 ALA368      0.0000 
     70 HA        -11.9000   -7.9390   24.4330 H         5 ALA368      0.0000 
     71 HB1       -13.8100   -8.5220   25.6550 H         5 ALA368      0.0000 
     72 HB2       -12.6620   -8.0120   26.6270 H         5 ALA368      0.0000 
     73 HB3       -13.8700   -7.0510   26.2520 H         5 ALA368      0.0000 
     74 N         -13.6550   -5.6440   23.2610 N.am      6 ALA369      0.0000 
     75 CA        -14.5050   -5.1800   22.1560 C.3       6 ALA369      0.0000 
     76 C         -15.4090   -6.2570   21.5610 C.2       6 ALA369      0.0000 
     77 O         -16.5160   -5.9690   21.1070 O.2       6 ALA369      0.0000 
     78 CB        -13.6320   -4.5770   21.0590 C.3       6 ALA369      0.0000 
     79 H         -13.2930   -4.9940   23.6930 H         6 ALA369      0.0000 
     80 HA        -15.0800   -4.4730   22.4900 H         6 ALA369      0.0000 
     81 HB1       -14.2010   -4.2730   20.3350 H         6 ALA369      0.0000 
     82 HB2       -13.1360   -3.8290   21.4270 H         6 ALA369      0.0000 
     83 HB3       -13.0180   -5.2550   20.7370 H         6 ALA369      0.0000 
     84 N          -5.6190   -6.1390   24.5680 N.am      7 SEP366      0.0000 
     85 CA         -6.4310   -5.0480   24.0460 C.3       7 SEP366      0.0000 
     86 CB         -6.3990   -5.0300   22.5180 C.3       7 SEP366      0.0000 
     87 OG         -6.9880   -6.2010   21.9820 O.3       7 SEP366      0.0000 
     88 C          -7.8550   -5.2190   24.5580 C.2       7 SEP366      0.0000 
     89 O          -8.1620   -6.2170   25.2040 O.2       7 SEP366      0.0000 
     90 P          -6.6430   -6.3380   20.4160 P.3       7 SEP366      0.0000 
     91 O1P        -7.2490   -5.0790   19.6180 O.co2     7 SEP366      0.0000 
     92 O2P        -5.0500   -6.3810   20.1960 O.co2     7 SEP366      0.0000 
     93 O3P        -7.2970   -7.7010   19.8580 O.co2     7 SEP366      0.0000 
     94 HA         -6.0820   -4.1930   24.3750 H         7 SEP366      0.0000 
     95 HB2        -5.4760   -4.9780   22.2220 H         7 SEP366      0.0000 
     96 HB3        -6.8910   -4.2560   22.2010 H         7 SEP366      0.0000 
@<TRIPOS>BOND
     1    1    2 1    
     2    1   12 1    
     3    2    3 1    
     4    2    5 1    
     5    2   13 1    
     6    3    4 2    
     7    3   25 am   
     8    5    6 1    
     9    5   14 1    
    10    5   15 1    
    11    6    7 1    
    12    6   16 1    
    13    6   17 1    
    14    7    8 1    
    15    7   18 1    
    16    7   19 1    
    17    8    9 ar   
    18    9   10 ar   
    19    8   20 1    
    20    9   11 ar   
    21   25   26 1    
    22   10   21 1    
    23   10   22 1    
    24   11   23 1    
    25   11   24 1    
    26   26   27 1    
    27   25   31 1    
    28   26   29 1    
    29   26   32 1    
    30   27   28 2    
    31   27   36 am   
    32   29   30 1    
    33   29   33 1    
    34   29   34 1    
    35   30   35 1    
    36   36   37 1    
    37   36   42 1    
    38   37   38 1    
    39   37   40 1    
    40   37   43 1    
    41   38   39 2    
    42   38   84 du   
    43   40   41 1    
    44   40   44 1    
    45   40   45 1    
    46   41   46 1    
    47   47   48 1    
    48   47   55 1    
    49   47   88 am   
    50   48   49 1    
    51   48   51 1    
    52   48   56 1    
    53   49   50 2    
    54   49   64 am   
    55   51   52 1    
    56   51   57 1    
    57   51   58 1    
    58   52   53 1    
    59   52   59 1    
    60   52   60 1    
    61   53   54 1    
    62   54   61 1    
    63   54   62 1    
    64   54   63 1    
    65   64   65 1    
    66   64   69 1    
    67   65   66 1    
    68   65   68 1    
    69   65   70 1    
    70   66   67 2    
    71   66   74 am   
    72   68   71 1    
    73   68   72 1    
    74   68   73 1    
    75   74   75 1    
    76   74   79 1    
    77   75   76 1    
    78   75   78 1    
    79   75   80 1    
    80   76   77 2    
    81   78   81 1    
    82   78   82 1    
    83   78   83 1    
    84   84   85 1    
    85   85   86 1    
    86   85   88 1    
    87   85   94 1    
    88   86   87 1    
    89   86   95 1    
    90   86   96 1    
    91   87   90 1    
    92   88   89 2    
    93   90   91 ar   
    94   90   92 ar   
    95   90   93 ar   
@<TRIPOS>SUBSTRUCTURE
     1 ARG363      1 RESIDUE 
     2 SER364     25 RESIDUE 
     3 SER365     36 RESIDUE 
     4 MET367     47 RESIDUE 
     5 ALA368     64 RESIDUE 
     6 ALA369     74 RESIDUE 
     7 SEP366     84 RESIDUE 
@<TRIPOS>SET

