#    Name: 6bd1_1_ARG_SER_SER_MET_ALA_ALA_SEP_CAVITY_N1_8
#    Modification time : Fri May 22 19:29:01 2020

@<TRIPOS>MOLECULE
6bd1_1_ARG_SER_SER_MET_ALA_ALA_SEP_CAVITY_N1_8
   67     0     6     0     0
SMALL
NO_CHARGES


@<TRIPOS>ATOM
      1 OG        -15.6300   -6.0700   21.7900 O.3       1 SER1        0.0000 
      2 OG        -16.7400   -3.7200   21.6900 O.3       1 SER1        0.0000 
      3 OG        -15.2900   -4.0000   21.4500 O.3       1 SER1        0.0000 
      4 OG        -13.8600   -3.3900   20.0000 O.3       1 SER1        0.0000 
      5 OG        -13.8300   -4.2900   21.2100 O.3       1 SER1        0.0000 
      6 N         -10.1500   -3.4100   23.6400 N.am      2 ALA2        0.0000 
      7 N          -9.7800   -2.2400   24.5000 N.am      2 ALA2        0.0000 
      8 N         -15.2200    0.0700   26.3400 N.am      2 ALA2        0.0000 
      9 N         -13.7900    0.6800   24.9000 N.am      2 ALA2        0.0000 
     10 OD1       -12.7300   -6.6300   21.3000 O.co2     3 ASP3        0.0000 
     11 OD1       -12.3800   -4.5700   20.9600 O.co2     3 ASP3        0.0000 
     12 OD1       -14.9400   -1.9400   21.1100 O.co2     3 ASP3        0.0000 
     13 OD1       -13.4600   -3.1200   22.0700 O.co2     3 ASP3        0.0000 
     14 OD1       -12.0100   -3.4000   21.8200 O.co2     3 ASP3        0.0000 
     15 OD1       -14.5700   -0.7700   21.9700 O.co2     3 ASP3        0.0000 
     16 OD1       -14.5400   -1.6600   23.1700 O.co2     3 ASP3        0.0000 
     17 OD1       -13.0900   -1.9500   22.9300 O.co2     3 ASP3        0.0000 
     18 OD1       -11.6300   -2.2300   22.6800 O.co2     3 ASP3        0.0000 
     19 OD1       -14.1900    0.4000   22.8300 O.co2     3 ASP3        0.0000 
     20 OD1       -14.1600   -0.4900   24.0400 O.co2     3 ASP3        0.0000 
     21 OD1       -12.7100   -0.7800   23.7900 O.co2     3 ASP3        0.0000 
     22 CZ        -16.3600   -2.5500   22.5600 C.ar      4 PHE5        0.0000 
     23 CZ        -15.9900   -1.3800   23.4200 C.ar      4 PHE5        0.0000 
     24 CZ        -15.6400    0.6900   23.0800 C.ar      4 PHE5        0.0000 
     25 CA        -15.8800   -4.9600   28.2300 C.3       5 GLY6        0.0000 
     26 CA        -14.4300   -5.2400   27.9900 C.3       5 GLY6        0.0000 
     27 CA        -12.9800   -5.5300   27.7400 C.3       5 GLY6        0.0000 
     28 CA        -11.5500   -4.9200   26.2900 C.3       5 GLY6        0.0000 
     29 CA        -11.5200   -5.8100   27.5000 C.3       5 GLY6        0.0000 
     30 CA        -11.5000   -6.7100   28.7000 C.3       5 GLY6        0.0000 
     31 CA        -10.1300   -4.3100   24.8500 C.3       5 GLY6        0.0000 
     32 CA        -10.1000   -5.2000   26.0500 C.3       5 GLY6        0.0000 
     33 CA        -15.5600   -2.0000   26.6900 C.3       5 GLY6        0.0000 
     34 CA        -15.5300   -2.8900   27.8900 C.3       5 GLY6        0.0000 
     35 CA        -14.1400   -1.3900   25.2400 C.3       5 GLY6        0.0000 
     36 CA        -14.1100   -2.2800   26.4400 C.3       5 GLY6        0.0000 
     37 CA        -14.0800   -3.1800   27.6400 C.3       5 GLY6        0.0000 
     38 CA        -14.0500   -4.0700   28.8500 C.3       5 GLY6        0.0000 
     39 CA        -12.6800   -1.6700   24.9900 C.3       5 GLY6        0.0000 
     40 CA        -12.6600   -2.5700   26.2000 C.3       5 GLY6        0.0000 
     41 CA        -12.6300   -3.4600   27.4000 C.3       5 GLY6        0.0000 
     42 CA        -12.6000   -4.3600   28.6000 C.3       5 GLY6        0.0000 
     43 CA        -11.2600   -1.0600   23.5500 C.3       5 GLY6        0.0000 
     44 CA        -11.2300   -1.9600   24.7500 C.3       5 GLY6        0.0000 
     45 CA        -11.2000   -2.8500   25.9500 C.3       5 GLY6        0.0000 
     46 CA        -11.1800   -3.7500   27.1600 C.3       5 GLY6        0.0000 
     47 CA        -15.2400    0.9600   25.1400 C.3       5 GLY6        0.0000 
     48 CA        -13.7600   -0.2200   26.1000 C.3       5 GLY6        0.0000 
     49 DU        -16.7100   -4.6100   22.9000 H         6 CUB7        0.0000 
     50 DU        -15.2600   -4.9000   22.6500 H         6 CUB7        0.0000 
     51 DU        -13.8100   -5.1800   22.4100 H         6 CUB7        0.0000 
     52 DU        -16.3400   -3.4400   23.7600 H         6 CUB7        0.0000 
     53 DU        -14.9100   -2.8300   22.3100 H         6 CUB7        0.0000 
     54 DU        -13.4300   -4.0100   23.2700 H         6 CUB7        0.0000 
     55 DU        -11.9800   -4.3000   23.0300 H         6 CUB7        0.0000 
     56 DU        -15.9400   -3.1700   25.8200 H         6 CUB7        0.0000 
     57 DU        -15.9100   -4.0600   27.0300 H         6 CUB7        0.0000 
     58 DU        -14.5100   -2.5600   24.3800 H         6 CUB7        0.0000 
     59 DU        -14.4800   -3.4500   25.5800 H         6 CUB7        0.0000 
     60 DU        -14.4600   -4.3500   26.7800 H         6 CUB7        0.0000 
     61 DU        -13.0600   -2.8400   24.1300 H         6 CUB7        0.0000 
     62 DU        -13.0300   -3.7400   25.3400 H         6 CUB7        0.0000 
     63 DU        -13.0000   -4.6300   26.5400 H         6 CUB7        0.0000 
     64 DU        -11.6100   -3.1300   23.8900 H         6 CUB7        0.0000 
     65 DU        -11.5800   -4.0200   25.0900 H         6 CUB7        0.0000 
     66 DU        -15.6200   -0.2100   24.2800 H         6 CUB7        0.0000 
     67 DU        -15.5900   -1.1000   25.4800 H         6 CUB7        0.0000 
@<TRIPOS>BOND
@<TRIPOS>SUBSTRUCTURE
     1 SER1        1 GROUP   
     2 ALA2        6 GROUP   
     3 ASP3       10 GROUP   
     4 PHE5       22 GROUP   
     5 GLY6       25 GROUP   
     6 CUB7       49 GROUP   
@<TRIPOS>SET

