#    Name: 5zai_1_COA
#    Modification time : Fri May 22 19:33:44 2020

@<TRIPOS>MOLECULE
5zai_1_COA
   48    50     1     0     1
SMALL
NO_CHARGES


@<TRIPOS>ATOM
      1 N1A        13.7700   -9.6830    1.2200 N.ar      1 COA301      0.0000 
      2 C2A        13.2470  -10.7760    0.5690 C.ar      1 COA301      0.0000 
      3 N3A        13.2620  -12.0080    1.1030 N.ar      1 COA301      0.0000 
      4 C4A        13.9090  -12.2150    2.2670 C.ar      1 COA301      0.0000 
      5 C5A        14.5370  -11.1090    3.0120 C.ar      1 COA301      0.0000 
      6 C6A        14.4310   -9.7830    2.3920 C.ar      1 COA301      0.0000 
      7 N6A        14.9550   -8.7060    3.0330 N.pl3     1 COA301      0.0000 
      8 N7A        15.1140  -11.6340    4.1320 N.2       1 COA301      0.0000 
      9 C8A        14.8750  -12.9390    4.1010 C.2       1 COA301      0.0000 
     10 N9A        14.1810  -13.2920    2.9730 N.pl3     1 COA301      0.0000 
     11 C1B        13.7050  -14.6550    2.5780 C.3       1 COA301      0.0000 
     12 C2B        14.8340  -15.5480    2.1050 C.3       1 COA301      0.0000 
     13 O2B        15.2020  -15.2150    0.7700 O.3       1 COA301      0.0000 
     14 C3B        14.2180  -16.9230    2.3510 C.3       1 COA301      0.0000 
     15 O3B        13.2900  -17.1740    1.2990 O.3       1 COA301      0.0000 
     16 P3B        13.0380  -18.6710    0.6490 P.3       1 COA301      0.0000 
     17 O7A        14.1550  -18.6970   -0.3670 O.co2     1 COA301      0.0000 
     18 O8A        13.2170  -19.6180    1.7580 O.co2     1 COA301      0.0000 
     19 O9A        11.6890  -18.5030    0.0120 O.co2     1 COA301      0.0000 
     20 C4B        13.4650  -16.7320    3.6510 C.3       1 COA301      0.0000 
     21 O4B        13.2250  -15.2980    3.7280 O.3       1 COA301      0.0000 
     22 C5B        14.1880  -17.1830    4.8680 C.3       1 COA301      0.0000 
     23 O5B        15.4850  -16.5490    4.8850 O.3       1 COA301      0.0000 
     24 P1A        16.8690  -17.3930    5.0200 P.3       1 COA301      0.0000 
     25 O1A        17.9760  -16.6260    4.3780 O.co2     1 COA301      0.0000 
     26 O2A        16.5400  -18.7540    4.4340 O.co2     1 COA301      0.0000 
     27 O3A        16.9620  -17.5440    6.6000 O.3       1 COA301      0.0000 
     28 P2A        18.3730  -17.6430    7.3520 P.3       1 COA301      0.0000 
     29 O4A        17.9580  -17.9060    8.7530 O.co2     1 COA301      0.0000 
     30 O5A        19.2890  -18.4480    6.5150 O.co2     1 COA301      0.0000 
     31 O6A        19.0810  -16.1790    7.2470 O.3       1 COA301      0.0000 
     32 CBP        19.0970  -13.7780    7.4080 C.3       1 COA301      0.0000 
     33 CCP        18.5190  -15.0760    7.9450 C.3       1 COA301      0.0000 
     34 CDP        18.2770  -12.6270    7.9890 C.3       1 COA301      0.0000 
     35 CEP        20.5370  -13.7000    7.8940 C.3       1 COA301      0.0000 
     36 CAP        19.0470  -13.7580    5.8790 C.3       1 COA301      0.0000 
     37 OAP        17.7500  -14.1960    5.4320 O.3       1 COA301      0.0000 
     38 C9P        19.3470  -12.4100    5.2550 C.2       1 COA301      0.0000 
     39 O9P        20.5010  -12.0300    5.2030 O.2       1 COA301      0.0000 
     40 N8P        18.3500  -11.6950    4.7210 N.am      1 COA301      0.0000 
     41 C7P        18.5890  -10.4620    3.9830 C.3       1 COA301      0.0000 
     42 C6P        18.6400   -9.2770    4.9490 C.3       1 COA301      0.0000 
     43 C5P        18.9380   -7.9350    4.3050 C.2       1 COA301      0.0000 
     44 O5P        19.8970   -7.7570    3.5340 O.2       1 COA301      0.0000 
     45 N4P        18.1070   -6.9450    4.6390 N.am      1 COA301      0.0000 
     46 C3P        18.2590   -5.6370    4.0360 C.3       1 COA301      0.0000 
     47 C2P        17.6790   -5.6950    2.6210 C.3       1 COA301      0.0000 
     48 S1P        17.3940   -4.0770    1.8490 S.3       1 COA301      0.0000 
@<TRIPOS>BOND
     1    1    2 ar   
     2    1    6 ar   
     3    2    3 ar   
     4    3    4 ar   
     5    4    5 ar   
     6    4   10 1    
     7    5    6 ar   
     8    5    8 1    
     9    6    7 1    
    10    8    9 2    
    11    9   10 1    
    12   10   11 1    
    13   11   12 1    
    14   11   21 1    
    15   12   13 1    
    16   12   14 1    
    17   14   15 1    
    18   14   20 1    
    19   15   16 1    
    20   16   17 ar   
    21   16   18 ar   
    22   16   19 ar   
    23   20   21 1    
    24   20   22 1    
    25   22   23 1    
    26   23   24 1    
    27   24   25 ar   
    28   24   26 ar   
    29   24   27 1    
    30   27   28 1    
    31   28   29 ar   
    32   28   30 ar   
    33   28   31 1    
    34   31   33 1    
    35   32   33 1    
    36   32   34 1    
    37   32   35 1    
    38   32   36 1    
    39   36   37 1    
    40   36   38 1    
    41   38   39 2    
    42   38   40 am   
    43   40   41 1    
    44   41   42 1    
    45   42   43 1    
    46   43   44 2    
    47   43   45 am   
    48   45   46 1    
    49   46   47 1    
    50   47   48 1    
@<TRIPOS>SUBSTRUCTURE
     1 COA301      1 GROUP   
@<TRIPOS>SET
ATOM$ORANGE STATIC     ATOMS   COLORGROUP SYSTEM 
42 2 2 4 4 5 5 6 6 9 9 11 11 12 12 14 14 20 \
20 22 22 32 32 33 33 34 34 35 35 36 36 38 38 41 41 42 \
42 43 43 46 46 47 47 

