#    Name: 5zai_4_COA
#    Modification time : Fri May 22 19:33:54 2020

@<TRIPOS>MOLECULE
5zai_4_COA
   48    50     1     0     1
SMALL
NO_CHARGES


@<TRIPOS>ATOM
      1 N1A        28.0040   25.0830  -23.4750 N.ar      1 COA301      0.0000 
      2 C2A        28.6340   24.8390  -24.6370 C.ar      1 COA301      0.0000 
      3 N3A        28.5500   25.6640  -25.6810 N.ar      1 COA301      0.0000 
      4 C4A        27.8130   26.7980  -25.6100 C.ar      1 COA301      0.0000 
      5 C5A        27.0940   27.1290  -24.3690 C.ar      1 COA301      0.0000 
      6 C6A        27.2310   26.1740  -23.2530 C.ar      1 COA301      0.0000 
      7 N6A        26.6000   26.4050  -22.0660 N.pl3     1 COA301      0.0000 
      8 N7A        26.4500   28.2960  -24.5720 N.2       1 COA301      0.0000 
      9 C8A        26.7230   28.6840  -25.8420 C.2       1 COA301      0.0000 
     10 N9A        27.5360   27.7910  -26.4560 N.pl3     1 COA301      0.0000 
     11 C1B        28.0540   27.8590  -27.8550 C.3       1 COA301      0.0000 
     12 C2B        26.9230   27.7800  -28.8850 C.3       1 COA301      0.0000 
     13 O2B        26.3690   26.4720  -29.1120 O.3       1 COA301      0.0000 
     14 C3B        27.6380   28.3460  -30.0900 C.3       1 COA301      0.0000 
     15 O3B        28.5190   27.3590  -30.6160 O.3       1 COA301      0.0000 
     16 P3B        28.6490   26.9770  -32.1750 P.3       1 COA301      0.0000 
     17 O7A        27.8170   25.7150  -32.3270 O.co2     1 COA301      0.0000 
     18 O8A        30.1430   26.7990  -32.3030 O.co2     1 COA301      0.0000 
     19 O9A        28.1290   28.1900  -32.9110 O.co2     1 COA301      0.0000 
     20 C4B        28.4680   29.4890  -29.5030 C.3       1 COA301      0.0000 
     21 O4B        28.7460   29.0870  -28.1500 O.3       1 COA301      0.0000 
     22 C5B        27.7910   30.8580  -29.4990 C.3       1 COA301      0.0000 
     23 O5B        26.5490   30.8030  -30.2010 O.3       1 COA301      0.0000 
     24 P1A        25.0990   30.9300  -29.5000 P.3       1 COA301      0.0000 
     25 O1A        25.3360   31.1390  -28.0220 O.co2     1 COA301      0.0000 
     26 O2A        24.2130   29.7950  -29.9860 O.co2     1 COA301      0.0000 
     27 O3A        24.5310   32.3220  -30.0950 O.3       1 COA301      0.0000 
     28 P2A        23.1230   32.9790  -29.6500 P.3       1 COA301      0.0000 
     29 O4A        23.0890   34.3760  -30.2230 O.co2     1 COA301      0.0000 
     30 O5A        22.0310   31.9760  -29.9950 O.co2     1 COA301      0.0000 
     31 O6A        23.2900   33.1350  -28.0410 O.3       1 COA301      0.0000 
     32 CBP        21.9370   32.8260  -26.0720 C.3       1 COA301      0.0000 
     33 CCP        22.3450   33.7850  -27.1850 C.3       1 COA301      0.0000 
     34 CDP        22.9720   32.9160  -24.9540 C.3       1 COA301      0.0000 
     35 CEP        20.5620   33.2010  -25.5590 C.3       1 COA301      0.0000 
     36 CAP        21.9140   31.4220  -26.6720 C.3       1 COA301      0.0000 
     37 OAP        23.2600   30.9290  -26.6220 O.3       1 COA301      0.0000 
     38 C9P        21.1220   30.3440  -26.0080 C.2       1 COA301      0.0000 
     39 O9P        20.1570   29.8170  -26.5500 O.2       1 COA301      0.0000 
     40 N8P        21.7460   29.8200  -24.9920 N.am      1 COA301      0.0000 
     41 C7P        21.8220   28.3850  -24.9750 C.3       1 COA301      0.0000 
     42 C6P        23.2180   28.0390  -24.4610 C.3       1 COA301      0.0000 
     43 C5P        23.1590   27.1960  -23.2220 C.2       1 COA301      0.0000 
     44 O5P        24.0730   26.4180  -23.0100 O.2       1 COA301      0.0000 
     45 N4P        22.1040   27.3200  -22.4150 N.am      1 COA301      0.0000 
     46 C3P        21.9840   26.4680  -21.2740 C.3       1 COA301      0.0000 
     47 C2P        22.9380   26.9700  -20.2110 C.3       1 COA301      0.0000 
     48 S1P        22.8030   25.7090  -18.9600 S.3       1 COA301      0.0000 
@<TRIPOS>BOND
     1    1    2 ar   
     2    1    6 ar   
     3    2    3 ar   
     4    3    4 ar   
     5    4    5 ar   
     6    4   10 1    
     7    5    6 ar   
     8    5    8 1    
     9    6    7 1    
    10    8    9 2    
    11    9   10 1    
    12   10   11 1    
    13   11   12 1    
    14   11   21 1    
    15   12   13 1    
    16   12   14 1    
    17   14   15 1    
    18   14   20 1    
    19   15   16 1    
    20   16   17 ar   
    21   16   18 ar   
    22   16   19 ar   
    23   20   21 1    
    24   20   22 1    
    25   22   23 1    
    26   23   24 1    
    27   24   25 ar   
    28   24   26 ar   
    29   24   27 1    
    30   27   28 1    
    31   28   29 ar   
    32   28   30 ar   
    33   28   31 1    
    34   31   33 1    
    35   32   33 1    
    36   32   34 1    
    37   32   35 1    
    38   32   36 1    
    39   36   37 1    
    40   36   38 1    
    41   38   39 2    
    42   38   40 am   
    43   40   41 1    
    44   41   42 1    
    45   42   43 1    
    46   43   44 2    
    47   43   45 am   
    48   45   46 1    
    49   46   47 1    
    50   47   48 1    
@<TRIPOS>SUBSTRUCTURE
     1 COA301      1 GROUP   
@<TRIPOS>SET
ATOM$ORANGE STATIC     ATOMS   COLORGROUP SYSTEM 
42 2 2 4 4 5 5 6 6 9 9 11 11 12 12 14 14 20 \
20 22 22 32 32 33 33 34 34 35 35 36 36 38 38 41 41 42 \
42 43 43 46 46 47 47 

