#    Name: 5zai_2_COA
#    Modification time : Fri May 22 19:33:49 2020

@<TRIPOS>MOLECULE
5zai_2_COA
   48    50     1     0     1
SMALL
NO_CHARGES


@<TRIPOS>ATOM
      1 N1A         6.2170   20.5470   45.1430 N.ar      1 COA301      0.0000 
      2 C2A         5.7530   20.8430   46.3830 C.ar      1 COA301      0.0000 
      3 N3A         6.0400   20.0870   47.4660 N.ar      1 COA301      0.0000 
      4 C4A         6.8100   18.9670   47.3660 C.ar      1 COA301      0.0000 
      5 C5A         7.3500   18.5790   46.0510 C.ar      1 COA301      0.0000 
      6 C6A         7.0070   19.4600   44.9080 C.ar      1 COA301      0.0000 
      7 N6A         7.4700   19.1640   43.6760 N.pl3     1 COA301      0.0000 
      8 N7A         8.0710   17.4550   46.2340 N.2       1 COA301      0.0000 
      9 C8A         8.0080   17.1420   47.5490 C.2       1 COA301      0.0000 
     10 N9A         7.2520   18.0400   48.2160 N.pl3     1 COA301      0.0000 
     11 C1B         6.9570   18.0190   49.6710 C.3       1 COA301      0.0000 
     12 C2B         5.9000   16.9760   50.0440 C.3       1 COA301      0.0000 
     13 O2B         4.5550   17.3580   49.7060 O.3       1 COA301      0.0000 
     14 C3B         6.1720   16.8230   51.5380 C.3       1 COA301      0.0000 
     15 O3B         5.5670   17.8840   52.2820 O.3       1 COA301      0.0000 
     16 P3B         4.6690   17.7150   53.6200 P.3       1 COA301      0.0000 
     17 O7A         5.5110   16.8630   54.5530 O.co2     1 COA301      0.0000 
     18 O8A         4.5030   19.1430   54.0830 O.co2     1 COA301      0.0000 
     19 O9A         3.3960   17.0690   53.1080 O.co2     1 COA301      0.0000 
     20 C4B         7.6880   16.9870   51.6440 C.3       1 COA301      0.0000 
     21 O4B         8.1140   17.6690   50.4490 O.3       1 COA301      0.0000 
     22 C5B         8.3930   15.6470   51.7590 C.3       1 COA301      0.0000 
     23 O5B         7.9100   14.8120   50.7040 O.3       1 COA301      0.0000 
     24 P1A         7.1940   13.3880   50.9530 P.3       1 COA301      0.0000 
     25 O1A         6.5600   13.3440   52.3200 O.co2     1 COA301      0.0000 
     26 O2A         6.2940   13.0670   49.7820 O.co2     1 COA301      0.0000 
     27 O3A         8.5190   12.4550   50.9960 O.3       1 COA301      0.0000 
     28 P2A         8.5400   10.9540   50.3830 P.3       1 COA301      0.0000 
     29 O4A         9.8500   10.3070   50.7840 O.co2     1 COA301      0.0000 
     30 O5A         7.1930   10.3330   50.7250 O.co2     1 COA301      0.0000 
     31 O6A         8.5880   11.1620   48.7670 O.3       1 COA301      0.0000 
     32 CBP         9.5610   11.9300   46.5830 C.3       1 COA301      0.0000 
     33 CCP         9.7560   11.6110   48.0720 C.3       1 COA301      0.0000 
     34 CDP         8.9760   10.8250   45.7010 C.3       1 COA301      0.0000 
     35 CEP        10.0910   13.2870   46.0670 C.3       1 COA301      0.0000 
     36 CAP         8.1360   12.6060   46.7720 C.3       1 COA301      0.0000 
     37 OAP         8.2100   13.7390   47.6650 O.3       1 COA301      0.0000 
     38 C9P         7.3680   13.0840   45.5320 C.2       1 COA301      0.0000 
     39 O9P         6.6650   12.2650   44.9460 O.2       1 COA301      0.0000 
     40 N8P         7.4770   14.3880   45.1490 N.am      1 COA301      0.0000 
     41 C7P         6.8710   14.9920   43.9480 C.3       1 COA301      0.0000 
     42 C6P         7.9030   15.2270   42.8170 C.3       1 COA301      0.0000 
     43 C5P         7.3100   15.8490   41.5460 C.2       1 COA301      0.0000 
     44 O5P         6.1410   15.6030   41.2360 O.2       1 COA301      0.0000 
     45 N4P         8.1120   16.6690   40.8160 N.am      1 COA301      0.0000 
     46 C3P         7.6610   17.3910   39.6250 C.3       1 COA301      0.0000 
     47 C2P         7.8160   18.9220   39.7190 C.3       1 COA301      0.0000 
     48 S1P         6.4850   19.8260   38.8340 S.3       1 COA301      0.0000 
@<TRIPOS>BOND
     1    1    2 ar   
     2    1    6 ar   
     3    2    3 ar   
     4    3    4 ar   
     5    4    5 ar   
     6    4   10 1    
     7    5    6 ar   
     8    5    8 1    
     9    6    7 1    
    10    8    9 2    
    11    9   10 1    
    12   10   11 1    
    13   11   12 1    
    14   11   21 1    
    15   12   13 1    
    16   12   14 1    
    17   14   15 1    
    18   14   20 1    
    19   15   16 1    
    20   16   17 ar   
    21   16   18 ar   
    22   16   19 ar   
    23   20   21 1    
    24   20   22 1    
    25   22   23 1    
    26   23   24 1    
    27   24   25 ar   
    28   24   26 ar   
    29   24   27 1    
    30   27   28 1    
    31   28   29 ar   
    32   28   30 ar   
    33   28   31 1    
    34   31   33 1    
    35   32   33 1    
    36   32   34 1    
    37   32   35 1    
    38   32   36 1    
    39   36   37 1    
    40   36   38 1    
    41   38   39 2    
    42   38   40 am   
    43   40   41 1    
    44   41   42 1    
    45   42   43 1    
    46   43   44 2    
    47   43   45 am   
    48   45   46 1    
    49   46   47 1    
    50   47   48 1    
@<TRIPOS>SUBSTRUCTURE
     1 COA301      1 GROUP   
@<TRIPOS>SET
ATOM$ORANGE STATIC     ATOMS   COLORGROUP SYSTEM 
42 2 2 4 4 5 5 6 6 9 9 11 11 12 12 14 14 20 \
20 22 22 32 32 33 33 34 34 35 35 36 36 38 38 41 41 42 \
42 43 43 46 46 47 47 

