#    Name: 6gnh_1_MYA
#    Modification time : Fri May 22 19:28:40 2020

@<TRIPOS>MOLECULE
6gnh_1_MYA
   63    65     1     0     0
SMALL
NO_CHARGES


@<TRIPOS>ATOM
      1 S1         26.3460   -4.6500    7.1670 S.3       1 MYA1001     0.0000 
      2 C2         26.8580   -4.8520    8.8700 C.3       1 MYA1001     0.0000 
      3 C3         27.9470   -5.9500    8.8910 C.3       1 MYA1001     0.0000 
      4 N4         28.1810   -6.2850   10.3210 N.am      1 MYA1001     0.0000 
      5 C5         29.1450   -5.7550   11.0890 C.2       1 MYA1001     0.0000 
      6 O5         29.9510   -4.9550   10.6380 O.2       1 MYA1001     0.0000 
      7 C6         29.2610   -6.2230   12.5390 C.3       1 MYA1001     0.0000 
      8 C7         30.7400   -6.3210   12.9540 C.3       1 MYA1001     0.0000 
      9 N8         31.5210   -7.1400   12.0160 N.am      1 MYA1001     0.0000 
     10 C9         31.4320   -8.4630   11.8220 C.2       1 MYA1001     0.0000 
     11 O9         30.6460   -9.1220   12.5020 O.2       1 MYA1001     0.0000 
     12 C10        32.3510   -9.1490   10.8110 C.3       1 MYA1001     0.0000 
     13 O10        33.5790   -8.3900   10.6310 O.3       1 MYA1001     0.0000 
     14 C11        31.6820   -9.3690    9.4340 C.3       1 MYA1001     0.0000 
     15 C12        32.7010   -9.9600    8.4580 C.3       1 MYA1001     0.0000 
     16 C13        31.1180   -8.0970    8.7760 C.3       1 MYA1001     0.0000 
     17 C14        30.5350  -10.3660    9.5610 C.3       1 MYA1001     0.0000 
     18 N1A        29.0820   -7.3140    4.0760 N.ar      1 MYA1001     0.0000 
     19 O1A        34.1990  -14.0600    7.8890 O.co2     1 MYA1001     0.0000 
     20 P1A        35.2680  -13.2840    7.2190 P.3       1 MYA1001     0.0000 
     21 C1X        33.5130   -9.7110    3.3990 C.3       1 MYA1001     0.0000 
     22 C2A        29.4190   -8.2550    3.1640 C.ar      1 MYA1001     0.0000 
     23 O2A        36.6890  -13.7970    7.1810 O.co2     1 MYA1001     0.0000 
     24 P2A        34.7940  -11.3190    9.2890 P.3       1 MYA1001     0.0000 
     25 C2M        25.1700   -5.8680    6.8470 C.2       1 MYA1001     0.0000 
     26 O2M        24.5780   -6.5000    7.7660 O.2       1 MYA1001     0.0000 
     27 C2X        34.9720   -9.3540    3.1150 C.3       1 MYA1001     0.0000 
     28 O2X        35.0310   -8.3730    2.0640 O.3       1 MYA1001     0.0000 
     29 N3A        30.6600   -8.7260    3.1020 N.ar      1 MYA1001     0.0000 
     30 O3A        35.3730  -11.8170    7.8680 O.3       1 MYA1001     0.0000 
     31 C3M        24.7790   -6.2760    5.4190 C.3       1 MYA1001     0.0000 
     32 C3X        35.5350  -10.7430    2.8290 C.3       1 MYA1001     0.0000 
     33 O3X        35.2760  -11.2330    1.5160 O.3       1 MYA1001     0.0000 
     34 P3X        36.4180  -11.0730    0.3650 P.3       1 MYA1001     0.0000 
     35 C4A        31.5980   -8.3190    4.0380 C.ar      1 MYA1001     0.0000 
     36 O4A        35.3790   -9.9740    9.4850 O.co2     1 MYA1001     0.0000 
     37 C4M        25.5030   -7.5830    5.0550 C.3       1 MYA1001     0.0000 
     38 C4X        34.7880  -11.6920    3.7370 C.3       1 MYA1001     0.0000 
     39 O4X        33.6010  -10.9570    4.1510 O.3       1 MYA1001     0.0000 
     40 C5A        31.2660   -7.4010    5.0290 C.ar      1 MYA1001     0.0000 
     41 O5A        34.9790  -12.3930   10.3070 O.co2     1 MYA1001     0.0000 
     42 C5M        25.3310   -7.9370    3.5810 C.3       1 MYA1001     0.0000 
     43 C5X        35.6470  -12.1150    4.8990 C.3       1 MYA1001     0.0000 
     44 O5X        34.8190  -12.8670    5.7610 O.3       1 MYA1001     0.0000 
     45 C6A        29.9680   -6.8640    4.9980 C.ar      1 MYA1001     0.0000 
     46 N6A        29.5200   -5.9540    5.9020 N.pl3     1 MYA1001     0.0000 
     47 O6A        33.2030  -11.1810    9.0080 O.3       1 MYA1001     0.0000 
     48 C6M        25.9610   -9.3010    3.3170 C.3       1 MYA1001     0.0000 
     49 N7A        32.3780   -7.2060    5.7960 N.2       1 MYA1001     0.0000 
     50 O7A        36.7390   -9.5690    0.2540 O.co2     1 MYA1001     0.0000 
     51 C7M        25.8730   -9.6360    1.8300 C.3       1 MYA1001     0.0000 
     52 C8A        33.3770   -7.9760    5.2940 C.2       1 MYA1001     0.0000 
     53 O8A        37.5680  -12.0600    0.7950 O.co2     1 MYA1001     0.0000 
     54 C8M        24.4480  -10.0970    1.4220 C.3       1 MYA1001     0.0000 
     55 N9A        32.8560   -8.6920    4.2430 N.pl3     1 MYA1001     0.0000 
     56 O9A        35.6940  -11.3110   -1.0200 O.co2     1 MYA1001     0.0000 
     57 C9M        24.3060  -10.6320   -0.0310 C.3       1 MYA1001     0.0000 
     58 CAM        22.8400  -10.9090   -0.4050 C.3       1 MYA1001     0.0000 
     59 CBM        22.3830  -12.2190    0.1900 C.3       1 MYA1001     0.0000 
     60 CCM        21.0440  -12.7630   -0.2990 C.3       1 MYA1001     0.0000 
     61 CDM        20.9210  -12.9020   -1.8310 C.3       1 MYA1001     0.0000 
     62 CEM        19.4720  -13.3290   -2.0650 C.3       1 MYA1001     0.0000 
     63 CFM        19.1150  -13.5000   -3.5300 C.3       1 MYA1001     0.0000 
@<TRIPOS>BOND
     1    1    2 1    
     2    1   25 1    
     3    2    3 1    
     4    3    4 1    
     5    4    5 am   
     6    5    6 2    
     7    5    7 1    
     8    7    8 1    
     9    8    9 1    
    10    9   10 am   
    11   10   11 2    
    12   10   12 1    
    13   12   13 1    
    14   12   14 1    
    15   14   15 1    
    16   14   16 1    
    17   14   17 1    
    18   15   47 1    
    19   18   22 ar   
    20   18   45 ar   
    21   19   20 ar   
    22   20   23 ar   
    23   20   30 1    
    24   20   44 1    
    25   21   27 1    
    26   21   39 1    
    27   21   55 1    
    28   22   29 ar   
    29   24   30 1    
    30   24   36 ar   
    31   24   41 ar   
    32   24   47 1    
    33   25   26 2    
    34   25   31 1    
    35   27   28 1    
    36   27   32 1    
    37   29   35 ar   
    38   31   37 1    
    39   32   33 1    
    40   32   38 1    
    41   33   34 1    
    42   34   50 ar   
    43   34   53 ar   
    44   34   56 ar   
    45   35   40 ar   
    46   35   55 1    
    47   37   42 1    
    48   38   39 1    
    49   38   43 1    
    50   40   45 ar   
    51   40   49 1    
    52   42   48 1    
    53   43   44 1    
    54   45   46 1    
    55   48   51 1    
    56   49   52 2    
    57   51   54 1    
    58   52   55 1    
    59   54   57 1    
    60   57   58 1    
    61   58   59 1    
    62   59   60 1    
    63   60   61 1    
    64   61   62 1    
    65   62   63 1    
@<TRIPOS>SUBSTRUCTURE
     1 MYA1001     1 GROUP   
@<TRIPOS>SET

