#    Name: 6era_2_FAD
#    Modification time : Fri May 22 19:34:46 2020

@<TRIPOS>MOLECULE
6era_2_FAD
   53    58     1     0     1
SMALL
NO_CHARGES


@<TRIPOS>ATOM
      1 PA         40.0400  -21.0230   20.5300 P.3       1 FAD601      0.0000 
      2 O1A        41.2570  -20.7330   21.3130 O.co2     1 FAD601      0.0000 
      3 O2A        39.6770  -19.9660   19.4920 O.co2     1 FAD601      0.0000 
      4 O5B        40.2180  -22.4760   19.8220 O.3       1 FAD601      0.0000 
      5 C5B        39.4240  -22.8130   18.6630 C.3       1 FAD601      0.0000 
      6 C4B        40.2410  -23.7200   17.7750 C.3       1 FAD601      0.0000 
      7 O4B        39.3680  -24.4840   16.9150 O.3       1 FAD601      0.0000 
      8 C3B        41.2550  -23.0160   16.8620 C.3       1 FAD601      0.0000 
      9 O3B        42.5550  -23.5700   17.0300 O.3       1 FAD601      0.0000 
     10 C2B        40.6960  -23.2500   15.4510 C.3       1 FAD601      0.0000 
     11 O2B        41.7200  -23.3890   14.4710 O.3       1 FAD601      0.0000 
     12 C1B        39.9620  -24.5710   15.6390 C.3       1 FAD601      0.0000 
     13 N9A        38.9140  -24.8320   14.6580 N.pl3     1 FAD601      0.0000 
     14 C8A        37.8380  -24.0380   14.3620 C.2       1 FAD601      0.0000 
     15 N7A        37.0300  -24.5460   13.4610 N.2       1 FAD601      0.0000 
     16 C5A        37.6210  -25.7580   13.1370 C.ar      1 FAD601      0.0000 
     17 C6A        37.2590  -26.7810   12.2380 C.ar      1 FAD601      0.0000 
     18 N6A        36.1660  -26.7450   11.4710 N.pl3     1 FAD601      0.0000 
     19 N1A        38.0690  -27.8600   12.1550 N.ar      1 FAD601      0.0000 
     20 C2A        39.1630  -27.9030   12.9200 C.ar      1 FAD601      0.0000 
     21 N3A        39.6050  -27.0020   13.8010 N.ar      1 FAD601      0.0000 
     22 C4A        38.7840  -25.9470   13.8640 C.ar      1 FAD601      0.0000 
     23 N1         39.7190  -14.0940   27.3700 N.2       1 FAD601      0.0000 
     24 C2         39.7170  -13.9210   28.7220 C.2       1 FAD601      0.0000 
     25 O2         38.7770  -14.3200   29.4260 O.2       1 FAD601      0.0000 
     26 N3         40.7870  -13.2930   29.3350 N.am      1 FAD601      0.0000 
     27 C4         41.9080  -12.7940   28.6990 C.2       1 FAD601      0.0000 
     28 O4         42.8200  -12.3020   29.3580 O.2       1 FAD601      0.0000 
     29 C4X        41.8950  -12.9630   27.2580 C.2       1 FAD601      0.0000 
     30 N5         42.8850  -12.4690   26.5700 N.2       1 FAD601      0.0000 
     31 C5X        42.8460  -12.5940   25.1850 C.ar      1 FAD601      0.0000 
     32 C6         43.8660  -12.0160   24.4270 C.ar      1 FAD601      0.0000 
     33 C7         43.8590  -12.0940   23.0380 C.ar      1 FAD601      0.0000 
     34 C7M        44.9780  -11.4580   22.2530 C.3       1 FAD601      0.0000 
     35 C8         42.8080  -12.7630   22.3860 C.ar      1 FAD601      0.0000 
     36 C8M        42.7610  -12.8480   20.8820 C.3       1 FAD601      0.0000 
     37 C9         41.7910  -13.3430   23.1390 C.ar      1 FAD601      0.0000 
     38 C9A        41.8020  -13.2600   24.5280 C.ar      1 FAD601      0.0000 
     39 N10        40.7650  -13.8040   25.3130 N.pl3     1 FAD601      0.0000 
     40 C10        40.7570  -13.6460   26.6820 C.2       1 FAD601      0.0000 
     41 C1'        39.7470  -14.6280   24.6460 C.3       1 FAD601      0.0000 
     42 C2'        39.4990  -16.0350   25.1820 C.3       1 FAD601      0.0000 
     43 O2'        40.6580  -16.5290   25.8550 O.3       1 FAD601      0.0000 
     44 C3'        39.1070  -17.0080   24.0730 C.3       1 FAD601      0.0000 
     45 O3'        37.7570  -16.7670   23.6920 O.3       1 FAD601      0.0000 
     46 C4'        39.2520  -18.4590   24.5280 C.3       1 FAD601      0.0000 
     47 O4'        40.6380  -18.7900   24.6220 O.3       1 FAD601      0.0000 
     48 C5'        38.5580  -19.4250   23.5990 C.3       1 FAD601      0.0000 
     49 O5'        39.1440  -20.7170   23.8310 O.3       1 FAD601      0.0000 
     50 P          38.5540  -21.8670   22.8930 P.3       1 FAD601      0.0000 
     51 O1P        39.2820  -23.1380   23.1000 O.co2     1 FAD601      0.0000 
     52 O2P        37.0450  -21.9460   23.1430 O.co2     1 FAD601      0.0000 
     53 O3P        38.7530  -21.2380   21.4430 O.3       1 FAD601      0.0000 
@<TRIPOS>BOND
     1    1    2 ar   
     2    1    3 ar   
     3    1    4 1    
     4    1   53 1    
     5    4    5 1    
     6    5    6 1    
     7    6    7 1    
     8    6    8 1    
     9    7   12 1    
    10    8    9 1    
    11    8   10 1    
    12   10   11 1    
    13   10   12 1    
    14   12   13 1    
    15   13   14 1    
    16   13   22 1    
    17   14   15 2    
    18   15   16 1    
    19   16   17 ar   
    20   16   22 ar   
    21   17   18 1    
    22   17   19 ar   
    23   19   20 ar   
    24   20   21 ar   
    25   21   22 ar   
    26   23   24 1    
    27   23   40 2    
    28   24   25 2    
    29   24   26 am   
    30   26   27 am   
    31   27   28 2    
    32   27   29 1    
    33   29   30 2    
    34   29   40 1    
    35   30   31 1    
    36   31   32 ar   
    37   31   38 ar   
    38   32   33 ar   
    39   33   34 1    
    40   33   35 ar   
    41   35   36 1    
    42   35   37 ar   
    43   37   38 ar   
    44   38   39 1    
    45   39   40 1    
    46   39   41 1    
    47   41   42 1    
    48   42   43 1    
    49   42   44 1    
    50   44   45 1    
    51   44   46 1    
    52   46   47 1    
    53   46   48 1    
    54   48   49 1    
    55   49   50 1    
    56   50   51 ar   
    57   50   52 ar   
    58   50   53 1    
@<TRIPOS>SUBSTRUCTURE
     1 FAD601      1 GROUP   
@<TRIPOS>SET
ATOM$ORANGE STATIC     ATOMS   COLORGROUP SYSTEM 
54 5 5 6 6 8 8 10 10 12 12 14 14 16 16 17 17 20 \
20 22 22 24 24 27 27 29 29 31 31 32 32 33 33 34 34 35 \
35 36 36 37 37 38 38 40 40 41 41 42 42 44 44 46 46 48 \
48 

