#    Name: 6era_1_NAP
#    Modification time : Fri May 22 19:34:40 2020

@<TRIPOS>MOLECULE
6era_1_NAP
   48    52     1     0     1
SMALL
NO_CHARGES


@<TRIPOS>ATOM
      1 PA         67.6960   17.7390   67.1350 P.3       1 NAP602      0.0000 
      2 O1A        67.2180   16.3990   66.7200 O.co2     1 NAP602      0.0000 
      3 O2A        68.6200   17.6240   68.3420 O.co2     1 NAP602      0.0000 
      4 O5B        68.5360   18.4990   65.9690 O.3       1 NAP602      0.0000 
      5 C5B        69.4660   19.5700   66.2300 C.3       1 NAP602      0.0000 
      6 C4B        70.2130   19.8390   64.9490 C.3       1 NAP602      0.0000 
      7 O4B        71.1030   20.9660   65.1260 O.3       1 NAP602      0.0000 
      8 C3B        71.0880   18.6830   64.4690 C.3       1 NAP602      0.0000 
      9 O3B        71.1530   18.6570   63.0480 O.3       1 NAP602      0.0000 
     10 C2B        72.4370   19.0440   65.0790 C.3       1 NAP602      0.0000 
     11 O2B        73.5320   18.3600   64.4350 O.3       1 NAP602      0.0000 
     12 C1B        72.4380   20.5590   64.9010 C.3       1 NAP602      0.0000 
     13 N9A        73.3070   21.2560   65.8450 N.pl3     1 NAP602      0.0000 
     14 C8A        73.1900   21.2960   67.2100 C.2       1 NAP602      0.0000 
     15 N7A        74.1380   21.9750   67.8090 N.2       1 NAP602      0.0000 
     16 C5A        74.9370   22.4160   66.7640 C.ar      1 NAP602      0.0000 
     17 C6A        76.1180   23.1830   66.7280 C.ar      1 NAP602      0.0000 
     18 N6A        76.7050   23.6970   67.8130 N.pl3     1 NAP602      0.0000 
     19 N1A        76.6760   23.4200   65.5200 N.ar      1 NAP602      0.0000 
     20 C2A        76.0810   22.9300   64.4290 C.ar      1 NAP602      0.0000 
     21 N3A        74.9640   22.2050   64.3380 N.ar      1 NAP602      0.0000 
     22 C4A        74.4360   21.9790   65.5480 C.ar      1 NAP602      0.0000 
     23 O3         66.4440   18.6580   67.4940 O.3       1 NAP602      0.0000 
     24 PN         65.4020   19.5160   66.6320 P.3       1 NAP602      0.0000 
     25 O1N        65.8090   19.4860   65.2090 O.co2     1 NAP602      0.0000 
     26 O2N        65.1950   20.8220   67.2990 O.co2     1 NAP602      0.0000 
     27 O5D        64.0640   18.6540   66.7490 O.3       1 NAP602      0.0000 
     28 C5D        64.1160   17.3170   67.2850 C.3       1 NAP602      0.0000 
     29 C4D        63.4190   17.2990   68.6220 C.3       1 NAP602      0.0000 
     30 O4D        61.9920   17.1500   68.4280 O.3       1 NAP602      0.0000 
     31 C3D        63.8410   16.1660   69.5550 C.3       1 NAP602      0.0000 
     32 O3D        63.8440   16.6070   70.9080 O.3       1 NAP602      0.0000 
     33 C2D        62.7670   15.1100   69.2990 C.3       1 NAP602      0.0000 
     34 O2D        62.6050   14.2410   70.4150 O.3       1 NAP602      0.0000 
     35 C1D        61.5420   16.0000   69.0960 C.3       1 NAP602      0.0000 
     36 N1N        60.4090   15.3460   68.2500 N.pl3     1 NAP602      0.0000 
     37 C2N        59.9540   14.1840   68.7490 C.ar      1 NAP602      0.0000 
     38 C3N        58.9620   13.4840   68.0880 C.ar      1 NAP602      0.0000 
     39 C7N        58.4860   12.1760   68.6570 C.2       1 NAP602      0.0000 
     40 O7N        57.6110   11.5300   68.0570 O.2       1 NAP602      0.0000 
     41 N7N        59.0390   11.7530   69.7900 N.am      1 NAP602      0.0000 
     42 C4N        58.4460   14.0140   66.9110 C.ar      1 NAP602      0.0000 
     43 C5N        58.9280   15.2150   66.4240 C.ar      1 NAP602      0.0000 
     44 C6N        59.9180   15.8720   67.1110 C.ar      1 NAP602      0.0000 
     45 P2B        74.2320   17.0360   65.0720 P.3       1 NAP602      0.0000 
     46 O1X        73.2570   15.9090   65.1260 O.co2     1 NAP602      0.0000 
     47 O2X        75.4380   16.7260   64.1920 O.co2     1 NAP602      0.0000 
     48 O3X        74.7620   17.4350   66.4570 O.co2     1 NAP602      0.0000 
@<TRIPOS>BOND
     1    1    2 ar   
     2    1    3 ar   
     3    1    4 1    
     4    1   23 1    
     5    4    5 1    
     6    5    6 1    
     7    6    7 1    
     8    6    8 1    
     9    7   12 1    
    10    8    9 1    
    11    8   10 1    
    12   10   11 1    
    13   10   12 1    
    14   11   45 1    
    15   12   13 1    
    16   13   14 1    
    17   13   22 1    
    18   14   15 2    
    19   15   16 1    
    20   16   17 ar   
    21   16   22 ar   
    22   17   18 1    
    23   17   19 ar   
    24   19   20 ar   
    25   20   21 ar   
    26   21   22 ar   
    27   23   24 1    
    28   24   25 ar   
    29   24   26 ar   
    30   24   27 1    
    31   27   28 1    
    32   28   29 1    
    33   29   30 1    
    34   29   31 1    
    35   30   35 1    
    36   31   32 1    
    37   31   33 1    
    38   33   34 1    
    39   33   35 1    
    40   35   36 1    
    41   36   37 ar   
    42   36   44 ar   
    43   37   38 ar   
    44   38   39 1    
    45   38   42 ar   
    46   39   40 2    
    47   39   41 am   
    48   42   43 ar   
    49   43   44 ar   
    50   45   46 ar   
    51   45   47 ar   
    52   45   48 ar   
@<TRIPOS>SUBSTRUCTURE
     1 NAP602      1 GROUP   
@<TRIPOS>SET
ATOM$ORANGE STATIC     ATOMS   COLORGROUP SYSTEM 
42 5 5 6 6 8 8 10 10 12 12 14 14 16 16 17 17 20 \
20 22 22 28 28 29 29 31 31 33 33 35 35 37 37 38 38 39 \
39 42 42 43 43 44 44 

