#    Name: 6era_1_NAP_CAVITY_N1_6
#    Modification time : Fri May 22 19:34:42 2020

@<TRIPOS>MOLECULE
6era_1_NAP_CAVITY_N1_6
   76     0     5     0     0
SMALL
NO_CHARGES


@<TRIPOS>ATOM
      1 OG         74.4400   16.7500   64.6000 O.3       1 SER1        0.0000 
      2 O          70.1200   18.3000   63.4100 O.2       2 ALA2        0.0000 
      3 O          72.6600   19.8000   61.8200 O.2       2 ALA2        0.0000 
      4 O          72.0400   18.6800   62.6000 O.2       2 ALA2        0.0000 
      5 O          71.4300   17.5600   63.3800 O.2       2 ALA2        0.0000 
      6 O          70.8100   16.4400   64.1600 O.2       2 ALA2        0.0000 
      7 O          73.3500   17.9400   62.5700 O.2       2 ALA2        0.0000 
      8 N          72.7300   16.8200   63.3500 N.am      2 ALA2        0.0000 
      9 O          72.1200   15.7000   64.1300 O.2       2 ALA2        0.0000 
     10 N          67.3000   19.3100   65.5300 N.am      2 ALA2        0.0000 
     11 N          69.2200   19.7000   64.7200 N.am      2 ALA2        0.0000 
     12 O          70.5300   18.9600   64.6900 O.2       2 ALA2        0.0000 
     13 O          73.6800   21.6000   62.3200 O.2       2 ALA2        0.0000 
     14 O          71.2200   17.1000   65.4400 O.2       2 ALA2        0.0000 
     15 O          67.7000   19.9800   66.8100 O.2       2 ALA2        0.0000 
     16 N          69.6200   20.3700   66.0000 N.am      2 ALA2        0.0000 
     17 O          69.0100   19.2500   66.7800 O.2       2 ALA2        0.0000 
     18 O          71.3400   20.3000   67.2500 O.2       2 ALA2        0.0000 
     19 O          71.7400   20.9700   68.5300 O.2       2 ALA2        0.0000 
     20 N          74.6800   23.1500   68.2200 N.am      2 ALA2        0.0000 
     21 N          74.0700   22.0200   69.0000 N.am      2 ALA2        0.0000 
     22 OD1        73.7500   18.6100   63.8500 O.co2     3 ASP3        0.0000 
     23 OD1        75.0600   17.8800   63.8200 O.co2     3 ASP3        0.0000 
     24 OD1        75.3900   21.5300   63.5700 O.co2     3 ASP3        0.0000 
     25 OD1        74.7700   20.4000   64.3500 O.co2     3 ASP3        0.0000 
     26 OD1        74.1600   19.2800   65.1300 O.co2     3 ASP3        0.0000 
     27 OD1        73.5400   18.1600   65.9100 O.co2     3 ASP3        0.0000 
     28 OD1        73.2600   20.6900   66.4400 O.co2     3 ASP3        0.0000 
     29 OD1        72.6400   19.5600   67.2200 O.co2     3 ASP3        0.0000 
     30 OD1        75.8000   22.2000   64.8500 O.co2     3 ASP3        0.0000 
     31 OD1        73.6600   21.3600   67.7200 O.co2     3 ASP3        0.0000 
     32 OD1        73.0500   20.2300   68.5000 O.co2     3 ASP3        0.0000 
     33 OD1        76.8200   23.9900   65.3500 O.co2     3 ASP3        0.0000 
     34 OD1        76.2000   22.8600   66.1300 O.co2     3 ASP3        0.0000 
     35 OD1        75.5800   21.7400   66.9100 O.co2     3 ASP3        0.0000 
     36 OD1        78.1200   23.2500   65.3200 O.co2     3 ASP3        0.0000 
     37 OD1        80.0500   23.6400   64.5100 O.co2     3 ASP3        0.0000 
     38 OD1        76.6100   23.5300   67.4100 O.co2     3 ASP3        0.0000 
     39 OD1        78.5300   23.9200   66.6000 O.co2     3 ASP3        0.0000 
     40 CA         69.5000   17.1700   64.1900 C.3       4 GLY6        0.0000 
     41 CA         73.9600   19.0700   61.7900 C.3       4 GLY6        0.0000 
     42 CA         68.6000   18.5800   65.5000 C.3       4 GLY6        0.0000 
     43 CA         67.9900   17.4500   66.2800 C.3       4 GLY6        0.0000 
     44 CA         71.1400   20.0900   63.9100 C.3       4 GLY6        0.0000 
     45 CA         73.0600   20.4700   63.1000 C.3       4 GLY6        0.0000 
     46 CA         72.4500   19.3500   63.8800 C.3       4 GLY6        0.0000 
     47 CA         74.3700   19.7400   63.0700 C.3       4 GLY6        0.0000 
     48 CA         72.1600   21.8800   64.4100 C.3       4 GLY6        0.0000 
     49 CA         71.5500   20.7500   65.1900 C.3       4 GLY6        0.0000 
     50 CA         74.0800   22.2600   63.6000 C.3       4 GLY6        0.0000 
     51 CA         73.4700   21.1400   64.3800 C.3       4 GLY6        0.0000 
     52 CA         76.0100   22.6500   62.7900 C.3       4 GLY6        0.0000 
     53 CA         71.9500   21.4200   66.4700 C.3       4 GLY6        0.0000 
     54 CA         74.4900   22.9300   64.8800 C.3       4 GLY6        0.0000 
     55 CA         73.8700   21.8100   65.6600 C.3       4 GLY6        0.0000 
     56 CA         77.0300   24.4400   63.2900 C.3       4 GLY6        0.0000 
     57 CA         76.4100   23.3200   64.0700 C.3       4 GLY6        0.0000 
     58 CA         78.3300   23.7000   63.2600 C.3       4 GLY6        0.0000 
     59 CA         77.7200   22.5800   64.0400 C.3       4 GLY6        0.0000 
     60 CA         79.6400   22.9700   63.2300 C.3       4 GLY6        0.0000 
     61 CA         72.3600   22.0900   67.7500 C.3       4 GLY6        0.0000 
     62 CA         75.5100   24.7200   65.3800 C.3       4 GLY6        0.0000 
     63 CA         74.8900   23.6000   66.1600 C.3       4 GLY6        0.0000 
     64 CA         74.2800   22.4800   66.9400 C.3       4 GLY6        0.0000 
     65 CA         77.2200   24.6600   66.6300 C.3       4 GLY6        0.0000 
     66 DU         69.9100   17.8400   65.4700 H         5 CUB7        0.0000 
     67 DU         69.2900   16.7200   66.2500 H         5 CUB7        0.0000 
     68 DU         71.8300   18.2300   64.6600 H         5 CUB7        0.0000 
     69 DU         73.1400   17.4900   64.6300 H         5 CUB7        0.0000 
     70 DU         70.9300   19.6300   65.9700 H         5 CUB7        0.0000 
     71 DU         70.3100   18.5100   66.7500 H         5 CUB7        0.0000 
     72 DU         69.7000   17.3900   67.5300 H         5 CUB7        0.0000 
     73 DU         72.8500   20.0200   65.1600 H         5 CUB7        0.0000 
     74 DU         72.2400   18.9000   65.9400 H         5 CUB7        0.0000 
     75 DU         77.4300   25.1100   64.5700 H         5 CUB7        0.0000 
     76 DU         78.7400   24.3700   64.5400 H         5 CUB7        0.0000 
@<TRIPOS>BOND
@<TRIPOS>SUBSTRUCTURE
     1 SER1        1 GROUP   
     2 ALA2        2 GROUP   
     3 ASP3       22 GROUP   
     4 GLY6       40 GROUP   
     5 CUB7       66 GROUP   
@<TRIPOS>SET

