#    Name: 6era_3_NAP
#    Modification time : Fri May 22 19:34:53 2020

@<TRIPOS>MOLECULE
6era_3_NAP
   48    52     1     0     1
SMALL
NO_CHARGES


@<TRIPOS>ATOM
      1 PA         38.0920   -5.2320   16.6120 P.3       1 NAP602      0.0000 
      2 O1A        37.9670   -5.0450   18.0790 O.co2     1 NAP602      0.0000 
      3 O2A        36.8520   -5.9450   16.0750 O.co2     1 NAP602      0.0000 
      4 O5B        38.2660   -3.8420   15.7960 O.3       1 NAP602      0.0000 
      5 C5B        38.9640   -3.7640   14.5380 C.3       1 NAP602      0.0000 
      6 C4B        39.6030   -2.4030   14.4510 C.3       1 NAP602      0.0000 
      7 O4B        39.9050   -2.0960   13.0690 O.3       1 NAP602      0.0000 
      8 C3B        38.7340   -1.2510   14.9480 C.3       1 NAP602      0.0000 
      9 O3B        39.5500   -0.1570   15.3490 O.3       1 NAP602      0.0000 
     10 C2B        37.9820   -0.9190   13.6650 C.3       1 NAP602      0.0000 
     11 O2B        37.2920    0.3470   13.7110 O.3       1 NAP602      0.0000 
     12 C1B        39.1260   -0.9880   12.6610 C.3       1 NAP602      0.0000 
     13 N9A        38.6850   -1.2090   11.2900 N.pl3     1 NAP602      0.0000 
     14 C8A        38.0110   -2.2990   10.8040 C.2       1 NAP602      0.0000 
     15 N7A        37.7250   -2.2270    9.5280 N.2       1 NAP602      0.0000 
     16 C5A        38.2440   -0.9970    9.1420 C.ar      1 NAP602      0.0000 
     17 C6A        38.2460   -0.3140    7.9150 C.ar      1 NAP602      0.0000 
     18 N6A        37.6950   -0.7900    6.7970 N.pl3     1 NAP602      0.0000 
     19 N1A        38.8310    0.9050    7.8780 N.ar      1 NAP602      0.0000 
     20 C2A        39.3700    1.3940    8.9980 C.ar      1 NAP602      0.0000 
     21 N3A        39.4270    0.8410   10.2120 N.ar      1 NAP602      0.0000 
     22 C4A        38.8390   -0.3640   10.2200 C.ar      1 NAP602      0.0000 
     23 O3         39.3690   -6.1260   16.2820 O.3       1 NAP602      0.0000 
     24 PN         40.5180   -6.8150   17.1550 P.3       1 NAP602      0.0000 
     25 O1N        41.1260   -5.7940   18.0350 O.co2     1 NAP602      0.0000 
     26 O2N        41.3900   -7.5990   16.2510 O.co2     1 NAP602      0.0000 
     27 O5D        39.6680   -7.8130   18.0670 O.3       1 NAP602      0.0000 
     28 C5D        39.1640   -9.0390   17.4930 C.3       1 NAP602      0.0000 
     29 C4D        38.3090   -9.7740   18.4970 C.3       1 NAP602      0.0000 
     30 O4D        39.1380  -10.2940   19.5620 O.3       1 NAP602      0.0000 
     31 C3D        37.2070   -8.9370   19.1620 C.3       1 NAP602      0.0000 
     32 O3D        35.9560   -9.6110   19.1090 O.3       1 NAP602      0.0000 
     33 C2D        37.7050   -8.7750   20.6020 C.3       1 NAP602      0.0000 
     34 O2D        36.6320   -8.7040   21.5340 O.3       1 NAP602      0.0000 
     35 C1D        38.4940  -10.0650   20.7820 C.3       1 NAP602      0.0000 
     36 N1N        39.5630  -10.0010   21.8990 N.pl3     1 NAP602      0.0000 
     37 C2N        39.1250  -10.4060   23.1040 C.ar      1 NAP602      0.0000 
     38 C3N        39.9560  -10.3340   24.2060 C.ar      1 NAP602      0.0000 
     39 C7N        39.4570  -10.8130   25.5370 C.2       1 NAP602      0.0000 
     40 O7N        40.1850  -10.7120   26.5330 O.2       1 NAP602      0.0000 
     41 N7N        38.2290  -11.3170   25.5940 N.am      1 NAP602      0.0000 
     42 C4N        41.2450   -9.8390   24.0350 C.ar      1 NAP602      0.0000 
     43 C5N        41.6740   -9.4460   22.7810 C.ar      1 NAP602      0.0000 
     44 C6N        40.8140   -9.5360   21.7140 C.ar      1 NAP602      0.0000 
     45 P2B        35.6850    0.4130   13.9180 P.3       1 NAP602      0.0000 
     46 O1X        35.3610    0.4020   15.3760 O.co2     1 NAP602      0.0000 
     47 O2X        35.2030    1.6800   13.2040 O.co2     1 NAP602      0.0000 
     48 O3X        35.1300   -0.7990   13.1700 O.co2     1 NAP602      0.0000 
@<TRIPOS>BOND
     1    1    2 ar   
     2    1    3 ar   
     3    1    4 1    
     4    1   23 1    
     5    4    5 1    
     6    5    6 1    
     7    6    7 1    
     8    6    8 1    
     9    7   12 1    
    10    8    9 1    
    11    8   10 1    
    12   10   11 1    
    13   10   12 1    
    14   11   45 1    
    15   12   13 1    
    16   13   14 1    
    17   13   22 1    
    18   14   15 2    
    19   15   16 1    
    20   16   17 ar   
    21   16   22 ar   
    22   17   18 1    
    23   17   19 ar   
    24   19   20 ar   
    25   20   21 ar   
    26   21   22 ar   
    27   23   24 1    
    28   24   25 ar   
    29   24   26 ar   
    30   24   27 1    
    31   27   28 1    
    32   28   29 1    
    33   29   30 1    
    34   29   31 1    
    35   30   35 1    
    36   31   32 1    
    37   31   33 1    
    38   33   34 1    
    39   33   35 1    
    40   35   36 1    
    41   36   37 ar   
    42   36   44 ar   
    43   37   38 ar   
    44   38   39 1    
    45   38   42 ar   
    46   39   40 2    
    47   39   41 am   
    48   42   43 ar   
    49   43   44 ar   
    50   45   46 ar   
    51   45   47 ar   
    52   45   48 ar   
@<TRIPOS>SUBSTRUCTURE
     1 NAP602      1 GROUP   
@<TRIPOS>SET
ATOM$ORANGE STATIC     ATOMS   COLORGROUP SYSTEM 
42 5 5 6 6 8 8 10 10 12 12 14 14 16 16 17 17 20 \
20 22 22 28 28 29 29 31 31 33 33 35 35 37 37 38 38 39 \
39 42 42 43 43 44 44 

