#    Name: 5z69_1_AGS_CAVITY_N1_4
#    Modification time : Fri May 22 19:26:42 2020

@<TRIPOS>MOLECULE
5z69_1_AGS_CAVITY_N1_4
   78     0     7     0     0
SMALL
NO_CHARGES


@<TRIPOS>ATOM
      1 OG        -40.3300  -10.2100   23.2400 O.3       1 SER1        0.0000 
      2 OG        -41.1000   -9.5400   24.3400 O.3       1 SER1        0.0000 
      3 OG        -39.8100   -9.2800   25.0700 O.3       1 SER1        0.0000 
      4 OG        -37.2500   -8.7600   26.5300 O.3       1 SER1        0.0000 
      5 N         -42.8300  -17.9000   18.0500 N.am      2 ALA2        0.0000 
      6 O         -44.6000  -14.9300   23.1800 O.2       2 ALA2        0.0000 
      7 O         -40.8900  -15.3900   19.9000 O.2       2 ALA2        0.0000 
      8 O         -42.4100  -14.0400   22.1000 O.2       2 ALA2        0.0000 
      9 N         -43.1800  -13.3600   23.2000 N.am      2 ALA2        0.0000 
     10 N         -43.3200  -14.6700   23.9100 N.am      2 ALA2        0.0000 
     11 O         -41.7600  -11.7900   23.2200 O.2       2 ALA2        0.0000 
     12 O         -40.3700  -14.4500   21.7300 O.2       2 ALA2        0.0000 
     13 O         -41.1300  -13.7800   22.8300 O.2       2 ALA2        0.0000 
     14 N         -41.8900  -13.1000   23.9300 N.am      2 ALA2        0.0000 
     15 N         -42.0300  -14.4100   24.6400 N.am      2 ALA2        0.0000 
     16 O         -41.7200   -7.5500   24.7300 O.2       2 ALA2        0.0000 
     17 O         -41.8600   -8.8600   25.4400 O.2       2 ALA2        0.0000 
     18 N         -38.1800  -13.5500   20.6500 N.am      2 ALA2        0.0000 
     19 N         -39.7100  -12.2000   22.8500 N.am      2 ALA2        0.0000 
     20 O         -40.4700  -11.5300   23.9500 O.2       2 ALA2        0.0000 
     21 O         -39.0800  -14.1900   22.4600 O.2       2 ALA2        0.0000 
     22 O         -39.8500  -13.5200   23.5600 O.2       2 ALA2        0.0000 
     23 O         -40.4400   -7.2900   25.4600 O.2       2 ALA2        0.0000 
     24 O         -40.5800   -8.6000   26.1700 O.2       2 ALA2        0.0000 
     25 O         -41.3400   -7.9200   27.2700 O.2       2 ALA2        0.0000 
     26 O         -40.7200   -9.9100   26.8800 O.2       2 ALA2        0.0000 
     27 O         -40.0600   -7.6600   28.0000 O.2       2 ALA2        0.0000 
     28 O         -39.4300   -9.6500   27.6100 O.2       2 ALA2        0.0000 
     29 O         -38.7700   -7.4000   28.7300 O.2       2 ALA2        0.0000 
     30 O         -39.5400   -6.7300   29.8300 O.2       2 ALA2        0.0000 
     31 OD1       -38.3200  -14.8700   21.3600 O.co2     3 ASP3        0.0000 
     32 OD1       -37.6900  -16.8600   20.9700 O.co2     3 ASP3        0.0000 
     33 OD1       -36.9000  -13.2900   21.3800 O.co2     3 ASP3        0.0000 
     34 OD1       -37.6600  -12.6200   22.4800 O.co2     3 ASP3        0.0000 
     35 OD1       -38.4300  -11.9400   23.5800 O.co2     3 ASP3        0.0000 
     36 OD1       -39.1900  -11.2700   24.6800 O.co2     3 ASP3        0.0000 
     37 OD1       -37.0400  -14.6100   22.0900 O.co2     3 ASP3        0.0000 
     38 NZ        -39.7800   -5.0400   26.5800 N.4       4 LYS4        0.0000 
     39 NZ        -37.7300   -5.4500   26.2100 N.4       4 LYS4        0.0000 
     40 NZ        -38.6400   -6.0900   28.0200 N.4       4 LYS4        0.0000 
     41 NZ        -39.4000   -5.4100   29.1200 N.4       4 LYS4        0.0000 
     42 NZ        -36.5900   -6.5100   27.6500 N.4       4 LYS4        0.0000 
     43 NZ        -37.3500   -5.8300   28.7500 N.4       4 LYS4        0.0000 
     44 NZ        -34.5400   -6.9200   27.2800 N.4       4 LYS4        0.0000 
     45 NZ        -35.3100   -6.2500   28.3800 N.4       4 LYS4        0.0000 
     46 CZ        -42.9700  -19.2100   18.7600 C.ar      5 PHE5        0.0000 
     47 CZ        -43.7300  -18.5400   19.8600 C.ar      5 PHE5        0.0000 
     48 CZ        -42.4500  -18.2800   20.5900 C.ar      5 PHE5        0.0000 
     49 CZ        -40.2600  -17.3800   19.5100 C.ar      5 PHE5        0.0000 
     50 CZ        -41.1600  -18.0200   21.3200 C.ar      5 PHE5        0.0000 
     51 CZ        -38.9800  -17.1200   20.2400 C.ar      5 PHE5        0.0000 
     52 CZ        -39.7400  -16.4400   21.3400 C.ar      5 PHE5        0.0000 
     53 CA        -43.5900  -17.2200   19.1500 C.3       6 GLY6        0.0000 
     54 CA        -41.5500  -17.6400   18.7800 C.3       6 GLY6        0.0000 
     55 CA        -42.3100  -16.9600   19.8800 C.3       6 GLY6        0.0000 
     56 CA        -43.8400  -15.6100   22.0800 C.3       6 GLY6        0.0000 
     57 CA        -40.1200  -16.0700   18.8000 C.3       6 GLY6        0.0000 
     58 CA        -41.6500  -14.7100   21.0000 C.3       6 GLY6        0.0000 
     59 CA        -41.0300  -16.7000   20.6100 C.3       6 GLY6        0.0000 
     60 CA        -41.7900  -16.0300   21.7100 C.3       6 GLY6        0.0000 
     61 CA        -42.5500  -15.3500   22.8100 C.3       6 GLY6        0.0000 
     62 CA        -38.8400  -15.8000   19.5300 C.3       6 GLY6        0.0000 
     63 CA        -39.6000  -15.1300   20.6300 C.3       6 GLY6        0.0000 
     64 CA        -41.2400  -10.8500   25.0500 C.3       6 GLY6        0.0000 
     65 CA        -40.6100  -12.8400   24.6600 C.3       6 GLY6        0.0000 
     66 CA        -41.2000   -6.6100   26.5600 C.3       6 GLY6        0.0000 
     67 CA        -39.9500  -10.5900   25.7800 C.3       6 GLY6        0.0000 
     68 CA        -40.0900  -11.9000   26.4900 C.3       6 GLY6        0.0000 
     69 CA        -39.0200   -5.7100   25.4800 C.3       6 GLY6        0.0000 
     70 CA        -39.1600   -7.0300   26.1900 C.3       6 GLY6        0.0000 
     71 CA        -39.9200   -6.3500   27.2900 C.3       6 GLY6        0.0000 
     72 CA        -38.5000   -4.7800   27.3100 C.3       6 GLY6        0.0000 
     73 CA        -37.8700   -6.7700   26.9200 C.3       6 GLY6        0.0000 
     74 CA        -36.4500   -5.1900   26.9400 C.3       6 GLY6        0.0000 
     75 DU        -40.5100  -15.7700   22.4400 H         7 CUB7        0.0000 
     76 DU        -41.2700  -15.0900   23.5400 H         7 CUB7        0.0000 
     77 DU        -38.4600  -16.1800   22.0700 H         7 CUB7        0.0000 
     78 DU        -39.2200  -15.5100   23.1700 H         7 CUB7        0.0000 
@<TRIPOS>BOND
@<TRIPOS>SUBSTRUCTURE
     1 SER1        1 GROUP   
     2 ALA2        5 GROUP   
     3 ASP3       31 GROUP   
     4 LYS4       38 GROUP   
     5 PHE5       46 GROUP   
     6 GLY6       53 GROUP   
     7 CUB7       75 GROUP   
@<TRIPOS>SET

