#    Name: 5z69_1_AGS
#    Modification time : Fri May 22 19:26:40 2020

@<TRIPOS>MOLECULE
5z69_1_AGS
   31    33     1     0     0
SMALL
NO_CHARGES


@<TRIPOS>ATOM
      1 PG        -39.3830   -6.6130   26.2710 P.3       1 AGS401      0.0000 
      2 S1G       -39.8350   -4.7230   26.0650 S.2       1 AGS401      0.0000 
      3 O2G       -39.7250   -7.0680   27.7300 O.3       1 AGS401      0.0000 
      4 O3G       -37.8390   -6.7270   26.0740 O.3       1 AGS401      0.0000 
      5 PB        -41.3230   -8.5420   25.5570 P.3       1 AGS401      0.0000 
      6 O1B       -42.6390   -8.1530   24.9700 O.co2     1 AGS401      0.0000 
      7 O2B       -41.3960   -8.6480   27.0900 O.co2     1 AGS401      0.0000 
      8 O3B       -40.1540   -7.4890   25.1990 O.3       1 AGS401      0.0000 
      9 PA        -40.4320  -10.3500   23.5930 P.3       1 AGS401      0.0000 
     10 O1A       -40.8920   -9.2520   22.6250 O.co2     1 AGS401      0.0000 
     11 O2A       -38.9640  -10.6190   23.7150 O.co2     1 AGS401      0.0000 
     12 O3A       -40.9770  -10.0130   25.0560 O.3       1 AGS401      0.0000 
     13 O5'       -41.1730  -11.6760   23.2740 O.3       1 AGS401      0.0000 
     14 C5'       -40.4490  -12.8740   23.2420 C.3       1 AGS401      0.0000 
     15 C4'       -41.4940  -13.9410   23.3500 C.3       1 AGS401      0.0000 
     16 O4'       -41.6010  -14.6240   22.0810 O.3       1 AGS401      0.0000 
     17 C3'       -41.1770  -15.0110   24.3890 C.3       1 AGS401      0.0000 
     18 O3'       -42.3730  -15.4840   24.9990 O.3       1 AGS401      0.0000 
     19 C2'       -40.4270  -16.0610   23.5650 C.3       1 AGS401      0.0000 
     20 O2'       -40.5780  -17.3760   24.0910 O.3       1 AGS401      0.0000 
     21 C1'       -41.1190  -15.9480   22.2010 C.3       1 AGS401      0.0000 
     22 N9        -40.2460  -16.2320   21.0740 N.pl3     1 AGS401      0.0000 
     23 C8        -38.9180  -15.9040   20.9360 C.2       1 AGS401      0.0000 
     24 N7        -38.3810  -16.3190   19.8170 N.2       1 AGS401      0.0000 
     25 C5        -39.4200  -16.9610   19.1660 C.ar      1 AGS401      0.0000 
     26 C6        -39.5070  -17.6270   17.9280 C.ar      1 AGS401      0.0000 
     27 N6        -38.4800  -17.7410   17.0800 N.pl3     1 AGS401      0.0000 
     28 N1        -40.6920  -18.1810   17.5880 N.ar      1 AGS401      0.0000 
     29 C2        -41.7220  -18.0620   18.4320 C.ar      1 AGS401      0.0000 
     30 N3        -41.7630  -17.4610   19.6240 N.ar      1 AGS401      0.0000 
     31 C4        -40.5740  -16.9260   19.9300 C.ar      1 AGS401      0.0000 
@<TRIPOS>BOND
     1    1    2 2    
     2    1    3 1    
     3    1    4 1    
     4    1    8 1    
     5    5    6 ar   
     6    5    7 ar   
     7    5    8 1    
     8    5   12 1    
     9    9   10 ar   
    10    9   11 ar   
    11    9   12 1    
    12    9   13 1    
    13   13   14 1    
    14   14   15 1    
    15   15   16 1    
    16   15   17 1    
    17   16   21 1    
    18   17   18 1    
    19   17   19 1    
    20   19   20 1    
    21   19   21 1    
    22   21   22 1    
    23   22   23 1    
    24   22   31 1    
    25   23   24 2    
    26   24   25 1    
    27   25   26 ar   
    28   25   31 ar   
    29   26   27 1    
    30   26   28 ar   
    31   28   29 ar   
    32   29   30 ar   
    33   30   31 ar   
@<TRIPOS>SUBSTRUCTURE
     1 AGS401      1 GROUP   
@<TRIPOS>SET

