#    Name: 6jqn_11_NAP
#    Modification time : Fri May 22 19:28:49 2020

@<TRIPOS>MOLECULE
6jqn_11_NAP
   48    52     1     0     1
SMALL
NO_CHARGES


@<TRIPOS>ATOM
      1 PA        151.5840  189.0410  236.4310 P.3       1 NAP801      0.0000 
      2 O1A       151.4080  188.7470  234.9660 O.co2     1 NAP801      0.0000 
      3 O2A       150.6530  188.1940  237.2600 O.co2     1 NAP801      0.0000 
      4 O5B       151.2700  190.5880  236.7140 O.3       1 NAP801      0.0000 
      5 C5B       152.1740  191.6010  236.2850 C.3       1 NAP801      0.0000 
      6 C4B       151.5230  192.9820  236.2750 C.3       1 NAP801      0.0000 
      7 O4B       150.4820  193.0400  235.2960 O.3       1 NAP801      0.0000 
      8 C3B       150.8820  193.3420  237.6000 C.3       1 NAP801      0.0000 
      9 O3B       151.1830  194.7050  237.8910 O.3       1 NAP801      0.0000 
     10 C2B       149.4030  193.2110  237.3340 C.3       1 NAP801      0.0000 
     11 O2B       148.6380  194.0530  238.1830 O.3       1 NAP801      0.0000 
     12 C1B       149.3040  193.5960  235.8750 C.3       1 NAP801      0.0000 
     13 N9A       148.1180  192.9840  235.2410 N.pl3     1 NAP801      0.0000 
     14 C8A       147.6450  191.7480  235.4750 C.2       1 NAP801      0.0000 
     15 N7A       146.5470  191.4960  234.7200 N.2       1 NAP801      0.0000 
     16 C5A       146.3060  192.5950  233.9850 C.ar      1 NAP801      0.0000 
     17 C6A       145.3030  193.0050  232.9800 C.ar      1 NAP801      0.0000 
     18 N6A       144.3100  192.1640  232.6050 N.pl3     1 NAP801      0.0000 
     19 N1A       145.4110  194.2430  232.4530 N.ar      1 NAP801      0.0000 
     20 C2A       146.3910  195.0880  232.8210 C.ar      1 NAP801      0.0000 
     21 N3A       147.3350  194.7800  233.7230 N.ar      1 NAP801      0.0000 
     22 C4A       147.3460  193.5710  234.3290 C.ar      1 NAP801      0.0000 
     23 O3        153.0980  188.7170  236.8440 O.3       1 NAP801      0.0000 
     24 PN        153.5180  188.6760  238.3900 P.3       1 NAP801      0.0000 
     25 O1N       152.8030  189.7860  239.1150 O.co2     1 NAP801      0.0000 
     26 O2N       153.1220  187.3300  238.9420 O.co2     1 NAP801      0.0000 
     27 O5D       155.1080  188.8690  238.5320 O.3       1 NAP801      0.0000 
     28 C5D       155.9940  187.7530  238.5370 C.3       1 NAP801      0.0000 
     29 C4D       156.6060  187.5100  237.1700 C.3       1 NAP801      0.0000 
     30 O4D       157.3290  188.6590  236.7280 O.3       1 NAP801      0.0000 
     31 C3D       157.6070  186.3740  237.2430 C.3       1 NAP801      0.0000 
     32 O3D       157.2010  185.3360  236.3530 O.3       1 NAP801      0.0000 
     33 C2D       158.9190  186.9720  236.7860 C.3       1 NAP801      0.0000 
     34 O2D       159.6000  186.0720  235.9140 O.3       1 NAP801      0.0000 
     35 C1D       158.5130  188.2370  236.0570 C.3       1 NAP801      0.0000 
     36 N1N       159.5610  189.2500  236.1460 N.pl3     1 NAP801      0.0000 
     37 C2N       160.2270  189.5880  235.0410 C.ar      1 NAP801      0.0000 
     38 C3N       161.2290  190.5450  235.0780 C.ar      1 NAP801      0.0000 
     39 C7N       161.9660  190.8920  233.8300 C.2       1 NAP801      0.0000 
     40 O7N       162.2130  190.0050  233.0350 O.2       1 NAP801      0.0000 
     41 N7N       162.3320  192.1550  233.6350 N.am      1 NAP801      0.0000 
     42 C4N       161.5700  191.1740  236.2630 C.ar      1 NAP801      0.0000 
     43 C5N       160.9040  190.8530  237.4330 C.ar      1 NAP801      0.0000 
     44 C6N       159.8430  189.8580  237.4460 C.ar      1 NAP801      0.0000 
     45 P2B       147.6910  193.3580  239.2770 P.3       1 NAP801      0.0000 
     46 O1X       148.4820  193.1460  240.5410 O.co2     1 NAP801      0.0000 
     47 O2X       146.5130  194.2610  239.5300 O.co2     1 NAP801      0.0000 
     48 O3X       147.2150  192.0360  238.7300 O.co2     1 NAP801      0.0000 
@<TRIPOS>BOND
     1    1    2 ar   
     2    1    3 ar   
     3    1    4 1    
     4    1   23 1    
     5    4    5 1    
     6    5    6 1    
     7    6    7 1    
     8    6    8 1    
     9    7   12 1    
    10    8    9 1    
    11    8   10 1    
    12   10   11 1    
    13   10   12 1    
    14   11   45 1    
    15   12   13 1    
    16   13   14 1    
    17   13   22 1    
    18   14   15 2    
    19   15   16 1    
    20   16   17 ar   
    21   16   22 ar   
    22   17   18 1    
    23   17   19 ar   
    24   19   20 ar   
    25   20   21 ar   
    26   21   22 ar   
    27   23   24 1    
    28   24   25 ar   
    29   24   26 ar   
    30   24   27 1    
    31   27   28 1    
    32   28   29 1    
    33   29   30 1    
    34   29   31 1    
    35   30   35 1    
    36   31   32 1    
    37   31   33 1    
    38   33   34 1    
    39   33   35 1    
    40   35   36 1    
    41   36   37 ar   
    42   36   44 ar   
    43   37   38 ar   
    44   38   39 1    
    45   38   42 ar   
    46   39   40 2    
    47   39   41 am   
    48   42   43 ar   
    49   43   44 ar   
    50   45   46 ar   
    51   45   47 ar   
    52   45   48 ar   
@<TRIPOS>SUBSTRUCTURE
     1 NAP801      1 GROUP   
@<TRIPOS>SET
ATOM$ORANGE STATIC     ATOMS   COLORGROUP SYSTEM 
42 5 5 6 6 8 8 10 10 12 12 14 14 16 16 17 17 20 \
20 22 22 28 28 29 29 31 31 33 33 35 35 37 37 38 38 39 \
39 42 42 43 43 44 44 

