#    Name: 6jqn_8_NAP
#    Modification time : Fri May 22 19:28:19 2020

@<TRIPOS>MOLECULE
6jqn_8_NAP
   48    52     1     0     1
SMALL
NO_CHARGES


@<TRIPOS>ATOM
      1 PA        226.4870  290.9220  236.4510 P.3       1 NAP801      0.0000 
      2 O1A       226.1530  291.3900  235.0600 O.co2     1 NAP801      0.0000 
      3 O2A       226.2810  292.0350  237.4470 O.co2     1 NAP801      0.0000 
      4 O5B       228.0140  290.4440  236.5140 O.3       1 NAP801      0.0000 
      5 C5B       228.3510  289.0880  236.2410 C.3       1 NAP801      0.0000 
      6 C4B       229.8600  288.8790  236.2710 C.3       1 NAP801      0.0000 
      7 O4B       230.4960  289.7170  235.3070 O.3       1 NAP801      0.0000 
      8 C3B       230.4610  289.2320  237.6150 C.3       1 NAP801      0.0000 
      9 O3B       231.4270  288.2380  237.9440 O.3       1 NAP801      0.0000 
     10 C2B       231.1610  290.5470  237.3810 C.3       1 NAP801      0.0000 
     11 O2B       232.2800  290.6910  238.2410 O.3       1 NAP801      0.0000 
     12 C1B       231.5500  290.4550  235.9210 C.3       1 NAP801      0.0000 
     13 N9A       231.6080  291.7880  235.2910 N.pl3     1 NAP801      0.0000 
     14 C8A       230.7730  292.8140  235.5260 C.2       1 NAP801      0.0000 
     15 N7A       231.1030  293.8910  234.7700 N.2       1 NAP801      0.0000 
     16 C5A       232.1750  293.5500  234.0350 C.ar      1 NAP801      0.0000 
     17 C6A       233.0350  294.2090  233.0290 C.ar      1 NAP801      0.0000 
     18 N6A       232.8070  295.4890  232.6510 N.pl3     1 NAP801      0.0000 
     19 N1A       234.0530  293.4950  232.5040 N.ar      1 NAP801      0.0000 
     20 C2A       234.2910  292.2250  232.8710 C.ar      1 NAP801      0.0000 
     21 N3A       233.5520  291.5640  233.7750 N.ar      1 NAP801      0.0000 
     22 C4A       232.5010  292.1630  234.3790 C.ar      1 NAP801      0.0000 
     23 O3        225.5420  289.6880  236.8430 O.3       1 NAP801      0.0000 
     24 PN        225.2930  289.3410  238.3880 P.3       1 NAP801      0.0000 
     25 O1N       226.6130  289.3590  239.1140 O.co2     1 NAP801      0.0000 
     26 O2N       224.3560  290.3740  238.9580 O.co2     1 NAP801      0.0000 
     27 O5D       224.6250  287.8860  238.5230 O.3       1 NAP801      0.0000 
     28 C5D       223.2110  287.7220  238.5820 C.3       1 NAP801      0.0000 
     29 C4D       222.6150  287.4510  237.2150 C.3       1 NAP801      0.0000 
     30 O4D       223.1900  286.2660  236.6690 O.3       1 NAP801      0.0000 
     31 C3D       221.1260  287.1960  237.3360 C.3       1 NAP801      0.0000 
     32 O3D       220.4290  288.0790  236.4590 O.3       1 NAP801      0.0000 
     33 C2D       220.9350  285.7650  236.8880 C.3       1 NAP801      0.0000 
     34 O2D       219.7560  285.6500  236.0940 O.3       1 NAP801      0.0000 
     35 C1D       222.1740  285.4690  236.0700 C.3       1 NAP801      0.0000 
     36 N1N       222.5260  284.0550  236.1410 N.pl3     1 NAP801      0.0000 
     37 C2N       222.4230  283.3100  235.0410 C.ar      1 NAP801      0.0000 
     38 C3N       222.7500  281.9640  235.0590 C.ar      1 NAP801      0.0000 
     39 C7N       222.6060  281.1550  233.8160 C.2       1 NAP801      0.0000 
     40 O7N       221.7960  281.5150  232.9820 O.2       1 NAP801      0.0000 
     41 N7N       223.3580  280.0690  233.6680 N.am      1 NAP801      0.0000 
     42 C4N       223.1860  281.3550  236.2220 C.ar      1 NAP801      0.0000 
     43 C5N       223.3080  282.0910  237.3870 C.ar      1 NAP801      0.0000 
     44 C6N       222.9840  283.5080  237.4170 C.ar      1 NAP801      0.0000 
     45 P2B       232.1820  291.7200  239.4700 P.3       1 NAP801      0.0000 
     46 O1X       231.9000  290.9470  240.7310 O.co2     1 NAP801      0.0000 
     47 O2X       233.4920  292.4570  239.5870 O.co2     1 NAP801      0.0000 
     48 O3X       231.0640  292.6950  239.2030 O.co2     1 NAP801      0.0000 
@<TRIPOS>BOND
     1    1    2 ar   
     2    1    3 ar   
     3    1    4 1    
     4    1   23 1    
     5    4    5 1    
     6    5    6 1    
     7    6    7 1    
     8    6    8 1    
     9    7   12 1    
    10    8    9 1    
    11    8   10 1    
    12   10   11 1    
    13   10   12 1    
    14   11   45 1    
    15   12   13 1    
    16   13   14 1    
    17   13   22 1    
    18   14   15 2    
    19   15   16 1    
    20   16   17 ar   
    21   16   22 ar   
    22   17   18 1    
    23   17   19 ar   
    24   19   20 ar   
    25   20   21 ar   
    26   21   22 ar   
    27   23   24 1    
    28   24   25 ar   
    29   24   26 ar   
    30   24   27 1    
    31   27   28 1    
    32   28   29 1    
    33   29   30 1    
    34   29   31 1    
    35   30   35 1    
    36   31   32 1    
    37   31   33 1    
    38   33   34 1    
    39   33   35 1    
    40   35   36 1    
    41   36   37 ar   
    42   36   44 ar   
    43   37   38 ar   
    44   38   39 1    
    45   38   42 ar   
    46   39   40 2    
    47   39   41 am   
    48   42   43 ar   
    49   43   44 ar   
    50   45   46 ar   
    51   45   47 ar   
    52   45   48 ar   
@<TRIPOS>SUBSTRUCTURE
     1 NAP801      1 GROUP   
@<TRIPOS>SET
ATOM$ORANGE STATIC     ATOMS   COLORGROUP SYSTEM 
42 5 5 6 6 8 8 10 10 12 12 14 14 16 16 17 17 20 \
20 22 22 28 28 29 29 31 31 33 33 35 35 37 37 38 38 39 \
39 42 42 43 43 44 44 

