#    Name: 6jqn_1_CO8
#    Modification time : Fri May 22 19:26:15 2020

@<TRIPOS>MOLECULE
6jqn_1_CO8
   57    59     1     0     0
SMALL
NO_CHARGES


@<TRIPOS>ATOM
      1 N1A       220.1600  248.5450  235.5480 N.ar      1 CO8802      0.0000 
      2 C2A       221.4860  248.3060  235.5690 C.ar      1 CO8802      0.0000 
      3 N3A       222.2790  248.4040  234.4880 N.ar      1 CO8802      0.0000 
      4 C4A       221.7680  248.7610  233.2870 C.ar      1 CO8802      0.0000 
      5 C5A       220.3280  249.0420  233.1860 C.ar      1 CO8802      0.0000 
      6 C6A       219.5200  248.9090  234.4150 C.ar      1 CO8802      0.0000 
      7 N6A       218.1870  249.1470  234.3980 N.pl3     1 CO8802      0.0000 
      8 N7A       220.0800  249.3620  231.9080 N.2       1 CO8802      0.0000 
      9 C8A       221.2580  249.2990  231.2460 C.2       1 CO8802      0.0000 
     10 N9A       222.2640  248.9420  232.0640 N.pl3     1 CO8802      0.0000 
     11 C1B       223.6750  248.7880  231.6260 C.3       1 CO8802      0.0000 
     12 C2B       224.5970  249.8140  232.2440 C.3       1 CO8802      0.0000 
     13 O2B       224.3550  251.1040  231.6800 O.3       1 CO8802      0.0000 
     14 C3B       225.9400  249.2570  231.8340 C.3       1 CO8802      0.0000 
     15 O3B       226.1950  249.6490  230.4920 O.3       1 CO8802      0.0000 
     16 P3B       227.1790  250.8650  230.1240 P.3       1 CO8802      0.0000 
     17 O7A       227.2220  251.0100  228.6240 O.co2     1 CO8802      0.0000 
     18 O8A       226.6310  252.1250  230.7470 O.co2     1 CO8802      0.0000 
     19 O9A       228.5520  250.5760  230.6720 O.co2     1 CO8802      0.0000 
     20 C4B       225.7070  247.7510  231.8220 C.3       1 CO8802      0.0000 
     21 O4B       224.2940  247.5530  231.9910 O.3       1 CO8802      0.0000 
     22 C5B       226.5530  246.9930  232.8460 C.3       1 CO8802      0.0000 
     23 O5B       225.9580  246.9830  234.1410 O.3       1 CO8802      0.0000 
     24 P1A       226.6750  247.7240  235.3770 P.3       1 CO8802      0.0000 
     25 O1A       226.6390  249.2110  235.1290 O.co2     1 CO8802      0.0000 
     26 O2A       225.9050  247.4180  236.6380 O.co2     1 CO8802      0.0000 
     27 O3A       228.2250  247.2840  235.5050 O.3       1 CO8802      0.0000 
     28 P2A       228.8060  245.9800  236.2610 P.3       1 CO8802      0.0000 
     29 O4A       230.1560  246.3270  236.8360 O.co2     1 CO8802      0.0000 
     30 O5A       227.8920  245.5270  237.3710 O.co2     1 CO8802      0.0000 
     31 O6A       229.0010  244.7590  235.2350 O.3       1 CO8802      0.0000 
     32 CBP       228.4070  242.5430  234.4520 C.3       1 CO8802      0.0000 
     33 CCP       227.9110  243.8840  234.9760 C.3       1 CO8802      0.0000 
     34 CDP       229.5820  242.1000  235.3070 C.3       1 CO8802      0.0000 
     35 CEP       228.8810  242.6580  233.0150 C.3       1 CO8802      0.0000 
     36 CAP       227.3190  241.4680  234.5840 C.3       1 CO8802      0.0000 
     37 OAP       226.7120  241.5940  235.8750 O.3       1 CO8802      0.0000 
     38 C9P       226.2210  241.4880  233.5480 C.2       1 CO8802      0.0000 
     39 O9P       225.6190  242.4980  233.2430 O.2       1 CO8802      0.0000 
     40 N8P       225.9100  240.3270  232.9900 N.am      1 CO8802      0.0000 
     41 C7P       226.9230  239.4910  232.3920 C.3       1 CO8802      0.0000 
     42 C6P       226.7160  239.3600  230.8940 C.3       1 CO8802      0.0000 
     43 C5P       225.8650  238.1480  230.6220 C.2       1 CO8802      0.0000 
     44 O5P       224.9510  237.8400  231.3650 O.2       1 CO8802      0.0000 
     45 N4P       226.1830  237.4570  229.5380 N.am      1 CO8802      0.0000 
     46 C3P       225.4860  236.2410  229.1850 C.3       1 CO8802      0.0000 
     47 C2P       226.1870  235.0130  229.7510 C.3       1 CO8802      0.0000 
     48 S1P       227.9080  235.3310  229.9520 S.3       1 CO8802      0.0000 
     49 C1'       228.4840  234.9530  228.4420 C.2       1 CO8802      0.0000 
     50 O1'       227.7520  234.4430  227.6120 O.2       1 CO8802      0.0000 
     51 C2'       229.9240  235.2450  228.1120 C.3       1 CO8802      0.0000 
     52 C3'       230.2420  234.7290  226.7160 C.3       1 CO8802      0.0000 
     53 C4'       231.3300  235.5840  226.0860 C.3       1 CO8802      0.0000 
     54 C5'       231.6700  235.0980  224.6880 C.3       1 CO8802      0.0000 
     55 C6'       232.2310  236.2340  223.8450 C.3       1 CO8802      0.0000 
     56 C7'       231.1150  237.1520  223.3700 C.3       1 CO8802      0.0000 
     57 C8'       230.1010  236.4080  222.5270 C.3       1 CO8802      0.0000 
@<TRIPOS>BOND
     1    1    2 ar   
     2    1    6 ar   
     3    2    3 ar   
     4    3    4 ar   
     5    4    5 ar   
     6    4   10 1    
     7    5    6 ar   
     8    5    8 1    
     9    6    7 1    
    10    8    9 2    
    11    9   10 1    
    12   10   11 1    
    13   11   12 1    
    14   11   21 1    
    15   12   13 1    
    16   12   14 1    
    17   14   15 1    
    18   14   20 1    
    19   15   16 1    
    20   16   17 ar   
    21   16   18 ar   
    22   16   19 ar   
    23   20   21 1    
    24   20   22 1    
    25   22   23 1    
    26   23   24 1    
    27   24   25 ar   
    28   24   26 ar   
    29   24   27 1    
    30   27   28 1    
    31   28   29 ar   
    32   28   30 ar   
    33   28   31 1    
    34   31   33 1    
    35   32   33 1    
    36   32   34 1    
    37   32   35 1    
    38   32   36 1    
    39   36   37 1    
    40   36   38 1    
    41   38   39 2    
    42   38   40 am   
    43   40   41 1    
    44   41   42 1    
    45   42   43 1    
    46   43   44 2    
    47   43   45 am   
    48   45   46 1    
    49   46   47 1    
    50   47   48 1    
    51   48   49 1    
    52   49   50 2    
    53   49   51 1    
    54   51   52 1    
    55   52   53 1    
    56   53   54 1    
    57   54   55 1    
    58   55   56 1    
    59   56   57 1    
@<TRIPOS>SUBSTRUCTURE
     1 CO8802      1 GROUP   
@<TRIPOS>SET

