#    Name: 6jqn_5_CO8
#    Modification time : Fri May 22 19:27:39 2020

@<TRIPOS>MOLECULE
6jqn_5_CO8
   57    59     1     0     0
SMALL
NO_CHARGES


@<TRIPOS>ATOM
      1 N1A       187.8160  211.7140  205.5880 N.ar      1 CO8802      0.0000 
      2 C2A       187.7810  210.9590  206.6990 C.ar      1 CO8802      0.0000 
      3 N3A       188.3170  209.7300  206.7810 N.ar      1 CO8802      0.0000 
      4 C4A       188.9320  209.1720  205.7160 C.ar      1 CO8802      0.0000 
      5 C5A       189.0120  209.9330  204.4640 C.ar      1 CO8802      0.0000 
      6 C6A       188.4050  211.2800  204.4520 C.ar      1 CO8802      0.0000 
      7 N6A       188.4370  212.0470  203.3360 N.pl3     1 CO8802      0.0000 
      8 N7A       189.6670  209.1620  203.5800 N.2       1 CO8802      0.0000 
      9 C8A       189.9800  208.0040  204.2090 C.2       1 CO8802      0.0000 
     10 N9A       189.5420  208.0110  205.4790 N.pl3     1 CO8802      0.0000 
     11 C1B       189.7180  206.9090  206.4500 C.3       1 CO8802      0.0000 
     12 C2B       188.7620  205.7790  206.1300 C.3       1 CO8802      0.0000 
     13 O2B       187.5880  205.8920  206.9340 O.3       1 CO8802      0.0000 
     14 C3B       189.5340  204.5360  206.4990 C.3       1 CO8802      0.0000 
     15 O3B       189.2730  204.2640  207.8680 O.3       1 CO8802      0.0000 
     16 P3B       188.3520  203.0270  208.3210 P.3       1 CO8802      0.0000 
     17 O7A       187.5220  202.5840  207.1410 O.co2     1 CO8802      0.0000 
     18 O8A       189.2320  201.9030  208.8050 O.co2     1 CO8802      0.0000 
     19 O9A       187.4540  203.4940  209.4410 O.co2     1 CO8802      0.0000 
     20 C4B       190.9930  204.9410  206.3650 C.3       1 CO8802      0.0000 
     21 O4B       191.0280  206.3680  206.3000 O.3       1 CO8802      0.0000 
     22 C5B       191.6940  204.3580  205.1400 C.3       1 CO8802      0.0000 
     23 O5B       190.9780  204.6150  203.9350 O.3       1 CO8802      0.0000 
     24 P1A       191.7520  204.8570  202.5430 P.3       1 CO8802      0.0000 
     25 O1A       190.7990  205.5360  201.5900 O.co2     1 CO8802      0.0000 
     26 O2A       192.9420  205.7500  202.7890 O.co2     1 CO8802      0.0000 
     27 O3A       192.2370  203.4780  201.8630 O.3       1 CO8802      0.0000 
     28 P2A       193.4270  202.5490  202.4270 P.3       1 CO8802      0.0000 
     29 O4A       192.9240  201.7070  203.5740 O.co2     1 CO8802      0.0000 
     30 O5A       193.8940  201.6600  201.3030 O.co2     1 CO8802      0.0000 
     31 O6A       194.6800  203.4380  202.9040 O.3       1 CO8802      0.0000 
     32 CBP       197.0620  203.5230  203.2120 C.3       1 CO8802      0.0000 
     33 CCP       195.7590  202.8640  203.6410 C.3       1 CO8802      0.0000 
     34 CDP       197.2710  203.2210  201.7400 C.3       1 CO8802      0.0000 
     35 CEP       198.2460  202.9550  203.9780 C.3       1 CO8802      0.0000 
     36 CAP       196.9950  205.0510  203.3470 C.3       1 CO8802      0.0000 
     37 OAP       195.7170  205.5070  202.8870 O.3       1 CO8802      0.0000 
     38 C9P       197.2130  205.6070  204.7290 C.2       1 CO8802      0.0000 
     39 O9P       196.6400  205.1750  205.7180 O.2       1 CO8802      0.0000 
     40 N8P       198.0310  206.6520  204.7860 N.am      1 CO8802      0.0000 
     41 C7P       199.3730  206.5660  205.3180 C.3       1 CO8802      0.0000 
     42 C6P       199.3930  206.5950  206.8350 C.3       1 CO8802      0.0000 
     43 C5P       200.6270  207.3100  207.3200 C.2       1 CO8802      0.0000 
     44 O5P       200.5790  208.4760  207.6590 O.2       1 CO8802      0.0000 
     45 N4P       201.7490  206.6100  207.3540 N.am      1 CO8802      0.0000 
     46 C3P       202.9910  207.2350  207.7520 C.3       1 CO8802      0.0000 
     47 C2P       203.5730  206.5780  208.9930 C.3       1 CO8802      0.0000 
     48 S1P       203.7040  204.8430  208.7350 S.3       1 CO8802      0.0000 
     49 C1'       204.2610  204.3990  210.2380 C.2       1 CO8802      0.0000 
     50 O1'       204.6390  205.2500  211.0260 O.2       1 CO8802      0.0000 
     51 C2'       204.2900  202.9380  210.6120 C.3       1 CO8802      0.0000 
     52 C3'       204.5190  202.7670  212.1060 C.3       1 CO8802      0.0000 
     53 C4'       204.2610  201.3190  212.4940 C.3       1 CO8802      0.0000 
     54 C5'       203.7120  201.2230  213.9100 C.3       1 CO8802      0.0000 
     55 C6'       202.4110  201.9950  214.0510 C.3       1 CO8802      0.0000 
     56 C7'       202.3270  202.6560  215.4190 C.3       1 CO8802      0.0000 
     57 C8'       203.3690  203.7410  215.5670 C.3       1 CO8802      0.0000 
@<TRIPOS>BOND
     1    1    2 ar   
     2    1    6 ar   
     3    2    3 ar   
     4    3    4 ar   
     5    4    5 ar   
     6    4   10 1    
     7    5    6 ar   
     8    5    8 1    
     9    6    7 1    
    10    8    9 2    
    11    9   10 1    
    12   10   11 1    
    13   11   12 1    
    14   11   21 1    
    15   12   13 1    
    16   12   14 1    
    17   14   15 1    
    18   14   20 1    
    19   15   16 1    
    20   16   17 ar   
    21   16   18 ar   
    22   16   19 ar   
    23   20   21 1    
    24   20   22 1    
    25   22   23 1    
    26   23   24 1    
    27   24   25 ar   
    28   24   26 ar   
    29   24   27 1    
    30   27   28 1    
    31   28   29 ar   
    32   28   30 ar   
    33   28   31 1    
    34   31   33 1    
    35   32   33 1    
    36   32   34 1    
    37   32   35 1    
    38   32   36 1    
    39   36   37 1    
    40   36   38 1    
    41   38   39 2    
    42   38   40 am   
    43   40   41 1    
    44   41   42 1    
    45   42   43 1    
    46   43   44 2    
    47   43   45 am   
    48   45   46 1    
    49   46   47 1    
    50   47   48 1    
    51   48   49 1    
    52   49   50 2    
    53   49   51 1    
    54   51   52 1    
    55   52   53 1    
    56   53   54 1    
    57   54   55 1    
    58   55   56 1    
    59   56   57 1    
@<TRIPOS>SUBSTRUCTURE
     1 CO8802      1 GROUP   
@<TRIPOS>SET

