#    Name: 6jqn_6_CO8
#    Modification time : Fri May 22 19:27:59 2020

@<TRIPOS>MOLECULE
6jqn_6_CO8
   57    59     1     0     0
SMALL
NO_CHARGES


@<TRIPOS>ATOM
      1 N1A       191.2850  204.9830  235.5310 N.ar      1 CO8802      0.0000 
      2 C2A       190.8610  206.2600  235.4900 C.ar      1 CO8802      0.0000 
      3 N3A       190.3910  206.8550  234.3800 N.ar      1 CO8802      0.0000 
      4 C4A       190.3160  206.1780  233.2110 C.ar      1 CO8802      0.0000 
      5 C5A       190.7570  204.7750  233.1780 C.ar      1 CO8802      0.0000 
      6 C6A       191.2660  204.1920  234.4360 C.ar      1 CO8802      0.0000 
      7 N6A       191.6940  202.9080  234.4810 N.pl3     1 CO8802      0.0000 
      8 N7A       190.5860  204.3410  231.9210 N.2       1 CO8802      0.0000 
      9 C8A       190.0710  205.3710  231.2100 C.2       1 CO8802      0.0000 
     10 N9A       189.9100  206.4660  231.9750 N.pl3     1 CO8802      0.0000 
     11 C1B       189.3720  207.7570  231.4730 C.3       1 CO8802      0.0000 
     12 C2B       187.8620  207.8150  231.5610 C.3       1 CO8802      0.0000 
     13 O2B       187.2800  207.1310  230.4510 O.3       1 CO8802      0.0000 
     14 C3B       187.5810  209.3000  231.4860 C.3       1 CO8802      0.0000 
     15 O3B       187.1990  209.6410  230.1600 O.3       1 CO8802      0.0000 
     16 P3B       185.6540  209.8960  229.8050 P.3       1 CO8802      0.0000 
     17 O7A       185.5280  210.0760  228.3130 O.co2     1 CO8802      0.0000 
     18 O8A       184.8560  208.6970  230.2520 O.co2     1 CO8802      0.0000 
     19 O9A       185.1900  211.1340  230.5300 O.co2     1 CO8802      0.0000 
     20 C4B       188.9100  209.9690  231.8130 C.3       1 CO8802      0.0000 
     21 O4B       189.8030  208.9140  232.1920 O.3       1 CO8802      0.0000 
     22 C5B       188.7450  211.0250  232.8990 C.3       1 CO8802      0.0000 
     23 O5B       189.6800  210.8300  233.9540 O.3       1 CO8802      0.0000 
     24 P1A       189.1380  210.7780  235.4650 P.3       1 CO8802      0.0000 
     25 O1A       188.0330  209.7530  235.5340 O.co2     1 CO8802      0.0000 
     26 O2A       190.2650  210.3890  236.3880 O.co2     1 CO8802      0.0000 
     27 O3A       188.5260  212.2040  235.8970 O.3       1 CO8802      0.0000 
     28 P2A       189.4300  213.4850  236.2660 P.3       1 CO8802      0.0000 
     29 O4A       188.5280  214.5770  236.7790 O.co2     1 CO8802      0.0000 
     30 O5A       190.4370  213.1170  237.3270 O.co2     1 CO8802      0.0000 
     31 O6A       190.1990  214.0360  234.9670 O.3       1 CO8802      0.0000 
     32 CBP       192.3600  214.9840  234.4730 C.3       1 CO8802      0.0000 
     33 CCP       191.5700  213.7160  234.7570 C.3       1 CO8802      0.0000 
     34 CDP       191.9500  216.0740  235.4480 C.3       1 CO8802      0.0000 
     35 CEP       192.0680  215.4640  233.0640 C.3       1 CO8802      0.0000 
     36 CAP       193.8540  214.7100  234.6650 C.3       1 CO8802      0.0000 
     37 OAP       194.0300  213.8200  235.7710 O.3       1 CO8802      0.0000 
     38 C9P       194.5170  214.1050  233.4610 C.2       1 CO8802      0.0000 
     39 O9P       194.2930  212.9600  233.1180 O.2       1 CO8802      0.0000 
     40 N8P       195.3740  214.8780  232.8110 N.am      1 CO8802      0.0000 
     41 C7P       196.1350  214.3640  231.6980 C.3       1 CO8802      0.0000 
     42 C6P       197.6080  214.2920  232.0520 C.3       1 CO8802      0.0000 
     43 C5P       198.4310  214.6270  230.8370 C.2       1 CO8802      0.0000 
     44 O5P       199.4220  213.9770  230.5560 O.2       1 CO8802      0.0000 
     45 N4P       198.0210  215.6610  230.1160 N.am      1 CO8802      0.0000 
     46 C3P       198.8830  216.2430  229.1100 C.3       1 CO8802      0.0000 
     47 C2P       199.5010  217.5450  229.6020 C.3       1 CO8802      0.0000 
     48 S1P       198.2920  218.8240  229.6500 S.3       1 CO8802      0.0000 
     49 C1'       198.4580  219.4200  228.1070 C.2       1 CO8802      0.0000 
     50 O1'       199.3630  219.0250  227.3930 O.2       1 CO8802      0.0000 
     51 C2'       197.4870  220.4580  227.6060 C.3       1 CO8802      0.0000 
     52 C3'       197.6170  220.6450  226.1020 C.3       1 CO8802      0.0000 
     53 C4'       196.6120  221.6940  225.6520 C.3       1 CO8802      0.0000 
     54 C5'       196.3590  221.6040  224.1560 C.3       1 CO8802      0.0000 
     55 C6'       195.6420  220.3100  223.8120 C.3       1 CO8802      0.0000 
     56 C7'       196.1110  219.7550  222.4750 C.3       1 CO8802      0.0000 
     57 C8'       197.5670  219.3550  222.5270 C.3       1 CO8802      0.0000 
@<TRIPOS>BOND
     1    1    2 ar   
     2    1    6 ar   
     3    2    3 ar   
     4    3    4 ar   
     5    4    5 ar   
     6    4   10 1    
     7    5    6 ar   
     8    5    8 1    
     9    6    7 1    
    10    8    9 2    
    11    9   10 1    
    12   10   11 1    
    13   11   12 1    
    14   11   21 1    
    15   12   13 1    
    16   12   14 1    
    17   14   15 1    
    18   14   20 1    
    19   15   16 1    
    20   16   17 ar   
    21   16   18 ar   
    22   16   19 ar   
    23   20   21 1    
    24   20   22 1    
    25   22   23 1    
    26   23   24 1    
    27   24   25 ar   
    28   24   26 ar   
    29   24   27 1    
    30   27   28 1    
    31   28   29 ar   
    32   28   30 ar   
    33   28   31 1    
    34   31   33 1    
    35   32   33 1    
    36   32   34 1    
    37   32   35 1    
    38   32   36 1    
    39   36   37 1    
    40   36   38 1    
    41   38   39 2    
    42   38   40 am   
    43   40   41 1    
    44   41   42 1    
    45   42   43 1    
    46   43   44 2    
    47   43   45 am   
    48   45   46 1    
    49   46   47 1    
    50   47   48 1    
    51   48   49 1    
    52   49   50 2    
    53   49   51 1    
    54   51   52 1    
    55   52   53 1    
    56   53   54 1    
    57   54   55 1    
    58   55   56 1    
    59   56   57 1    
@<TRIPOS>SUBSTRUCTURE
     1 CO8802      1 GROUP   
@<TRIPOS>SET

