#    Name: 6jqn_3_CO8
#    Modification time : Fri May 22 19:26:56 2020

@<TRIPOS>MOLECULE
6jqn_3_CO8
   57    59     1     0     0
SMALL
NO_CHARGES


@<TRIPOS>ATOM
      1 N1A       239.5010  195.4310  205.6810 N.ar      1 CO8802      0.0000 
      2 C2A       240.1080  195.9140  206.7790 C.ar      1 CO8802      0.0000 
      3 N3A       240.8610  197.0250  206.7840 N.ar      1 CO8802      0.0000 
      4 C4A       241.0560  197.7340  205.6500 C.ar      1 CO8802      0.0000 
      5 C5A       240.4290  197.2700  204.4080 C.ar      1 CO8802      0.0000 
      6 C6A       239.6100  196.0410  204.4820 C.ar      1 CO8802      0.0000 
      7 N6A       238.9950  195.5460  203.3830 N.pl3     1 CO8802      0.0000 
      8 N7A       240.7770  198.1450  203.4490 N.2       1 CO8802      0.0000 
      9 C8A       241.5640  199.0870  204.0250 C.2       1 CO8802      0.0000 
     10 N9A       241.7270  198.8410  205.3370 N.pl3     1 CO8802      0.0000 
     11 C1B       242.5220  199.6610  206.2790 C.3       1 CO8802      0.0000 
     12 C2B       243.9070  199.0670  206.4240 C.3       1 CO8802      0.0000 
     13 O2B       243.9770  198.3020  207.6280 O.3       1 CO8802      0.0000 
     14 C3B       244.8380  200.2530  206.5090 C.3       1 CO8802      0.0000 
     15 O3B       245.2440  200.4170  207.8610 O.3       1 CO8802      0.0000 
     16 P3B       246.7170  199.9760  208.3290 P.3       1 CO8802      0.0000 
     17 O7A       247.4220  199.3350  207.1590 O.co2     1 CO8802      0.0000 
     18 O8A       247.4650  201.2030  208.7880 O.co2     1 CO8802      0.0000 
     19 O9A       246.5840  198.9900  209.4640 O.co2     1 CO8802      0.0000 
     20 C4B       244.0060  201.4510  206.0770 C.3       1 CO8802      0.0000 
     21 O4B       242.7040  200.9700  205.7440 O.3       1 CO8802      0.0000 
     22 C5B       244.6230  202.1920  204.8960 C.3       1 CO8802      0.0000 
     23 O5B       244.4290  201.4890  203.6730 O.3       1 CO8802      0.0000 
     24 P1A       243.3570  202.0000  202.5870 P.3       1 CO8802      0.0000 
     25 O1A       242.9620  200.8260  201.7270 O.co2     1 CO8802      0.0000 
     26 O2A       242.1450  202.5380  203.3070 O.co2     1 CO8802      0.0000 
     27 O3A       243.9730  203.1420  201.6290 O.3       1 CO8802      0.0000 
     28 P2A       244.3370  204.6320  202.1190 P.3       1 CO8802      0.0000 
     29 O4A       245.6220  204.6190  202.9080 O.co2     1 CO8802      0.0000 
     30 O5A       244.4930  205.5050  200.9000 O.co2     1 CO8802      0.0000 
     31 O6A       243.1520  205.2370  203.0190 O.3       1 CO8802      0.0000 
     32 CBP       241.9270  207.3030  203.1780 C.3       1 CO8802      0.0000 
     33 CCP       243.2110  206.5660  203.5290 C.3       1 CO8802      0.0000 
     34 CDP       241.9740  207.6660  201.7040 C.3       1 CO8802      0.0000 
     35 CEP       241.8190  208.5860  203.9810 C.3       1 CO8802      0.0000 
     36 CAP       240.6730  206.4420  203.3860 C.3       1 CO8802      0.0000 
     37 OAP       240.8750  205.1380  202.8260 O.3       1 CO8802      0.0000 
     38 C9P       240.2150  206.2770  204.8110 C.2       1 CO8802      0.0000 
     39 O9P       240.9560  205.9510  205.7260 O.2       1 CO8802      0.0000 
     40 N8P       238.9180  206.4680  205.0040 N.am      1 CO8802      0.0000 
     41 C7P       238.3910  207.7770  205.2980 C.3       1 CO8802      0.0000 
     42 C6P       238.0200  207.9060  206.7650 C.3       1 CO8802      0.0000 
     43 C5P       236.7520  208.7080  206.8620 C.2       1 CO8802      0.0000 
     44 O5P       236.1120  208.9690  205.8640 O.2       1 CO8802      0.0000 
     45 N4P       236.3760  209.0990  208.0680 N.am      1 CO8802      0.0000 
     46 C3P       235.2910  210.0450  208.2060 C.3       1 CO8802      0.0000 
     47 C2P       235.6250  211.1640  209.1820 C.3       1 CO8802      0.0000 
     48 S1P       237.0690  212.0410  208.6850 S.3       1 CO8802      0.0000 
     49 C1'       237.2670  212.9640  210.0550 C.2       1 CO8802      0.0000 
     50 O1'       236.3440  213.0810  210.8420 O.2       1 CO8802      0.0000 
     51 C2'       238.5820  213.6500  210.3310 C.3       1 CO8802      0.0000 
     52 C3'       238.6620  214.0310  211.8040 C.3       1 CO8802      0.0000 
     53 C4'       240.0740  214.4700  212.1630 C.3       1 CO8802      0.0000 
     54 C5'       240.2930  214.4000  213.6680 C.3       1 CO8802      0.0000 
     55 C6'       240.4540  212.9580  214.1240 C.3       1 CO8802      0.0000 
     56 C7'       239.8410  212.7460  215.5010 C.3       1 CO8802      0.0000 
     57 C8'       238.3400  212.9190  215.4640 C.3       1 CO8802      0.0000 
@<TRIPOS>BOND
     1    1    2 ar   
     2    1    6 ar   
     3    2    3 ar   
     4    3    4 ar   
     5    4    5 ar   
     6    4   10 1    
     7    5    6 ar   
     8    5    8 1    
     9    6    7 1    
    10    8    9 2    
    11    9   10 1    
    12   10   11 1    
    13   11   12 1    
    14   11   21 1    
    15   12   13 1    
    16   12   14 1    
    17   14   15 1    
    18   14   20 1    
    19   15   16 1    
    20   16   17 ar   
    21   16   18 ar   
    22   16   19 ar   
    23   20   21 1    
    24   20   22 1    
    25   22   23 1    
    26   23   24 1    
    27   24   25 ar   
    28   24   26 ar   
    29   24   27 1    
    30   27   28 1    
    31   28   29 ar   
    32   28   30 ar   
    33   28   31 1    
    34   31   33 1    
    35   32   33 1    
    36   32   34 1    
    37   32   35 1    
    38   32   36 1    
    39   36   37 1    
    40   36   38 1    
    41   38   39 2    
    42   38   40 am   
    43   40   41 1    
    44   41   42 1    
    45   42   43 1    
    46   43   44 2    
    47   43   45 am   
    48   45   46 1    
    49   46   47 1    
    50   47   48 1    
    51   48   49 1    
    52   49   50 2    
    53   49   51 1    
    54   51   52 1    
    55   52   53 1    
    56   53   54 1    
    57   54   55 1    
    58   55   56 1    
    59   56   57 1    
@<TRIPOS>SUBSTRUCTURE
     1 CO8802      1 GROUP   
@<TRIPOS>SET

