#    Name: 6jqn_5_CO8_CAVITY_N1_12
#    Modification time : Fri May 22 19:27:42 2020

@<TRIPOS>MOLECULE
6jqn_5_CO8_CAVITY_N1_12
   76     0     5     0     0
SMALL
NO_CHARGES


@<TRIPOS>ATOM
      1 OG        204.1500  206.0900  209.4000 O.3       1 SER1        0.0000 
      2 N         196.1900  204.9000  202.3300 N.am      2 ALA2        0.0000 
      3 N         195.3800  205.4500  203.4600 N.am      2 ALA2        0.0000 
      4 N         194.5700  206.0000  204.6000 N.am      2 ALA2        0.0000 
      5 N         196.0800  204.5300  204.4200 N.am      2 ALA2        0.0000 
      6 N         195.2800  205.0800  205.5500 N.am      2 ALA2        0.0000 
      7 N         197.2300  205.9400  202.5600 N.am      2 ALA2        0.0000 
      8 N         197.9400  205.0200  203.5200 N.am      2 ALA2        0.0000 
      9 N         197.1300  205.5800  204.6500 N.am      2 ALA2        0.0000 
     10 N         197.8400  204.6600  205.6000 N.am      2 ALA2        0.0000 
     11 N         197.0300  205.2100  206.7400 N.am      2 ALA2        0.0000 
     12 N         198.1800  206.6200  204.8900 N.am      2 ALA2        0.0000 
     13 N         198.8900  205.7000  205.8400 N.am      2 ALA2        0.0000 
     14 N         198.0800  206.2600  206.9700 N.am      2 ALA2        0.0000 
     15 O         199.2300  207.6700  205.1200 O.2       2 ALA2        0.0000 
     16 N         198.4200  208.2200  206.2600 N.am      2 ALA2        0.0000 
     17 O         199.8300  206.3800  208.1600 O.2       2 ALA2        0.0000 
     18 O         201.3500  204.9100  207.9700 O.2       2 ALA2        0.0000 
     19 N         199.4700  209.2700  206.4900 N.am      2 ALA2        0.0000 
     20 N         200.5100  210.3200  206.7300 N.am      2 ALA2        0.0000 
     21 N         199.7100  210.8700  207.8600 N.am      2 ALA2        0.0000 
     22 N         202.7400  207.9300  207.4900 N.am      2 ALA2        0.0000 
     23 O         201.9300  208.4800  208.6300 O.2       2 ALA2        0.0000 
     24 O         202.6300  207.5600  209.5800 O.2       2 ALA2        0.0000 
     25 O         201.5600  211.3700  206.9600 O.2       2 ALA2        0.0000 
     26 N         202.2700  210.4500  207.9100 N.am      2 ALA2        0.0000 
     27 CZ        193.9900  202.4300  203.9500 C.ar      3 PHE5        0.0000 
     28 CZ        195.0400  203.4800  204.1800 C.ar      3 PHE5        0.0000 
     29 CZ        194.2300  204.0300  205.3200 C.ar      3 PHE5        0.0000 
     30 CZ        195.7400  202.5600  205.1300 C.ar      3 PHE5        0.0000 
     31 CZ        196.4500  201.6400  206.0800 C.ar      3 PHE5        0.0000 
     32 CZ        196.7900  203.6100  205.3700 C.ar      3 PHE5        0.0000 
     33 CZ        195.9800  204.1600  206.5000 C.ar      3 PHE5        0.0000 
     34 CZ        198.7500  204.4700  202.3800 C.ar      3 PHE5        0.0000 
     35 CZ        199.4600  203.5500  203.3300 C.ar      3 PHE5        0.0000 
     36 CZ        199.8000  205.5200  202.6100 C.ar      3 PHE5        0.0000 
     37 CZ        198.9900  206.0700  203.7500 C.ar      3 PHE5        0.0000 
     38 CZ        199.6900  205.1500  204.7000 C.ar      3 PHE5        0.0000 
     39 CZ        200.0400  207.1200  203.9900 C.ar      3 PHE5        0.0000 
     40 CZ        199.9300  206.7500  206.0700 C.ar      3 PHE5        0.0000 
     41 CZ        200.6400  205.8300  207.0200 C.ar      3 PHE5        0.0000 
     42 CZ        201.6900  206.8800  207.2600 C.ar      3 PHE5        0.0000 
     43 CZ        200.0700  207.9900  209.5300 C.ar      3 PHE5        0.0000 
     44 CZ        203.2000  205.4100  207.0700 C.ar      3 PHE5        0.0000 
     45 CZ        203.9100  204.4900  208.0200 C.ar      3 PHE5        0.0000 
     46 CZ        200.4100  209.9500  208.8100 C.ar      3 PHE5        0.0000 
     47 CZ        203.4400  207.0100  208.4400 C.ar      3 PHE5        0.0000 
     48 CA        196.5500  202.0100  204.0000 C.3       4 GLY6        0.0000 
     49 CA        198.4100  202.5000  203.1000 C.3       4 GLY6        0.0000 
     50 CA        197.6000  203.0600  204.2300 C.3       4 GLY6        0.0000 
     51 CA        199.1100  201.5800  204.0500 C.3       4 GLY6        0.0000 
     52 CA        198.3100  202.1400  205.1800 C.3       4 GLY6        0.0000 
     53 CA        197.5000  202.6900  206.3200 C.3       4 GLY6        0.0000 
     54 CA        198.6500  204.1000  204.4700 C.3       4 GLY6        0.0000 
     55 CA        198.5400  203.7400  206.5500 C.3       4 GLY6        0.0000 
     56 CA        199.0900  206.4400  201.6600 C.3       4 GLY6        0.0000 
     57 CA        198.2800  206.9900  202.8000 C.3       4 GLY6        0.0000 
     58 CA        200.4000  204.2300  205.6500 C.3       4 GLY6        0.0000 
     59 CA        199.5900  204.7800  206.7900 C.3       4 GLY6        0.0000 
     60 CA        199.1300  207.3000  207.2100 C.3       4 GLY6        0.0000 
     61 CA        200.9800  207.8000  206.3100 C.3       4 GLY6        0.0000 
     62 CA        200.1700  208.3500  207.4400 C.3       4 GLY6        0.0000 
     63 CA        200.8800  207.4300  208.3900 C.3       4 GLY6        0.0000 
     64 CA        202.3900  205.9600  208.2100 C.3       4 GLY6        0.0000 
     65 CA        201.5900  206.5100  209.3500 C.3       4 GLY6        0.0000 
     66 CA        202.0300  208.8500  206.5400 C.3       4 GLY6        0.0000 
     67 CA        203.5400  207.3700  206.3600 C.3       4 GLY6        0.0000 
     68 CA        201.1200  209.0300  209.7700 C.3       4 GLY6        0.0000 
     69 CA        204.2500  206.4500  207.3100 C.3       4 GLY6        0.0000 
     70 CA        203.3400  206.6400  210.5300 C.3       4 GLY6        0.0000 
     71 CA        200.7500  211.9200  208.1000 C.3       4 GLY6        0.0000 
     72 CA        201.4600  211.0000  209.0500 C.3       4 GLY6        0.0000 
     73 DU        195.8500  202.9300  203.0400 H         5 CUB7        0.0000 
     74 DU        197.7000  203.4200  202.1400 H         5 CUB7        0.0000 
     75 DU        196.8900  203.9800  203.2800 H         5 CUB7        0.0000 
     76 DU        201.2200  209.4000  207.6800 H         5 CUB7        0.0000 
@<TRIPOS>BOND
@<TRIPOS>SUBSTRUCTURE
     1 SER1        1 GROUP   
     2 ALA2        2 GROUP   
     3 PHE5       27 GROUP   
     4 GLY6       48 GROUP   
     5 CUB7       73 GROUP   
@<TRIPOS>SET

