#    Name: 6jqn_9_NAP
#    Modification time : Fri May 22 19:28:29 2020

@<TRIPOS>MOLECULE
6jqn_9_NAP
   48    52     1     0     1
SMALL
NO_CHARGES


@<TRIPOS>ATOM
      1 PA        277.0820  174.9450  236.4750 P.3       1 NAP801      0.0000 
      2 O1A       277.8710  175.0360  235.1970 O.co2     1 NAP801      0.0000 
      3 O2A       277.9760  174.5060  237.6060 O.co2     1 NAP801      0.0000 
      4 O5B       275.9070  173.8660  236.2920 O.3       1 NAP801      0.0000 
      5 C5B       274.5320  174.2190  236.4070 C.3       1 NAP801      0.0000 
      6 C4B       273.6720  172.9640  236.3200 C.3       1 NAP801      0.0000 
      7 O4B       274.1880  172.0850  235.3180 O.3       1 NAP801      0.0000 
      8 C3B       273.6780  172.1800  237.6170 C.3       1 NAP801      0.0000 
      9 O3B       272.3720  171.6570  237.8400 O.3       1 NAP801      0.0000 
     10 C2B       274.6260  171.0390  237.3430 C.3       1 NAP801      0.0000 
     11 O2B       274.3430  169.9130  238.1600 O.3       1 NAP801      0.0000 
     12 C1B       274.3750  170.7840  235.8720 C.3       1 NAP801      0.0000 
     13 N9A       275.5270  170.1280  235.2210 N.pl3     1 NAP801      0.0000 
     14 C8A       276.8280  170.3860  235.4360 C.2       1 NAP801      0.0000 
     15 N7A       277.6100  169.5980  234.6560 N.2       1 NAP801      0.0000 
     16 C5A       276.7950  168.8150  233.9260 C.ar      1 NAP801      0.0000 
     17 C6A       276.9550  167.7570  232.9060 C.ar      1 NAP801      0.0000 
     18 N6A       278.1850  167.3630  232.4970 N.pl3     1 NAP801      0.0000 
     19 N1A       275.8350  167.1990  232.3980 N.ar      1 NAP801      0.0000 
     20 C2A       274.6080  167.5780  232.7940 C.ar      1 NAP801      0.0000 
     21 N3A       274.3910  168.5310  233.7120 N.ar      1 NAP801      0.0000 
     22 C4A       275.4240  169.1730  234.3020 C.ar      1 NAP801      0.0000 
     23 O3        276.4730  176.3880  236.8180 O.3       1 NAP801      0.0000 
     24 PN        276.3880  176.8650  238.3480 P.3       1 NAP801      0.0000 
     25 O1N       275.7350  175.7670  239.1450 O.co2     1 NAP801      0.0000 
     26 O2N       277.7820  177.1430  238.8500 O.co2     1 NAP801      0.0000 
     27 O5D       275.5100  178.2050  238.4760 O.3       1 NAP801      0.0000 
     28 C5D       276.1270  179.4860  238.5600 C.3       1 NAP801      0.0000 
     29 C4D       276.2340  180.1370  237.1950 C.3       1 NAP801      0.0000 
     30 O4D       274.9340  180.2200  236.6130 O.3       1 NAP801      0.0000 
     31 C3D       276.7480  181.5570  237.3220 C.3       1 NAP801      0.0000 
     32 O3D       277.8490  181.7360  236.4320 O.3       1 NAP801      0.0000 
     33 C2D       275.5910  182.4290  236.8910 C.3       1 NAP801      0.0000 
     34 O2D       276.0610  183.5370  236.1250 O.3       1 NAP801      0.0000 
     35 C1D       274.7320  181.5120  236.0510 C.3       1 NAP801      0.0000 
     36 N1N       273.3260  181.8950  236.1380 N.pl3     1 NAP801      0.0000 
     37 C2N       272.7120  182.3320  235.0400 C.ar      1 NAP801      0.0000 
     38 C3N       271.3790  182.6990  235.0670 C.ar      1 NAP801      0.0000 
     39 C7N       270.7360  183.1950  233.8180 C.2       1 NAP801      0.0000 
     40 O7N       271.4460  183.6660  232.9510 O.2       1 NAP801      0.0000 
     41 N7N       269.4160  183.1070  233.6940 N.am      1 NAP801      0.0000 
     42 C4N       270.6460  182.6340  236.2390 C.ar      1 NAP801      0.0000 
     43 C5N       271.2430  182.1880  237.4040 C.ar      1 NAP801      0.0000 
     44 C6N       272.6390  181.7810  237.4240 C.ar      1 NAP801      0.0000 
     45 P2B       275.2340  169.6860  239.4760 P.3       1 NAP801      0.0000 
     46 O1X       274.5750  170.4000  240.6280 O.co2     1 NAP801      0.0000 
     47 O2X       275.3290  168.2070  239.7470 O.co2     1 NAP801      0.0000 
     48 O3X       276.6110  170.2520  239.2350 O.co2     1 NAP801      0.0000 
@<TRIPOS>BOND
     1    1    2 ar   
     2    1    3 ar   
     3    1    4 1    
     4    1   23 1    
     5    4    5 1    
     6    5    6 1    
     7    6    7 1    
     8    6    8 1    
     9    7   12 1    
    10    8    9 1    
    11    8   10 1    
    12   10   11 1    
    13   10   12 1    
    14   11   45 1    
    15   12   13 1    
    16   13   14 1    
    17   13   22 1    
    18   14   15 2    
    19   15   16 1    
    20   16   17 ar   
    21   16   22 ar   
    22   17   18 1    
    23   17   19 ar   
    24   19   20 ar   
    25   20   21 ar   
    26   21   22 ar   
    27   23   24 1    
    28   24   25 ar   
    29   24   26 ar   
    30   24   27 1    
    31   27   28 1    
    32   28   29 1    
    33   29   30 1    
    34   29   31 1    
    35   30   35 1    
    36   31   32 1    
    37   31   33 1    
    38   33   34 1    
    39   33   35 1    
    40   35   36 1    
    41   36   37 ar   
    42   36   44 ar   
    43   37   38 ar   
    44   38   39 1    
    45   38   42 ar   
    46   39   40 2    
    47   39   41 am   
    48   42   43 ar   
    49   43   44 ar   
    50   45   46 ar   
    51   45   47 ar   
    52   45   48 ar   
@<TRIPOS>SUBSTRUCTURE
     1 NAP801      1 GROUP   
@<TRIPOS>SET
ATOM$ORANGE STATIC     ATOMS   COLORGROUP SYSTEM 
42 5 5 6 6 8 8 10 10 12 12 14 14 16 16 17 17 20 \
20 22 22 28 28 29 29 31 31 33 33 35 35 37 37 38 38 39 \
39 42 42 43 43 44 44 

