#    Name: 6jqn_2_CO8
#    Modification time : Fri May 22 19:26:35 2020

@<TRIPOS>MOLECULE
6jqn_2_CO8
   57    59     1     0     0
SMALL
NO_CHARGES


@<TRIPOS>ATOM
      1 N1A       226.3170  247.6060  203.0500 N.ar      1 CO8802      0.0000 
      2 C2A       224.9860  247.8040  203.0590 C.ar      1 CO8802      0.0000 
      3 N3A       224.2970  248.1940  204.1440 N.ar      1 CO8802      0.0000 
      4 C4A       224.9290  248.4150  205.3190 C.ar      1 CO8802      0.0000 
      5 C5A       226.3840  248.2230  205.3910 C.ar      1 CO8802      0.0000 
      6 C6A       227.0700  247.7910  204.1550 C.ar      1 CO8802      0.0000 
      7 N6A       228.4090  247.5880  204.1350 N.pl3     1 CO8802      0.0000 
      8 N7A       226.7540  248.5040  206.6500 N.2       1 CO8802      0.0000 
      9 C8A       225.6330  248.8500  207.3270 C.2       1 CO8802      0.0000 
     10 N9A       224.5470  248.7990  206.5350 N.pl3     1 CO8802      0.0000 
     11 C1B       223.1650  249.1170  206.9710 C.3       1 CO8802      0.0000 
     12 C2B       222.6220  250.3520  206.2830 C.3       1 CO8802      0.0000 
     13 O2B       223.1790  251.5330  206.8620 O.3       1 CO8802      0.0000 
     14 C3B       221.1440  250.2270  206.5660 C.3       1 CO8802      0.0000 
     15 O3B       220.8960  250.7270  207.8730 O.3       1 CO8802      0.0000 
     16 P3B       220.2820  252.1900  208.1340 P.3       1 CO8802      0.0000 
     17 O7A       221.2090  252.9240  209.0710 O.co2     1 CO8802      0.0000 
     18 O8A       220.1800  252.9160  206.8150 O.co2     1 CO8802      0.0000 
     19 O9A       218.9230  252.0490  208.7710 O.co2     1 CO8802      0.0000 
     20 C4B       220.9190  248.7220  206.6140 C.3       1 CO8802      0.0000 
     21 O4B       222.2150  248.1100  206.6250 O.3       1 CO8802      0.0000 
     22 C5B       220.0690  248.2010  205.4610 C.3       1 CO8802      0.0000 
     23 O5B       220.5620  248.6510  204.2020 O.3       1 CO8802      0.0000 
     24 P1A       219.8240  248.1750  202.8530 P.3       1 CO8802      0.0000 
     25 O1A       220.4020  248.9210  201.6750 O.co2     1 CO8802      0.0000 
     26 O2A       220.0040  246.6880  202.6760 O.co2     1 CO8802      0.0000 
     27 O3A       218.2560  248.5100  202.9650 O.3       1 CO8802      0.0000 
     28 P2A       217.1630  247.5420  202.2940 P.3       1 CO8802      0.0000 
     29 O4A       215.8370  248.2580  202.2520 O.co2     1 CO8802      0.0000 
     30 O5A       217.6120  247.1760  200.9020 O.co2     1 CO8802      0.0000 
     31 O6A       216.9940  246.1950  203.1570 O.3       1 CO8802      0.0000 
     32 CBP       215.9410  244.0700  203.7030 C.3       1 CO8802      0.0000 
     33 CCP       216.1620  245.1510  202.6570 C.3       1 CO8802      0.0000 
     34 CDP       214.6210  243.3800  203.4100 C.3       1 CO8802      0.0000 
     35 CEP       215.8620  244.6900  205.0880 C.3       1 CO8802      0.0000 
     36 CAP       217.0440  243.0080  203.6340 C.3       1 CO8802      0.0000 
     37 OAP       217.4430  242.8170  202.2720 O.3       1 CO8802      0.0000 
     38 C9P       218.2580  243.3480  204.4530 C.2       1 CO8802      0.0000 
     39 O9P       218.9620  244.3020  204.1630 O.2       1 CO8802      0.0000 
     40 N8P       218.5420  242.5560  205.4860 N.am      1 CO8802      0.0000 
     41 C7P       218.2410  241.1390  205.5330 C.3       1 CO8802      0.0000 
     42 C6P       217.3100  240.8250  206.6940 C.3       1 CO8802      0.0000 
     43 C5P       217.4870  239.3940  207.1290 C.2       1 CO8802      0.0000 
     44 O5P       218.2670  238.6580  206.5560 O.2       1 CO8802      0.0000 
     45 N4P       216.7510  239.0070  208.1610 N.am      1 CO8802      0.0000 
     46 C3P       216.7930  237.6510  208.6610 C.3       1 CO8802      0.0000 
     47 C2P       215.5740  236.8660  208.1970 C.3       1 CO8802      0.0000 
     48 S1P       214.1220  237.8550  208.3350 S.3       1 CO8802      0.0000 
     49 C1'       213.6370  237.4850  209.8830 C.2       1 CO8802      0.0000 
     50 O1'       214.2350  236.6400  210.5260 O.2       1 CO8802      0.0000 
     51 C2'       212.4490  238.2010  210.4780 C.3       1 CO8802      0.0000 
     52 C3'       212.1010  237.6140  211.8410 C.3       1 CO8802      0.0000 
     53 C4'       210.8550  238.2870  212.3980 C.3       1 CO8802      0.0000 
     54 C5'       211.1550  239.7110  212.8400 C.3       1 CO8802      0.0000 
     55 C6'       211.0570  239.8520  214.3540 C.3       1 CO8802      0.0000 
     56 C7'       212.4250  239.9870  215.0140 C.3       1 CO8802      0.0000 
     57 C8'       213.0100  238.6490  215.4090 C.3       1 CO8802      0.0000 
@<TRIPOS>BOND
     1    1    2 ar   
     2    1    6 ar   
     3    2    3 ar   
     4    3    4 ar   
     5    4    5 ar   
     6    4   10 1    
     7    5    6 ar   
     8    5    8 1    
     9    6    7 1    
    10    8    9 2    
    11    9   10 1    
    12   10   11 1    
    13   11   12 1    
    14   11   21 1    
    15   12   13 1    
    16   12   14 1    
    17   14   15 1    
    18   14   20 1    
    19   15   16 1    
    20   16   17 ar   
    21   16   18 ar   
    22   16   19 ar   
    23   20   21 1    
    24   20   22 1    
    25   22   23 1    
    26   23   24 1    
    27   24   25 ar   
    28   24   26 ar   
    29   24   27 1    
    30   27   28 1    
    31   28   29 ar   
    32   28   30 ar   
    33   28   31 1    
    34   31   33 1    
    35   32   33 1    
    36   32   34 1    
    37   32   35 1    
    38   32   36 1    
    39   36   37 1    
    40   36   38 1    
    41   38   39 2    
    42   38   40 am   
    43   40   41 1    
    44   41   42 1    
    45   42   43 1    
    46   43   44 2    
    47   43   45 am   
    48   45   46 1    
    49   46   47 1    
    50   47   48 1    
    51   48   49 1    
    52   49   50 2    
    53   49   51 1    
    54   51   52 1    
    55   52   53 1    
    56   53   54 1    
    57   54   55 1    
    58   55   56 1    
    59   56   57 1    
@<TRIPOS>SUBSTRUCTURE
     1 CO8802      1 GROUP   
@<TRIPOS>SET

