#    Name: 6jqn_4_CO8
#    Modification time : Fri May 22 19:27:19 2020

@<TRIPOS>MOLECULE
6jqn_4_CO8
   57    59     1     0     0
SMALL
NO_CHARGES


@<TRIPOS>ATOM
      1 N1A       245.2540  202.2490  232.1610 N.ar      1 CO8802      0.0000 
      2 C2A       244.9480  201.5080  231.0820 C.ar      1 CO8802      0.0000 
      3 N3A       244.0260  200.5350  231.0870 N.ar      1 CO8802      0.0000 
      4 C4A       243.3410  200.2440  232.2130 C.ar      1 CO8802      0.0000 
      5 C5A       243.6170  201.0040  233.4370 C.ar      1 CO8802      0.0000 
      6 C6A       244.6460  202.0630  233.3510 C.ar      1 CO8802      0.0000 
      7 N6A       244.9670  202.8200  234.4260 N.pl3     1 CO8802      0.0000 
      8 N7A       242.8010  200.5100  234.3850 N.2       1 CO8802      0.0000 
      9 C8A       242.0690  199.5170  233.8170 C.2       1 CO8802      0.0000 
     10 N9A       242.3960  199.3620  232.5230 N.pl3     1 CO8802      0.0000 
     11 C1B       241.8140  198.3870  231.5760 C.3       1 CO8802      0.0000 
     12 C2B       242.5180  197.0520  231.6900 C.3       1 CO8802      0.0000 
     13 O2B       243.6050  196.9970  230.7640 O.3       1 CO8802      0.0000 
     14 C3B       241.4480  196.0600  231.3030 C.3       1 CO8802      0.0000 
     15 O3B       241.4840  195.8830  229.8950 O.3       1 CO8802      0.0000 
     16 P3B       242.0560  194.5310  229.2410 P.3       1 CO8802      0.0000 
     17 O7A       241.5980  194.4510  227.8050 O.co2     1 CO8802      0.0000 
     18 O8A       243.5620  194.5780  229.2890 O.co2     1 CO8802      0.0000 
     19 O9A       241.5430  193.3580  230.0370 O.co2     1 CO8802      0.0000 
     20 C4B       240.1460  196.7600  231.6540 C.3       1 CO8802      0.0000 
     21 O4B       240.4470  198.1350  231.8940 O.3       1 CO8802      0.0000 
     22 C5B       239.4970  196.1840  232.9000 C.3       1 CO8802      0.0000 
     23 O5B       240.1230  196.7420  234.0520 O.3       1 CO8802      0.0000 
     24 P1A       239.2470  196.9700  235.3770 P.3       1 CO8802      0.0000 
     25 O1A       240.1490  196.9540  236.5850 O.co2     1 CO8802      0.0000 
     26 O2A       238.5160  198.2860  235.2770 O.co2     1 CO8802      0.0000 
     27 O3A       238.1880  195.7680  235.4850 O.3       1 CO8802      0.0000 
     28 P2A       236.9360  195.8640  236.4850 P.3       1 CO8802      0.0000 
     29 O4A       236.4140  194.4760  236.7530 O.co2     1 CO8802      0.0000 
     30 O5A       237.3810  196.5260  237.7650 O.co2     1 CO8802      0.0000 
     31 O6A       235.7660  196.7400  235.8190 O.3       1 CO8802      0.0000 
     32 CBP       233.9950  197.2350  234.2710 C.3       1 CO8802      0.0000 
     33 CCP       235.2210  196.3800  234.5540 C.3       1 CO8802      0.0000 
     34 CDP       232.8410  196.7210  235.1140 C.3       1 CO8802      0.0000 
     35 CEP       233.6310  197.1280  232.8010 C.3       1 CO8802      0.0000 
     36 CAP       234.1980  198.7100  234.6370 C.3       1 CO8802      0.0000 
     37 OAP       234.7500  198.8180  235.9530 O.3       1 CO8802      0.0000 
     38 C9P       235.0710  199.4740  233.6750 C.2       1 CO8802      0.0000 
     39 O9P       236.2710  199.2650  233.6210 O.2       1 CO8802      0.0000 
     40 N8P       234.5050  200.4060  232.9050 N.am      1 CO8802      0.0000 
     41 C7P       233.1600  200.9120  233.0780 C.3       1 CO8802      0.0000 
     42 C6P       232.2890  200.5290  231.8930 C.3       1 CO8802      0.0000 
     43 C5P       231.9100  201.7640  231.1200 C.2       1 CO8802      0.0000 
     44 O5P       232.3040  202.8610  231.4630 O.2       1 CO8802      0.0000 
     45 N4P       231.1260  201.5800  230.0670 N.am      1 CO8802      0.0000 
     46 C3P       230.7080  202.6940  229.2450 C.3       1 CO8802      0.0000 
     47 C2P       229.3450  203.2190  229.6770 C.3       1 CO8802      0.0000 
     48 S1P       228.2640  201.8690  230.0160 S.3       1 CO8802      0.0000 
     49 C1'       227.7810  201.4640  228.4790 C.2       1 CO8802      0.0000 
     50 O1'       227.8940  202.2710  227.5720 O.2       1 CO8802      0.0000 
     51 C2'       227.1940  200.1000  228.2180 C.3       1 CO8802      0.0000 
     52 C3'       226.6960  200.0240  226.7800 C.3       1 CO8802      0.0000 
     53 C4'       226.8180  198.6070  226.2360 C.3       1 CO8802      0.0000 
     54 C5'       226.1250  198.4810  224.8880 C.3       1 CO8802      0.0000 
     55 C6'       226.8060  197.4290  224.0250 C.3       1 CO8802      0.0000 
     56 C7'       228.1200  197.9580  223.4670 C.3       1 CO8802      0.0000 
     57 C8'       227.9080  199.1750  222.5930 C.3       1 CO8802      0.0000 
@<TRIPOS>BOND
     1    1    2 ar   
     2    1    6 ar   
     3    2    3 ar   
     4    3    4 ar   
     5    4    5 ar   
     6    4   10 1    
     7    5    6 ar   
     8    5    8 1    
     9    6    7 1    
    10    8    9 2    
    11    9   10 1    
    12   10   11 1    
    13   11   12 1    
    14   11   21 1    
    15   12   13 1    
    16   12   14 1    
    17   14   15 1    
    18   14   20 1    
    19   15   16 1    
    20   16   17 ar   
    21   16   18 ar   
    22   16   19 ar   
    23   20   21 1    
    24   20   22 1    
    25   22   23 1    
    26   23   24 1    
    27   24   25 ar   
    28   24   26 ar   
    29   24   27 1    
    30   27   28 1    
    31   28   29 ar   
    32   28   30 ar   
    33   28   31 1    
    34   31   33 1    
    35   32   33 1    
    36   32   34 1    
    37   32   35 1    
    38   32   36 1    
    39   36   37 1    
    40   36   38 1    
    41   38   39 2    
    42   38   40 am   
    43   40   41 1    
    44   41   42 1    
    45   42   43 1    
    46   43   44 2    
    47   43   45 am   
    48   45   46 1    
    49   46   47 1    
    50   47   48 1    
    51   48   49 1    
    52   49   50 2    
    53   49   51 1    
    54   51   52 1    
    55   52   53 1    
    56   53   54 1    
    57   54   55 1    
    58   55   56 1    
    59   56   57 1    
@<TRIPOS>SUBSTRUCTURE
     1 CO8802      1 GROUP   
@<TRIPOS>SET

