#    Name: 6jqn_7_NAP
#    Modification time : Fri May 22 19:28:09 2020

@<TRIPOS>MOLECULE
6jqn_7_NAP
   48    52     1     0     1
SMALL
NO_CHARGES


@<TRIPOS>ATOM
      1 PA        233.4430  289.5760  201.3920 P.3       1 NAP801      0.0000 
      2 O1A       234.2740  290.2230  202.4690 O.co2     1 NAP801      0.0000 
      3 O2A       233.4550  290.4200  200.1440 O.co2     1 NAP801      0.0000 
      4 O5B       231.9310  289.4480  201.9130 O.3       1 NAP801      0.0000 
      5 C5B       231.1100  288.3620  201.5060 C.3       1 NAP801      0.0000 
      6 C4B       229.6460  288.7580  201.6200 C.3       1 NAP801      0.0000 
      7 O4B       229.4630  289.7270  202.6550 O.3       1 NAP801      0.0000 
      8 C3B       229.1470  289.3920  200.3400 C.3       1 NAP801      0.0000 
      9 O3B       227.8060  288.9690  200.1090 O.3       1 NAP801      0.0000 
     10 C2B       229.1550  290.8620  200.6650 C.3       1 NAP801      0.0000 
     11 O2B       228.2350  291.5820  199.8610 O.3       1 NAP801      0.0000 
     12 C1B       228.7730  290.8600  202.1270 C.3       1 NAP801      0.0000 
     13 N9A       229.2350  292.0970  202.7850 N.pl3     1 NAP801      0.0000 
     14 C8A       230.3970  292.7240  202.5470 C.2       1 NAP801      0.0000 
     15 N7A       230.5190  293.8300  203.3230 N.2       1 NAP801      0.0000 
     16 C5A       229.4110  293.9140  204.0790 C.ar      1 NAP801      0.0000 
     17 C6A       228.8950  294.8360  205.1130 C.ar      1 NAP801      0.0000 
     18 N6A       229.6100  295.9190  205.5030 N.pl3     1 NAP801      0.0000 
     19 N1A       227.6880  294.5620  205.6510 N.ar      1 NAP801      0.0000 
     20 C2A       226.9670  293.4920  205.2710 C.ar      1 NAP801      0.0000 
     21 N3A       227.3770  292.6140  204.3410 N.ar      1 NAP801      0.0000 
     22 C4A       228.5680  292.7680  203.7200 C.ar      1 NAP801      0.0000 
     23 O3        234.0590  288.1290  201.0660 O.3       1 NAP801      0.0000 
     24 PN        234.2770  287.6740  199.5400 P.3       1 NAP801      0.0000 
     25 O1N       232.9780  287.8470  198.8010 O.co2     1 NAP801      0.0000 
     26 O2N       235.3550  288.5270  198.9210 O.co2     1 NAP801      0.0000 
     27 O5D       234.7090  286.1280  199.4540 O.3       1 NAP801      0.0000 
     28 C5D       236.0730  285.7220  199.4970 C.3       1 NAP801      0.0000 
     29 C4D       236.4700  285.2650  200.8910 C.3       1 NAP801      0.0000 
     30 O4D       235.5230  284.3310  201.4120 O.3       1 NAP801      0.0000 
     31 C3D       237.8040  284.5440  200.8470 C.3       1 NAP801      0.0000 
     32 O3D       238.7000  285.1570  201.7710 O.3       1 NAP801      0.0000 
     33 C2D       237.4950  283.1320  201.2850 C.3       1 NAP801      0.0000 
     34 O2D       238.5500  282.6220  202.0950 O.3       1 NAP801      0.0000 
     35 C1D       236.2170  283.2790  202.0780 C.3       1 NAP801      0.0000 
     36 N1N       235.4440  282.0420  202.0500 N.pl3     1 NAP801      0.0000 
     37 C2N       235.3260  281.3230  203.1650 C.ar      1 NAP801      0.0000 
     38 C3N       234.5970  280.1450  203.1760 C.ar      1 NAP801      0.0000 
     39 C7N       234.4940  279.3590  204.4380 C.2       1 NAP801      0.0000 
     40 O7N       235.2880  279.5920  205.3290 O.2       1 NAP801      0.0000 
     41 N7N       233.5500  278.4300  204.5370 N.am      1 NAP801      0.0000 
     42 C4N       233.9790  279.6800  202.0300 C.ar      1 NAP801      0.0000 
     43 C5N       234.0780  280.3940  200.8510 C.ar      1 NAP801      0.0000 
     44 C6N       234.8260  281.6390  200.7900 C.ar      1 NAP801      0.0000 
     45 P2B       228.8330  292.5080  198.6960 P.3       1 NAP801      0.0000 
     46 O1X       228.9710  291.6670  197.4530 O.co2     1 NAP801      0.0000 
     47 O2X       227.8950  293.6650  198.4630 O.co2     1 NAP801      0.0000 
     48 O3X       230.1820  293.0130  199.1410 O.co2     1 NAP801      0.0000 
@<TRIPOS>BOND
     1    1    2 ar   
     2    1    3 ar   
     3    1    4 1    
     4    1   23 1    
     5    4    5 1    
     6    5    6 1    
     7    6    7 1    
     8    6    8 1    
     9    7   12 1    
    10    8    9 1    
    11    8   10 1    
    12   10   11 1    
    13   10   12 1    
    14   11   45 1    
    15   12   13 1    
    16   13   14 1    
    17   13   22 1    
    18   14   15 2    
    19   15   16 1    
    20   16   17 ar   
    21   16   22 ar   
    22   17   18 1    
    23   17   19 ar   
    24   19   20 ar   
    25   20   21 ar   
    26   21   22 ar   
    27   23   24 1    
    28   24   25 ar   
    29   24   26 ar   
    30   24   27 1    
    31   27   28 1    
    32   28   29 1    
    33   29   30 1    
    34   29   31 1    
    35   30   35 1    
    36   31   32 1    
    37   31   33 1    
    38   33   34 1    
    39   33   35 1    
    40   35   36 1    
    41   36   37 ar   
    42   36   44 ar   
    43   37   38 ar   
    44   38   39 1    
    45   38   42 ar   
    46   39   40 2    
    47   39   41 am   
    48   42   43 ar   
    49   43   44 ar   
    50   45   46 ar   
    51   45   47 ar   
    52   45   48 ar   
@<TRIPOS>SUBSTRUCTURE
     1 NAP801      1 GROUP   
@<TRIPOS>SET
ATOM$ORANGE STATIC     ATOMS   COLORGROUP SYSTEM 
42 5 5 6 6 8 8 10 10 12 12 14 14 16 16 17 17 20 \
20 22 22 28 28 29 29 31 31 33 33 35 35 37 37 38 38 39 \
39 42 42 43 43 44 44 

