#    Name: 6jqn_12_NAP
#    Modification time : Fri May 22 19:28:59 2020

@<TRIPOS>MOLECULE
6jqn_12_NAP
   48    52     1     0     1
SMALL
NO_CHARGES


@<TRIPOS>ATOM
      1 PA        149.0890  196.0280  201.4610 P.3       1 NAP801      0.0000 
      2 O1A       148.5970  196.1630  202.8770 O.co2     1 NAP801      0.0000 
      3 O2A       147.9240  195.9880  200.5070 O.co2     1 NAP801      0.0000 
      4 O5B       149.9240  194.6680  201.3060 O.3       1 NAP801      0.0000 
      5 C5B       151.0610  194.4140  202.1250 C.3       1 NAP801      0.0000 
      6 C4B       151.5950  192.9970  201.9410 C.3       1 NAP801      0.0000 
      7 O4B       150.9740  192.1100  202.8720 O.3       1 NAP801      0.0000 
      8 C3B       151.3130  192.4380  200.5650 C.3       1 NAP801      0.0000 
      9 O3B       152.4740  191.7350  200.1360 O.3       1 NAP801      0.0000 
     10 C2B       150.1820  191.4600  200.7760 C.3       1 NAP801      0.0000 
     11 O2B       150.2660  190.3760  199.8640 O.3       1 NAP801      0.0000 
     12 C1B       150.3550  191.0110  202.2090 C.3       1 NAP801      0.0000 
     13 N9A       149.0420  190.7990  202.8490 N.pl3     1 NAP801      0.0000 
     14 C8A       147.9290  191.5060  202.6010 C.2       1 NAP801      0.0000 
     15 N7A       146.8980  191.0700  203.3670 N.2       1 NAP801      0.0000 
     16 C5A       147.3610  190.0650  204.1290 C.ar      1 NAP801      0.0000 
     17 C6A       146.8020  189.1620  205.1570 C.ar      1 NAP801      0.0000 
     18 N6A       145.5040  189.2530  205.5330 N.pl3     1 NAP801      0.0000 
     19 N1A       147.6300  188.2470  205.7050 N.ar      1 NAP801      0.0000 
     20 C2A       148.9200  188.1440  205.3370 C.ar      1 NAP801      0.0000 
     21 N3A       149.4910  188.9320  204.4130 N.ar      1 NAP801      0.0000 
     22 C4A       148.7760  189.8920  203.7840 C.ar      1 NAP801      0.0000 
     23 O3        150.0220  197.2780  201.0920 O.3       1 NAP801      0.0000 
     24 PN        150.3780  197.5570  199.5530 P.3       1 NAP801      0.0000 
     25 O1N       150.7540  196.2550  198.8990 O.co2     1 NAP801      0.0000 
     26 O2N       149.1610  198.1480  198.8890 O.co2     1 NAP801      0.0000 
     27 O5D       151.6050  198.5890  199.4280 O.3       1 NAP801      0.0000 
     28 C5D       151.4050  199.9990  199.4480 C.3       1 NAP801      0.0000 
     29 C4D       151.4970  200.5560  200.8570 C.3       1 NAP801      0.0000 
     30 O4D       152.7580  200.2190  201.4330 O.3       1 NAP801      0.0000 
     31 C3D       151.4280  202.0700  200.8240 C.3       1 NAP801      0.0000 
     32 O3D       150.4430  202.5180  201.7540 O.3       1 NAP801      0.0000 
     33 C2D       152.7990  202.5310  201.2600 C.3       1 NAP801      0.0000 
     34 O2D       152.6970  203.7050  202.0610 O.3       1 NAP801      0.0000 
     35 C1D       153.3270  201.3640  202.0620 C.3       1 NAP801      0.0000 
     36 N1N       154.7820  201.3020  202.0030 N.pl3     1 NAP801      0.0000 
     37 C2N       155.4810  201.5300  203.1120 C.ar      1 NAP801      0.0000 
     38 C3N       156.8630  201.4750  203.1060 C.ar      1 NAP801      0.0000 
     39 C7N       157.6080  201.7450  204.3650 C.2       1 NAP801      0.0000 
     40 O7N       157.1100  202.4920  205.1870 O.2       1 NAP801      0.0000 
     41 N7N       158.7860  201.1590  204.5370 N.am      1 NAP801      0.0000 
     42 C4N       157.5630  201.1870  201.9470 C.ar      1 NAP801      0.0000 
     43 C5N       156.8770  200.9450  200.7710 C.ar      1 NAP801      0.0000 
     44 C6N       155.4220  200.9840  200.7270 C.ar      1 NAP801      0.0000 
     45 P2B       149.1070  190.2090  198.7670 P.3       1 NAP801      0.0000 
     46 O1X       149.5930  190.7990  197.4680 O.co2     1 NAP801      0.0000 
     47 O2X       148.7930  188.7440  198.6070 O.co2     1 NAP801      0.0000 
     48 O3X       147.8860  190.9470  199.2520 O.co2     1 NAP801      0.0000 
@<TRIPOS>BOND
     1    1    2 ar   
     2    1    3 ar   
     3    1    4 1    
     4    1   23 1    
     5    4    5 1    
     6    5    6 1    
     7    6    7 1    
     8    6    8 1    
     9    7   12 1    
    10    8    9 1    
    11    8   10 1    
    12   10   11 1    
    13   10   12 1    
    14   11   45 1    
    15   12   13 1    
    16   13   14 1    
    17   13   22 1    
    18   14   15 2    
    19   15   16 1    
    20   16   17 ar   
    21   16   22 ar   
    22   17   18 1    
    23   17   19 ar   
    24   19   20 ar   
    25   20   21 ar   
    26   21   22 ar   
    27   23   24 1    
    28   24   25 ar   
    29   24   26 ar   
    30   24   27 1    
    31   27   28 1    
    32   28   29 1    
    33   29   30 1    
    34   29   31 1    
    35   30   35 1    
    36   31   32 1    
    37   31   33 1    
    38   33   34 1    
    39   33   35 1    
    40   35   36 1    
    41   36   37 ar   
    42   36   44 ar   
    43   37   38 ar   
    44   38   39 1    
    45   38   42 ar   
    46   39   40 2    
    47   39   41 am   
    48   42   43 ar   
    49   43   44 ar   
    50   45   46 ar   
    51   45   47 ar   
    52   45   48 ar   
@<TRIPOS>SUBSTRUCTURE
     1 NAP801      1 GROUP   
@<TRIPOS>SET
ATOM$ORANGE STATIC     ATOMS   COLORGROUP SYSTEM 
42 5 5 6 6 8 8 10 10 12 12 14 14 16 16 17 17 20 \
20 22 22 28 28 29 29 31 31 33 33 35 35 37 37 38 38 39 \
39 42 42 43 43 44 44 

