#    Name: 6jqn_10_NAP
#    Modification time : Fri May 22 19:28:39 2020

@<TRIPOS>MOLECULE
6jqn_10_NAP
   48    52     1     0     1
SMALL
NO_CHARGES


@<TRIPOS>ATOM
      1 PA        272.3240  169.4560  201.4980 P.3       1 NAP801      0.0000 
      2 O1A       272.4340  169.1060  202.9570 O.co2     1 NAP801      0.0000 
      3 O2A       272.9070  168.3560  200.6490 O.co2     1 NAP801      0.0000 
      4 O5B       273.1250  170.8140  201.2190 O.3       1 NAP801      0.0000 
      5 C5B       272.5840  172.0660  201.6260 C.3       1 NAP801      0.0000 
      6 C4B       273.6640  173.1380  201.6950 C.3       1 NAP801      0.0000 
      7 O4B       274.6250  172.8140  202.7000 O.3       1 NAP801      0.0000 
      8 C3B       274.4330  173.2830  200.3970 C.3       1 NAP801      0.0000 
      9 O3B       274.6020  174.6730  200.1350 O.3       1 NAP801      0.0000 
     10 C2B       275.7780  172.6660  200.6950 C.3       1 NAP801      0.0000 
     11 O2B       276.8100  173.2560  199.9210 O.3       1 NAP801      0.0000 
     12 C1B       275.9430  172.9390  202.1720 C.3       1 NAP801      0.0000 
     13 N9A       276.8240  171.9380  202.8030 N.pl3     1 NAP801      0.0000 
     14 C8A       276.8310  170.6170  202.5620 C.2       1 NAP801      0.0000 
     15 N7A       277.7630  169.9930  203.3260 N.2       1 NAP801      0.0000 
     16 C5A       278.3710  170.9330  204.0720 C.ar      1 NAP801      0.0000 
     17 C6A       279.4410  170.9640  205.0920 C.ar      1 NAP801      0.0000 
     18 N6A       280.0740  169.8300  205.4740 N.pl3     1 NAP801      0.0000 
     19 N1A       279.7660  172.1630  205.6230 N.ar      1 NAP801      0.0000 
     20 C2A       279.1460  173.2970  205.2500 C.ar      1 NAP801      0.0000 
     21 N3A       278.1660  173.3390  204.3350 N.ar      1 NAP801      0.0000 
     22 C4A       277.7430  172.2110  203.7230 C.ar      1 NAP801      0.0000 
     23 O3        270.7790  169.6520  201.1130 O.3       1 NAP801      0.0000 
     24 PN        270.3440  169.7750  199.5730 P.3       1 NAP801      0.0000 
     25 O1N       271.2880  170.7170  198.8760 O.co2     1 NAP801      0.0000 
     26 O2N       270.4110  168.4010  198.9550 O.co2     1 NAP801      0.0000 
     27 O5D       268.8480  170.3560  199.4520 O.3       1 NAP801      0.0000 
     28 C5D       267.7050  169.5030  199.4510 C.3       1 NAP801      0.0000 
     29 C4D       267.2450  169.1690  200.8600 C.3       1 NAP801      0.0000 
     30 O4D       266.9360  170.3710  201.5630 O.3       1 NAP801      0.0000 
     31 C3D       265.9700  168.3510  200.8210 C.3       1 NAP801      0.0000 
     32 O3D       266.0830  167.2500  201.7210 O.3       1 NAP801      0.0000 
     33 C2D       264.8940  169.2940  201.3040 C.3       1 NAP801      0.0000 
     34 O2D       263.9210  168.5880  202.0690 O.3       1 NAP801      0.0000 
     35 C1D       265.6480  170.2800  202.1660 C.3       1 NAP801      0.0000 
     36 N1N       265.0040  171.5850  202.1300 N.pl3     1 NAP801      0.0000 
     37 C2N       264.3990  172.0540  203.2190 C.ar      1 NAP801      0.0000 
     38 C3N       263.7900  173.2960  203.2060 C.ar      1 NAP801      0.0000 
     39 C7N       263.1100  173.8040  204.4280 C.2       1 NAP801      0.0000 
     40 O7N       262.7620  173.0080  205.2770 O.2       1 NAP801      0.0000 
     41 N7N       262.9110  175.1120  204.5330 N.am      1 NAP801      0.0000 
     42 C4N       263.7810  174.0790  202.0670 C.ar      1 NAP801      0.0000 
     43 C5N       264.3910  173.6260  200.9130 C.ar      1 NAP801      0.0000 
     44 C6N       265.0550  172.3340  200.8790 C.ar      1 NAP801      0.0000 
     45 P2B       277.5210  172.3660  198.7920 P.3       1 NAP801      0.0000 
     46 O1X       276.7340  172.5180  197.5160 O.co2     1 NAP801      0.0000 
     47 O2X       278.9400  172.8430  198.6110 O.co2     1 NAP801      0.0000 
     48 O3X       277.5130  170.9290  199.2480 O.co2     1 NAP801      0.0000 
@<TRIPOS>BOND
     1    1    2 ar   
     2    1    3 ar   
     3    1    4 1    
     4    1   23 1    
     5    4    5 1    
     6    5    6 1    
     7    6    7 1    
     8    6    8 1    
     9    7   12 1    
    10    8    9 1    
    11    8   10 1    
    12   10   11 1    
    13   10   12 1    
    14   11   45 1    
    15   12   13 1    
    16   13   14 1    
    17   13   22 1    
    18   14   15 2    
    19   15   16 1    
    20   16   17 ar   
    21   16   22 ar   
    22   17   18 1    
    23   17   19 ar   
    24   19   20 ar   
    25   20   21 ar   
    26   21   22 ar   
    27   23   24 1    
    28   24   25 ar   
    29   24   26 ar   
    30   24   27 1    
    31   27   28 1    
    32   28   29 1    
    33   29   30 1    
    34   29   31 1    
    35   30   35 1    
    36   31   32 1    
    37   31   33 1    
    38   33   34 1    
    39   33   35 1    
    40   35   36 1    
    41   36   37 ar   
    42   36   44 ar   
    43   37   38 ar   
    44   38   39 1    
    45   38   42 ar   
    46   39   40 2    
    47   39   41 am   
    48   42   43 ar   
    49   43   44 ar   
    50   45   46 ar   
    51   45   47 ar   
    52   45   48 ar   
@<TRIPOS>SUBSTRUCTURE
     1 NAP801      1 GROUP   
@<TRIPOS>SET
ATOM$ORANGE STATIC     ATOMS   COLORGROUP SYSTEM 
42 5 5 6 6 8 8 10 10 12 12 14 14 16 16 17 17 20 \
20 22 22 28 28 29 29 31 31 33 33 35 35 37 37 38 38 39 \
39 42 42 43 43 44 44 

