#    Name: 6mfx_1_APC
#    Modification time : Fri May 22 19:39:23 2020

@<TRIPOS>MOLECULE
6mfx_1_APC
   44    46     1     0     0
SMALL
NO_CHARGES


@<TRIPOS>ATOM
      1 PG         10.7240   95.9500  184.0740 P.3       1 APC2001     0.0000 
      2 O1G        11.8180   95.4250  183.1720 O.co2     1 APC2001     0.0000 
      3 O2G         9.3970   95.8600  183.3580 O.co2     1 APC2001     0.0000 
      4 O3G        10.9990   97.3940  184.4280 O.co2     1 APC2001     0.0000 
      5 PB          9.6860   95.3990  186.7350 P.3       1 APC2001     0.0000 
      6 O1B        10.3540   96.3980  187.6520 O.co2     1 APC2001     0.0000 
      7 O2B         8.3700   95.9490  186.2400 O.co2     1 APC2001     0.0000 
      8 O3B        10.6620   95.0470  185.4520 O.3       1 APC2001     0.0000 
      9 PA         10.9970   93.1820  188.2750 P.3       1 APC2001     0.0000 
     10 O1A        11.8570   94.3280  188.7570 O.co2     1 APC2001     0.0000 
     11 O2A        10.7180   92.2180  189.4020 O.co2     1 APC2001     0.0000 
     12 C3A         9.3660   93.8300  187.6670 C.3       1 APC2001     0.0000 
     13 O5'        11.7560   92.4000  187.0390 O.3       1 APC2001     0.0000 
     14 C5'        11.2810   91.1320  186.7000 C.3       1 APC2001     0.0000 
     15 C4'        11.6880   90.7910  185.2480 C.3       1 APC2001     0.0000 
     16 O4'        12.9240   91.1390  185.0100 O.3       1 APC2001     0.0000 
     17 C3'        11.6560   89.2600  185.0510 C.3       1 APC2001     0.0000 
     18 O3'        10.4040   88.8760  184.7030 O.3       1 APC2001     0.0000 
     19 C2'        12.6860   89.0540  183.9210 C.3       1 APC2001     0.0000 
     20 O2'        11.9680   89.2030  182.6180 O.3       1 APC2001     0.0000 
     21 C1'        13.5960   89.9860  184.0860 C.3       1 APC2001     0.0000 
     22 N9         14.7520   89.4640  184.7880 N.pl3     1 APC2001     0.0000 
     23 C8         15.0570   89.4080  186.0940 C.2       1 APC2001     0.0000 
     24 N7         16.2500   88.8240  186.2300 N.2       1 APC2001     0.0000 
     25 C5         16.6900   88.5180  185.0030 C.ar      1 APC2001     0.0000 
     26 C6         17.8440   87.9090  184.5700 C.ar      1 APC2001     0.0000 
     27 N6         19.0020   87.3790  185.2640 N.pl3     1 APC2001     0.0000 
     28 N1         18.0480   87.7120  183.2750 N.ar      1 APC2001     0.0000 
     29 C2         17.1160   88.1120  182.3760 C.ar      1 APC2001     0.0000 
     30 N3         15.9830   88.7090  182.8030 N.ar      1 APC2001     0.0000 
     31 C4         15.7710   88.9100  184.1140 C.ar      1 APC2001     0.0000 
     32 H3A1        8.9500   93.1780  187.0820 H         1 APC2001     0.0000 
     33 H3A2        8.7810   94.0080  188.4200 H         1 APC2001     0.0000 
     34 H5'1       10.3140   91.1190  186.7740 H         1 APC2001     0.0000 
     35 H5'2       11.6600   90.4740  187.3040 H         1 APC2001     0.0000 
     36 H4'        11.0990   91.2380  184.6200 H         1 APC2001     0.0000 
     37 H3'        11.9200   88.7600  185.8390 H         1 APC2001     0.0000 
     38 H2'        13.1260   88.1910  183.9820 H         1 APC2001     0.0000 
     39 HO2'       11.8350   88.4350  182.2790 H         1 APC2001     0.0000 
     40 H1'        13.8360   90.3340  183.2130 H         1 APC2001     0.0000 
     41 H8         14.5250   89.7240  186.7880 H         1 APC2001     0.0000 
     42 HN61       19.7740   87.7410  185.1500 H         1 APC2001     0.0000 
     43 HN62       18.9170   86.7040  185.7890 H         1 APC2001     0.0000 
     44 H2         17.2570   87.9750  181.4670 H         1 APC2001     0.0000 
@<TRIPOS>BOND
     1    1    2 ar   
     2    1    3 ar   
     3    1    4 ar   
     4    1    8 1    
     5    5    6 ar   
     6    5    7 ar   
     7    5    8 1    
     8    5   12 1    
     9    9   10 ar   
    10    9   11 ar   
    11    9   12 1    
    12    9   13 1    
    13   12   32 1    
    14   12   33 1    
    15   13   14 1    
    16   14   15 1    
    17   14   34 1    
    18   14   35 1    
    19   15   16 1    
    20   15   17 1    
    21   15   36 1    
    22   16   21 1    
    23   17   18 1    
    24   17   19 1    
    25   17   37 1    
    26   19   20 1    
    27   19   21 1    
    28   19   38 1    
    29   21   40 1    
    30   20   39 1    
    31   21   22 1    
    32   22   23 1    
    33   22   31 1    
    34   23   24 2    
    35   23   41 1    
    36   24   25 1    
    37   25   26 ar   
    38   25   31 ar   
    39   26   27 1    
    40   26   28 ar   
    41   27   42 1    
    42   27   43 1    
    43   28   29 ar   
    44   29   30 ar   
    45   29   44 1    
    46   30   31 ar   
@<TRIPOS>SUBSTRUCTURE
     1 APC2001     1 GROUP   
@<TRIPOS>SET

