#    Name: 6mfx_1_APC_CAVITY_N1_ALL
#    Modification time : Fri May 22 19:39:24 2020

@<TRIPOS>MOLECULE
6mfx_1_APC_CAVITY_N1_ALL
   75     0     7     0     0
SMALL
NO_CHARGES


@<TRIPOS>ATOM
      1 OG          9.9600   92.6900  188.4600 O.3       1 SER1        0.0000 
      2 OG          9.3700   95.5100  186.7500 O.3       1 SER1        0.0000 
      3 OG         11.1600   96.0800  185.7600 O.3       1 SER1        0.0000 
      4 OG          9.3800   95.1900  188.8500 O.3       1 SER1        0.0000 
      5 OG         10.7600   94.6300  188.7600 O.3       1 SER1        0.0000 
      6 OG          9.7800   96.3200  187.9500 O.3       1 SER1        0.0000 
      7 OG         11.5600   96.8900  186.9600 O.3       1 SER1        0.0000 
      8 OG         10.1800   97.1300  189.1400 O.3       1 SER1        0.0000 
      9 N          14.7200   89.1500  183.6300 N.am      2 ALA2        0.0000 
     10 O          16.1100   88.5900  183.5400 O.2       2 ALA2        0.0000 
     11 N          17.4900   88.0300  183.4500 N.am      2 ALA2        0.0000 
     12 N          13.7300   90.8400  182.8100 N.am      2 ALA2        0.0000 
     13 N          11.5400   88.8200  186.8000 N.am      2 ALA2        0.0000 
     14 N          12.9300   88.2600  186.7100 N.am      2 ALA2        0.0000 
     15 N          11.9400   89.9500  185.9000 N.am      2 ALA2        0.0000 
     16 N          13.3300   89.3900  185.8100 N.am      2 ALA2        0.0000 
     17 N          17.5000   87.7100  185.5500 N.am      2 ALA2        0.0000 
     18 N          13.7300   90.5200  184.9100 N.am      2 ALA2        0.0000 
     19 N          15.1200   89.9600  184.8200 N.am      2 ALA2        0.0000 
     20 N          17.9000   88.8400  184.6500 N.am      2 ALA2        0.0000 
     21 N          12.7400   92.2100  184.1000 N.am      2 ALA2        0.0000 
     22 N          12.3400   90.7600  187.0900 N.am      2 ALA2        0.0000 
     23 N          13.7300   90.2000  187.0100 N.am      2 ALA2        0.0000 
     24 N          14.1300   91.3300  186.1100 N.am      2 ALA2        0.0000 
     25 O           7.5800   95.2600  185.6400 O.2       2 ALA2        0.0000 
     26 O           7.9900   96.0700  186.8300 O.2       2 ALA2        0.0000 
     27 OD1        10.5500   90.8300  183.8900 O.co2     3 ASP3        0.0000 
     28 OD1         5.8000   95.0100  184.5300 O.co2     3 ASP3        0.0000 
     29 OD1        11.3500   92.7700  184.1800 O.co2     3 ASP3        0.0000 
     30 OD1        11.3500   92.4500  186.2800 O.co2     3 ASP3        0.0000 
     31 OD1        12.7400   91.8900  186.1900 O.co2     3 ASP3        0.0000 
     32 OD1        10.3600   94.1400  185.4700 O.co2     3 ASP3        0.0000 
     33 OD1        11.7500   93.5800  185.3800 O.co2     3 ASP3        0.0000 
     34 OD1        11.7500   93.2600  187.4800 O.co2     3 ASP3        0.0000 
     35 OD1        10.7600   94.9500  186.6600 O.co2     3 ASP3        0.0000 
     36 OD1        11.1600   95.7600  187.8600 O.co2     3 ASP3        0.0000 
     37 NZ         12.5300   87.7700  183.4200 N.4       4 LYS4        0.0000 
     38 NZ         11.1400   88.0100  185.6000 N.4       4 LYS4        0.0000 
     39 NZ         11.5400   89.1400  184.7000 N.4       4 LYS4        0.0000 
     40 NZ         11.3500   92.1300  188.3800 N.4       4 LYS4        0.0000 
     41 NZ         12.1500   94.0700  188.6700 N.4       4 LYS4        0.0000 
     42 CZ         13.9200   87.2100  183.3300 C.ar      5 PHE5        0.0000 
     43 CZ         15.3000   86.6500  183.2400 C.ar      5 PHE5        0.0000 
     44 CZ         12.9300   88.9000  182.5200 C.ar      5 PHE5        0.0000 
     45 CZ         14.3200   88.3400  182.4300 C.ar      5 PHE5        0.0000 
     46 CZ         15.7000   87.7800  182.3400 C.ar      5 PHE5        0.0000 
     47 CZ         17.0900   87.2200  182.2600 C.ar      5 PHE5        0.0000 
     48 CZ         12.9300   88.5800  184.6100 C.ar      5 PHE5        0.0000 
     49 CZ         14.3200   88.0200  184.5300 C.ar      5 PHE5        0.0000 
     50 CZ         15.7100   87.4600  184.4400 C.ar      5 PHE5        0.0000 
     51 CZ         17.0900   86.9000  184.3500 C.ar      5 PHE5        0.0000 
     52 CZ         14.7200   88.8300  185.7200 C.ar      5 PHE5        0.0000 
     53 CZ         16.1100   88.2700  185.6400 C.ar      5 PHE5        0.0000 
     54 CZ         11.5700   96.5700  189.0600 C.ar      5 PHE5        0.0000 
     55 CA         18.4800   86.3400  184.2700 C.3       6 GLY6        0.0000 
     56 CA         16.5100   89.7200  182.6400 C.3       6 GLY6        0.0000 
     57 CA         16.5100   89.4000  184.7400 C.3       6 GLY6        0.0000 
     58 CA         10.9500   91.3200  187.1800 C.3       6 GLY6        0.0000 
     59 CA         15.1200   89.6400  186.9200 C.3       6 GLY6        0.0000 
     60 CA          5.8000   94.6900  186.6200 C.3       6 GLY6        0.0000 
     61 CA          7.1800   94.1300  186.5400 C.3       6 GLY6        0.0000 
     62 CA          7.5900   94.9400  187.7300 C.3       6 GLY6        0.0000 
     63 CA          8.9700   94.3800  187.6500 C.3       6 GLY6        0.0000 
     64 DU         11.9400   90.2700  183.8000 H         7 CUB7        0.0000 
     65 DU         13.3300   89.7100  183.7100 H         7 CUB7        0.0000 
     66 DU         10.5500   90.5100  185.9800 H         7 CUB7        0.0000 
     67 DU          6.7800   93.3200  185.3400 H         7 CUB7        0.0000 
     68 DU          9.5600   92.2000  185.1700 H         7 CUB7        0.0000 
     69 DU         10.9500   91.6400  185.0800 H         7 CUB7        0.0000 
     70 DU         12.3400   91.0800  185.0000 H         7 CUB7        0.0000 
     71 DU          9.9600   93.3300  184.2700 H         7 CUB7        0.0000 
     72 DU          8.5700   93.5700  186.4500 H         7 CUB7        0.0000 
     73 DU          9.9600   93.0100  186.3700 H         7 CUB7        0.0000 
     74 DU          8.9700   94.7000  185.5500 H         7 CUB7        0.0000 
     75 DU         10.3600   93.8200  187.5600 H         7 CUB7        0.0000 
@<TRIPOS>BOND
@<TRIPOS>SUBSTRUCTURE
     1 SER1        1 GROUP   
     2 ALA2        9 GROUP   
     3 ASP3       27 GROUP   
     4 LYS4       37 GROUP   
     5 PHE5       42 GROUP   
     6 GLY6       55 GROUP   
     7 CUB7       64 GROUP   
@<TRIPOS>SET

