#    Name: 6dvi_2_FMN
#    Modification time : Fri May 22 19:27:06 2020

@<TRIPOS>MOLECULE
6dvi_2_FMN
   31    33     1     0     1
SMALL
NO_CHARGES


@<TRIPOS>ATOM
      1 N1         28.9630   85.1430   34.5840 N.2       1 FMN401      0.0000 
      2 C2         30.1410   85.7140   34.2550 C.2       1 FMN401      0.0000 
      3 O2         30.4840   85.7790   33.0360 O.2       1 FMN401      0.0000 
      4 N3         31.0180   86.1350   35.2050 N.am      1 FMN401      0.0000 
      5 C4         30.7510   86.1150   36.4950 C.2       1 FMN401      0.0000 
      6 O4         31.5520   86.5660   37.3290 O.2       1 FMN401      0.0000 
      7 C4A        29.4720   85.5990   36.9780 C.2       1 FMN401      0.0000 
      8 N5         29.1950   85.6090   38.3440 N.2       1 FMN401      0.0000 
      9 C5A        28.0060   85.0390   38.7020 C.ar      1 FMN401      0.0000 
     10 C6         27.7330   84.8660   40.0330 C.ar      1 FMN401      0.0000 
     11 C7         26.7510   84.0440   40.4710 C.ar      1 FMN401      0.0000 
     12 C7M        26.5040   83.9320   41.9290 C.3       1 FMN401      0.0000 
     13 C8         25.9890   83.2110   39.5010 C.ar      1 FMN401      0.0000 
     14 C8M        24.9010   82.3110   40.0060 C.3       1 FMN401      0.0000 
     15 C9         26.2290   83.3430   38.1730 C.ar      1 FMN401      0.0000 
     16 C9A        27.2210   84.2250   37.7250 C.ar      1 FMN401      0.0000 
     17 N10        27.4580   84.3540   36.3320 N.pl3     1 FMN401      0.0000 
     18 C10        28.5850   85.0890   35.9160 C.2       1 FMN401      0.0000 
     19 C1'        26.6950   83.5780   35.3440 C.3       1 FMN401      0.0000 
     20 C2'        27.1220   82.1270   35.2030 C.3       1 FMN401      0.0000 
     21 O2'        28.3400   82.0240   34.5120 O.3       1 FMN401      0.0000 
     22 C3'        26.0900   81.3350   34.3920 C.3       1 FMN401      0.0000 
     23 O3'        25.8050   82.1180   33.2840 O.3       1 FMN401      0.0000 
     24 C4'        24.7850   81.1550   35.1700 C.3       1 FMN401      0.0000 
     25 O4'        25.1750   80.8210   36.5170 O.3       1 FMN401      0.0000 
     26 C5'        23.8900   80.1170   34.5080 C.3       1 FMN401      0.0000 
     27 O5'        22.5470   80.1190   35.0230 O.3       1 FMN401      0.0000 
     28 P          22.1070   78.9930   36.0500 P.3       1 FMN401      0.0000 
     29 O1P        20.7250   79.3800   36.4570 O.co2     1 FMN401      0.0000 
     30 O2P        23.0970   79.1280   37.2120 O.co2     1 FMN401      0.0000 
     31 O3P        22.3150   77.6610   35.3540 O.co2     1 FMN401      0.0000 
@<TRIPOS>BOND
     1    1    2 1    
     2    1   18 2    
     3    2    3 2    
     4    2    4 am   
     5    4    5 am   
     6    5    6 2    
     7    5    7 1    
     8    7    8 2    
     9    7   18 1    
    10    8    9 1    
    11    9   10 ar   
    12    9   16 ar   
    13   10   11 ar   
    14   11   12 1    
    15   11   13 ar   
    16   13   14 1    
    17   13   15 ar   
    18   15   16 ar   
    19   16   17 1    
    20   17   18 1    
    21   17   19 1    
    22   19   20 1    
    23   20   21 1    
    24   20   22 1    
    25   22   23 1    
    26   22   24 1    
    27   24   25 1    
    28   24   26 1    
    29   26   27 1    
    30   27   28 1    
    31   28   29 ar   
    32   28   30 ar   
    33   28   31 ar   
@<TRIPOS>SUBSTRUCTURE
     1 FMN401      1 GROUP   
@<TRIPOS>SET
ATOM$ORANGE STATIC     ATOMS   COLORGROUP SYSTEM 
34 2 2 5 5 7 7 9 9 10 10 11 11 12 12 13 13 14 \
14 15 15 16 16 18 18 19 19 20 20 22 22 24 24 26 26 

