#    Name: 6dvi_5_FMN
#    Modification time : Fri May 22 19:27:15 2020

@<TRIPOS>MOLECULE
6dvi_5_FMN
   31    33     1     0     1
SMALL
NO_CHARGES


@<TRIPOS>ATOM
      1 N1         83.5380   29.1560  103.7660 N.2       1 FMN401      0.0000 
      2 C2         83.8550   30.4490  103.5180 C.2       1 FMN401      0.0000 
      3 O2         84.2130   30.7230  102.3510 O.2       1 FMN401      0.0000 
      4 N3         83.8000   31.4200  104.4600 N.am      1 FMN401      0.0000 
      5 C4         83.4110   31.1550  105.7160 C.2       1 FMN401      0.0000 
      6 O4         83.3590   32.0560  106.5800 O.2       1 FMN401      0.0000 
      7 C4A        83.0410   29.7580  106.0670 C.2       1 FMN401      0.0000 
      8 N5         82.9230   29.3940  107.3570 N.2       1 FMN401      0.0000 
      9 C5A        83.0830   28.0980  107.7100 C.ar      1 FMN401      0.0000 
     10 C6         83.0900   27.7740  109.0630 C.ar      1 FMN401      0.0000 
     11 C7         83.1580   26.4490  109.4800 C.ar      1 FMN401      0.0000 
     12 C7M        83.1850   26.1330  110.9550 C.3       1 FMN401      0.0000 
     13 C8         83.2370   25.3730  108.4500 C.ar      1 FMN401      0.0000 
     14 C8M        83.3180   23.9210  108.8420 C.3       1 FMN401      0.0000 
     15 C9         83.2280   25.6950  107.0930 C.ar      1 FMN401      0.0000 
     16 C9A        83.1530   27.0170  106.6790 C.ar      1 FMN401      0.0000 
     17 N10        83.1470   27.3520  105.3010 N.pl3     1 FMN401      0.0000 
     18 C10        83.1300   28.7340  104.9850 C.2       1 FMN401      0.0000 
     19 C1'        83.2960   26.3370  104.2260 C.3       1 FMN401      0.0000 
     20 C2'        84.7550   25.9210  104.1010 C.3       1 FMN401      0.0000 
     21 O2'        85.4680   27.0170  103.4890 O.3       1 FMN401      0.0000 
     22 C3'        85.1080   24.6680  103.3030 C.3       1 FMN401      0.0000 
     23 O3'        84.9400   24.8920  101.8940 O.3       1 FMN401      0.0000 
     24 C4'        84.2710   23.4450  103.6880 C.3       1 FMN401      0.0000 
     25 O4'        84.2260   23.3270  105.1220 O.3       1 FMN401      0.0000 
     26 C5'        84.8000   22.1410  103.0660 C.3       1 FMN401      0.0000 
     27 O5'        83.9040   21.0610  103.3580 O.3       1 FMN401      0.0000 
     28 P          84.3060   19.7980  104.3130 P.3       1 FMN401      0.0000 
     29 O1P        84.7920   20.3620  105.6270 O.co2     1 FMN401      0.0000 
     30 O2P        83.0030   19.0340  104.4960 O.co2     1 FMN401      0.0000 
     31 O3P        85.4030   19.0790  103.5400 O.co2     1 FMN401      0.0000 
@<TRIPOS>BOND
     1    1    2 1    
     2    1   18 2    
     3    2    3 2    
     4    2    4 am   
     5    4    5 am   
     6    5    6 2    
     7    5    7 1    
     8    7    8 2    
     9    7   18 1    
    10    8    9 1    
    11    9   10 ar   
    12    9   16 ar   
    13   10   11 ar   
    14   11   12 1    
    15   11   13 ar   
    16   13   14 1    
    17   13   15 ar   
    18   15   16 ar   
    19   16   17 1    
    20   17   18 1    
    21   17   19 1    
    22   19   20 1    
    23   20   21 1    
    24   20   22 1    
    25   22   23 1    
    26   22   24 1    
    27   24   25 1    
    28   24   26 1    
    29   26   27 1    
    30   27   28 1    
    31   28   29 ar   
    32   28   30 ar   
    33   28   31 ar   
@<TRIPOS>SUBSTRUCTURE
     1 FMN401      1 GROUP   
@<TRIPOS>SET
ATOM$ORANGE STATIC     ATOMS   COLORGROUP SYSTEM 
34 2 2 5 5 7 7 9 9 10 10 11 11 12 12 13 13 14 \
14 15 15 16 16 18 18 19 19 20 20 22 22 24 24 26 26 

