#    Name: 6dvi_2_FMN_CAVITY_N1_6
#    Modification time : Fri May 22 19:27:08 2020

@<TRIPOS>MOLECULE
6dvi_2_FMN_CAVITY_N1_6
   81     0     7     0     0
SMALL
NO_CHARGES


@<TRIPOS>ATOM
      1 OG         27.7800   84.7300   35.0600 O.3       1 SER1        0.0000 
      2 OG         26.4200   84.7000   35.6900 O.3       1 SER1        0.0000 
      3 OG         27.0100   85.1100   37.0000 O.3       1 SER1        0.0000 
      4 OG         28.7700   87.0000   37.3200 O.3       1 SER1        0.0000 
      5 OG         27.6100   85.5300   38.3100 O.3       1 SER1        0.0000 
      6 OG         27.4100   86.9700   37.9500 O.3       1 SER1        0.0000 
      7 OG         27.2100   88.4100   37.5800 O.3       1 SER1        0.0000 
      8 OG         27.0200   89.8500   37.2100 O.3       1 SER1        0.0000 
      9 OG         29.3700   87.4100   38.6400 O.3       1 SER1        0.0000 
     10 OG         29.1700   88.8500   38.2700 O.3       1 SER1        0.0000 
     11 OG         28.9700   90.2900   37.9000 O.3       1 SER1        0.0000 
     12 OG         28.0000   87.3900   39.2600 O.3       1 SER1        0.0000 
     13 OG         27.8100   88.8300   38.8900 O.3       1 SER1        0.0000 
     14 OG         27.6100   90.2700   38.5300 O.3       1 SER1        0.0000 
     15 OG         26.2500   90.2400   39.1500 O.3       1 SER1        0.0000 
     16 OG         28.6000   87.8000   40.5700 O.3       1 SER1        0.0000 
     17 OG         28.2000   90.6800   39.8400 O.3       1 SER1        0.0000 
     18 O          23.8700   79.1000   33.4700 O.2       2 ALA2        0.0000 
     19 O          24.2600   80.9600   34.4200 O.2       2 ALA2        0.0000 
     20 N          27.9800   83.2800   35.4300 N.am      2 ALA2        0.0000 
     21 N          26.8100   81.8200   36.4200 N.am      2 ALA2        0.0000 
     22 N          26.6200   83.2600   36.0500 N.am      2 ALA2        0.0000 
     23 N          28.3800   85.1400   36.3800 N.am      2 ALA2        0.0000 
     24 N          27.4100   82.2300   37.7300 N.am      2 ALA2        0.0000 
     25 N          27.2100   83.6700   37.3700 N.am      2 ALA2        0.0000 
     26 N          29.1700   84.1100   38.0600 N.am      2 ALA2        0.0000 
     27 O          28.9700   85.5600   37.6900 O.2       2 ALA2        0.0000 
     28 O          28.3900   84.5000   39.9900 O.2       2 ALA2        0.0000 
     29 O          28.2000   85.9400   39.6300 O.2       2 ALA2        0.0000 
     30 O          28.9900   84.9200   41.3100 O.2       2 ALA2        0.0000 
     31 O          28.7900   86.3600   40.9400 O.2       2 ALA2        0.0000 
     32 OD1        27.3900   82.8700   34.1200 O.co2     3 ASP3        0.0000 
     33 OD1        26.0200   82.8400   34.7400 O.co2     3 ASP3        0.0000 
     34 OD1        23.6900   79.9100   36.7200 O.co2     3 ASP3        0.0000 
     35 OD1        23.4900   81.3500   36.3500 O.co2     3 ASP3        0.0000 
     36 OD1        24.2800   80.3200   38.0400 O.co2     3 ASP3        0.0000 
     37 OD1        24.0800   81.7600   37.6700 O.co2     3 ASP3        0.0000 
     38 OD1        25.8500   83.6500   37.9900 O.co2     3 ASP3        0.0000 
     39 OD1        25.6500   85.0900   37.6200 O.co2     3 ASP3        0.0000 
     40 OD1        26.4400   84.0600   39.3100 O.co2     3 ASP3        0.0000 
     41 OD1        26.2400   85.5000   38.9400 O.co2     3 ASP3        0.0000 
     42 OD1        26.0500   86.9400   38.5700 O.co2     3 ASP3        0.0000 
     43 OD1        25.8500   88.3800   38.2000 O.co2     3 ASP3        0.0000 
     44 OD1        25.6500   89.8300   37.8400 O.co2     3 ASP3        0.0000 
     45 OD1        25.2700   82.5900   40.3000 O.co2     3 ASP3        0.0000 
     46 OD1        27.0300   84.4800   40.6200 O.co2     3 ASP3        0.0000 
     47 OD1        26.8300   85.9200   40.2500 O.co2     3 ASP3        0.0000 
     48 OD1        26.6400   87.3600   39.8900 O.co2     3 ASP3        0.0000 
     49 OD1        25.6700   84.4500   41.2400 O.co2     3 ASP3        0.0000 
     50 NZ         25.8200   79.5400   34.1600 N.4       4 LYS4        0.0000 
     51 NZ         24.4600   79.5200   34.7800 N.4       4 LYS4        0.0000 
     52 NZ         26.2200   81.4000   35.1100 N.4       4 LYS4        0.0000 
     53 CZ         28.7800   91.7400   37.5400 C.ar      5 PHE5        0.0000 
     54 CZ         29.7600   89.2700   39.5800 C.ar      5 PHE5        0.0000 
     55 CZ         29.5700   90.7100   39.2200 C.ar      5 PHE5        0.0000 
     56 CA         23.0900   79.4900   35.4100 C.3       6 GLY6        0.0000 
     57 CA         22.9000   80.9300   35.0400 C.3       6 GLY6        0.0000 
     58 CA         27.5800   81.4300   34.4800 C.3       6 GLY6        0.0000 
     59 CA         26.4200   79.9600   35.4700 C.3       6 GLY6        0.0000 
     60 CA         25.0500   79.9300   36.1000 C.3       6 GLY6        0.0000 
     61 CA         24.6600   82.8200   35.3600 C.3       6 GLY6        0.0000 
     62 CA         27.0100   80.3800   36.7900 C.3       6 GLY6        0.0000 
     63 CA         25.6400   80.3500   37.4100 C.3       6 GLY6        0.0000 
     64 CA         25.2500   83.2300   36.6800 C.3       6 GLY6        0.0000 
     65 CA         26.2400   80.7600   38.7300 C.3       6 GLY6        0.0000 
     66 CA         26.0400   82.2000   38.3600 C.3       6 GLY6        0.0000 
     67 CA         24.6800   82.1800   38.9800 C.3       6 GLY6        0.0000 
     68 CA         28.1800   91.3200   36.2200 C.3       6 GLY6        0.0000 
     69 CA         28.0000   82.6500   39.0500 C.3       6 GLY6        0.0000 
     70 CA         27.8000   84.0900   38.6800 C.3       6 GLY6        0.0000 
     71 CA         26.6300   82.6200   39.6700 C.3       6 GLY6        0.0000 
     72 CA         25.4700   81.1500   40.6600 C.3       6 GLY6        0.0000 
     73 CA         27.2300   83.0400   40.9900 C.3       6 GLY6        0.0000 
     74 CA         26.0600   81.5700   41.9800 C.3       6 GLY6        0.0000 
     75 CA         25.8600   83.0100   41.6100 C.3       6 GLY6        0.0000 
     76 CA         29.9600   87.8300   39.9500 C.3       6 GLY6        0.0000 
     77 CA         27.8200   83.4500   42.3000 C.3       6 GLY6        0.0000 
     78 CA         27.6200   84.8900   41.9300 C.3       6 GLY6        0.0000 
     79 CA         26.4600   83.4200   42.9200 C.3       6 GLY6        0.0000 
     80 DU         24.8600   81.3700   35.7300 H         7 CUB7        0.0000 
     81 DU         25.4500   81.7900   37.0400 H         7 CUB7        0.0000 
@<TRIPOS>BOND
@<TRIPOS>SUBSTRUCTURE
     1 SER1        1 GROUP   
     2 ALA2       18 GROUP   
     3 ASP3       32 GROUP   
     4 LYS4       50 GROUP   
     5 PHE5       53 GROUP   
     6 GLY6       56 GROUP   
     7 CUB7       80 GROUP   
@<TRIPOS>SET

