#    Name: 5qif_1_FMN_CAVITY_N1_12
#    Modification time : Fri May 22 19:12:24 2020

@<TRIPOS>MOLECULE
5qif_1_FMN_CAVITY_N1_12
   70     0     7     0     0
SMALL
NO_CHARGES


@<TRIPOS>ATOM
      1 OG          5.9600   29.5600   21.8800 O.3       1 SER1        0.0000 
      2 OG          7.1600   29.3900   21.0000 O.3       1 SER1        0.0000 
      3 OG          8.3600   29.2300   20.1200 O.3       1 SER1        0.0000 
      4 OG          7.8700   30.3400   19.2400 O.3       1 SER1        0.0000 
      5 OG          7.2100   29.4300   23.6000 O.3       1 SER1        0.0000 
      6 OG          6.7200   30.5500   22.7200 O.3       1 SER1        0.0000 
      7 OG          7.4300   31.5000   20.9600 O.3       1 SER1        0.0000 
      8 OG          8.6300   31.3300   20.0800 O.3       1 SER1        0.0000 
      9 OG          9.3900   32.3200   20.9200 O.3       1 SER1        0.0000 
     10 O           9.4700   23.6900   17.5800 O.2       2 ALA2        0.0000 
     11 O          11.9100   23.4000   18.4100 O.2       2 ALA2        0.0000 
     12 N           7.8300   25.0200   20.1900 N.am      2 ALA2        0.0000 
     13 O           9.0300   24.8500   19.3000 O.2       2 ALA2        0.0000 
     14 O          10.2300   24.6800   18.4200 O.2       2 ALA2        0.0000 
     15 N          10.9800   25.6700   19.2600 N.am      2 ALA2        0.0000 
     16 N           9.2900   26.9500   19.2700 N.am      2 ALA2        0.0000 
     17 N          10.4900   26.7900   18.3800 N.am      2 ALA2        0.0000 
     18 N           9.1200   24.9300   24.5000 N.am      2 ALA2        0.0000 
     19 N           8.8500   28.1100   20.9900 N.am      2 ALA2        0.0000 
     20 N           9.5600   29.0600   19.2300 N.am      2 ALA2        0.0000 
     21 N          10.3600   24.8000   26.2100 N.am      2 ALA2        0.0000 
     22 N           9.8700   25.9200   25.3400 N.am      2 ALA2        0.0000 
     23 O           8.4100   29.2600   22.7100 O.2       2 ALA2        0.0000 
     24 N           9.6100   29.1000   21.8300 N.am      2 ALA2        0.0000 
     25 O           7.9200   30.3800   21.8400 O.2       2 ALA2        0.0000 
     26 N           9.1200   30.2100   20.9500 N.am      2 ALA2        0.0000 
     27 N           9.8300   31.1600   19.1900 N.am      2 ALA2        0.0000 
     28 O           9.6500   29.1400   24.4300 O.2       2 ALA2        0.0000 
     29 O           8.6700   31.3700   22.6800 O.2       2 ALA2        0.0000 
     30 O           9.8700   31.2000   21.7900 O.2       2 ALA2        0.0000 
     31 OD1        10.0000   22.6200   21.0500 O.co2     3 ASP3        0.0000 
     32 OD1         6.8900   27.2900   21.0400 O.co2     3 ASP3        0.0000 
     33 OD1         8.8100   28.0700   18.3900 O.co2     3 ASP3        0.0000 
     34 OD1         8.6300   26.0400   23.6200 O.co2     3 ASP3        0.0000 
     35 OD1         8.1400   27.1600   22.7500 O.co2     3 ASP3        0.0000 
     36 OD1         7.6500   28.2800   21.8700 O.co2     3 ASP3        0.0000 
     37 OD1         9.0700   30.1700   18.3600 O.co2     3 ASP3        0.0000 
     38 OD1         8.1800   27.2000   25.3500 O.co2     3 ASP3        0.0000 
     39 OD1         8.9000   28.1500   23.5900 O.co2     3 ASP3        0.0000 
     40 NZ         11.4300   24.5100   17.5400 N.4       4 LYS4        0.0000 
     41 NZ          9.7400   25.8000   17.5400 N.4       4 LYS4        0.0000 
     42 NZ         12.1800   25.5000   18.3700 N.4       4 LYS4        0.0000 
     43 CZ          8.0900   27.1200   20.1500 C.ar      5 PHE5        0.0000 
     44 CZ          6.2300   31.6700   21.8500 C.ar      5 PHE5        0.0000 
     45 CZ         10.6300   26.9000   26.1800 C.ar      5 PHE5        0.0000 
     46 CZ          8.9400   28.1900   26.1900 C.ar      5 PHE5        0.0000 
     47 CZ          8.1900   32.4800   21.8000 C.ar      5 PHE5        0.0000 
     48 CA         10.4500   21.4600   19.3300 C.3       6 GLY6        0.0000 
     49 CA          9.9600   22.5800   18.4600 C.3       6 GLY6        0.0000 
     50 CA         11.2000   22.4500   20.1700 C.3       6 GLY6        0.0000 
     51 CA          8.3200   23.9000   21.0600 C.3       6 GLY6        0.0000 
     52 CA          9.5100   23.7300   20.1800 C.3       6 GLY6        0.0000 
     53 CA         10.7100   23.5600   19.2900 C.3       6 GLY6        0.0000 
     54 CA          8.5400   25.9700   18.4300 C.3       6 GLY6        0.0000 
     55 CA          9.5600   23.7700   22.7800 C.3       6 GLY6        0.0000 
     56 CA          9.0700   24.8900   21.9000 C.3       6 GLY6        0.0000 
     57 CA         10.2700   24.7200   21.0200 C.3       6 GLY6        0.0000 
     58 CA         11.4700   24.5500   20.1300 C.3       6 GLY6        0.0000 
     59 CA         12.6700   24.3800   19.2500 C.3       6 GLY6        0.0000 
     60 CA          8.5800   26.0000   21.0300 C.3       6 GLY6        0.0000 
     61 CA         10.3200   24.7600   23.6100 C.3       6 GLY6        0.0000 
     62 CA          9.8300   25.8800   22.7400 C.3       6 GLY6        0.0000 
     63 CA         11.0300   25.7100   21.8600 C.3       6 GLY6        0.0000 
     64 CA          9.3400   26.9900   21.8700 C.3       6 GLY6        0.0000 
     65 CA          8.6700   26.0800   26.2200 C.3       6 GLY6        0.0000 
     66 CA         11.0700   25.7500   24.4500 C.3       6 GLY6        0.0000 
     67 CA          9.3800   27.0300   24.4600 C.3       6 GLY6        0.0000 
     68 CA         10.1000   27.9800   22.7000 C.3       6 GLY6        0.0000 
     69 CA         10.1400   28.0200   25.3000 C.3       6 GLY6        0.0000 
     70 DU          9.7800   25.8400   20.1400 H         7 CUB7        0.0000 
@<TRIPOS>BOND
@<TRIPOS>SUBSTRUCTURE
     1 SER1        1 GROUP   
     2 ALA2       10 GROUP   
     3 ASP3       31 GROUP   
     4 LYS4       40 GROUP   
     5 PHE5       43 GROUP   
     6 GLY6       48 GROUP   
     7 CUB7       70 GROUP   
@<TRIPOS>SET

