#    Name: 5qif_1_FMN
#    Modification time : Fri May 22 19:12:22 2020

@<TRIPOS>MOLECULE
5qif_1_FMN
   31    33     1     0     1
SMALL
NO_CHARGES


@<TRIPOS>ATOM
      1 N1          8.8260   30.1220   18.4590 N.2       1 FMN401      0.0000 
      2 C2          8.9040   31.4410   18.1440 C.2       1 FMN401      0.0000 
      3 O2          8.8720   31.7190   16.9260 O.2       1 FMN401      0.0000 
      4 N3          9.0330   32.3880   19.1080 N.am      1 FMN401      0.0000 
      5 C4          9.0000   32.1440   20.4100 C.2       1 FMN401      0.0000 
      6 O4          9.1040   33.0360   21.2330 O.2       1 FMN401      0.0000 
      7 C4A         8.9120   30.7510   20.8480 C.2       1 FMN401      0.0000 
      8 N5          8.8850   30.4320   22.1510 N.2       1 FMN401      0.0000 
      9 C5A         8.8560   29.1270   22.5230 C.ar      1 FMN401      0.0000 
     10 C6          8.8630   28.7810   23.8850 C.ar      1 FMN401      0.0000 
     11 C7          8.8650   27.4400   24.2260 C.ar      1 FMN401      0.0000 
     12 C7M         8.9000   27.0790   25.6800 C.3       1 FMN401      0.0000 
     13 C8          8.8220   26.3940   23.2000 C.ar      1 FMN401      0.0000 
     14 C8M         8.8310   24.9370   23.6410 C.3       1 FMN401      0.0000 
     15 C9          8.8230   26.7400   21.8590 C.ar      1 FMN401      0.0000 
     16 C9A         8.8090   28.0810   21.4770 C.ar      1 FMN401      0.0000 
     17 N10         8.7860   28.4370   20.1250 N.pl3     1 FMN401      0.0000 
     18 C10         8.8380   29.7830   19.7670 C.2       1 FMN401      0.0000 
     19 C1'         8.8680   27.4170   19.0660 C.3       1 FMN401      0.0000 
     20 C2'        10.3820   27.0250   18.9230 C.3       1 FMN401      0.0000 
     21 O2'        11.1140   28.0560   18.2050 O.3       1 FMN401      0.0000 
     22 C3'        10.6210   25.7340   18.1530 C.3       1 FMN401      0.0000 
     23 O3'         9.8370   25.7770   16.9400 O.3       1 FMN401      0.0000 
     24 C4'        10.2820   24.4720   18.9470 C.3       1 FMN401      0.0000 
     25 O4'        10.7080   24.6450   20.3070 O.3       1 FMN401      0.0000 
     26 C5'        11.0040   23.2890   18.3560 C.3       1 FMN401      0.0000 
     27 O5'        10.6160   22.0440   18.9420 O.3       1 FMN401      0.0000 
     28 P          11.3990   21.3620   20.1910 P.3       1 FMN401      0.0000 
     29 O1P        12.8820   21.3540   19.9520 O.co2     1 FMN401      0.0000 
     30 O2P        10.7910   19.9940   20.1490 O.co2     1 FMN401      0.0000 
     31 O3P        11.0540   22.1080   21.4510 O.co2     1 FMN401      0.0000 
@<TRIPOS>BOND
     1    1    2 1    
     2    1   18 2    
     3    2    3 2    
     4    2    4 am   
     5    4    5 am   
     6    5    6 2    
     7    5    7 1    
     8    7    8 2    
     9    7   18 1    
    10    8    9 1    
    11    9   10 ar   
    12    9   16 ar   
    13   10   11 ar   
    14   11   12 1    
    15   11   13 ar   
    16   13   14 1    
    17   13   15 ar   
    18   15   16 ar   
    19   16   17 1    
    20   17   18 1    
    21   17   19 1    
    22   19   20 1    
    23   20   21 1    
    24   20   22 1    
    25   22   23 1    
    26   22   24 1    
    27   24   25 1    
    28   24   26 1    
    29   26   27 1    
    30   27   28 1    
    31   28   29 ar   
    32   28   30 ar   
    33   28   31 ar   
@<TRIPOS>SUBSTRUCTURE
     1 FMN401      1 GROUP   
@<TRIPOS>SET
ATOM$ORANGE STATIC     ATOMS   COLORGROUP SYSTEM 
34 2 2 5 5 7 7 9 9 10 10 11 11 12 12 13 13 14 \
14 15 15 16 16 18 18 19 19 20 20 22 22 24 24 26 26 

