#    Name: 6mx8_1_6GY
#    Modification time : Fri May 22 19:29:32 2020

@<TRIPOS>MOLECULE
6mx8_1_6GY
   40    44     1     0     0
SMALL
NO_CHARGES


@<TRIPOS>ATOM
      1 C1          4.2100   15.5960    9.9080           1 6GY1500     0.0000 
      2 C2          4.7050   16.5040    8.9890           1 6GY1500     0.0000 
      3 C3         10.7220   16.9480    8.9860           1 6GY1500     0.0000 
      4 C4          2.6900   17.6290    9.0880           1 6GY1500     0.0000 
      5 C6          2.9300   15.7740   10.3730           1 6GY1500     0.0000 
      6 C9          3.4920   20.2060    7.5580           1 6GY1500     0.0000 
      7 C10         3.7080   21.3580    6.8250           1 6GY1500     0.0000 
      8 C11         2.6420   22.1370    6.4130           1 6GY1500     0.0000 
      9 C12         1.3580   21.7560    6.7410           1 6GY1500     0.0000 
     10 C13         1.1490   20.6090    7.4790           1 6GY1500     0.0000 
     11 O14        -0.1230   20.1730    7.8360           1 6GY1500     0.0000 
     12 C15        -1.0820   20.8780    7.0590           1 6GY1500     0.0000 
     13 C18         3.2750   25.7600    5.5750           1 6GY1500     0.0000 
     14 C26         4.7270   28.2870    1.6340           1 6GY1500     0.0000 
     15 N3          3.9230   17.5080    8.5780           1 6GY1500     0.0000 
     16 N5          2.1510   16.7850    9.9780           1 6GY1500     0.0000 
     17 N7          1.8720   18.6690    8.6280           1 6GY1500     0.0000 
     18 C8          2.2060   19.8210    7.8860           1 6GY1500     0.0000 
     19 N16         2.8510   23.3160    5.6650           1 6GY1500     0.0000 
     20 C17         3.4440   24.4650    6.3410           1 6GY1500     0.0000 
     21 C19         3.7010   25.5890    4.1350           1 6GY1500     0.0000 
     22 C20         2.8940   24.4830    3.4790           1 6GY1500     0.0000 
     23 C21         3.0590   23.1700    4.2250           1 6GY1500     0.0000 
     24 N22         3.7090   26.8870    3.3940           1 6GY1500     0.0000 
     25 C23         2.3870   27.5620    3.2210           1 6GY1500     0.0000 
     26 C24         2.5630   28.9530    2.6460           1 6GY1500     0.0000 
     27 N25         3.3800   28.8790    1.4080           1 6GY1500     0.0000 
     28 C27         4.5810   26.8820    2.1840           1 6GY1500     0.0000 
     29 C28         3.4090   30.1620    0.6660           1 6GY1500     0.0000 
     30 N29         6.0240   16.3430    8.4900           1 6GY1500     0.0000 
     31 C30         6.7300   17.3280    7.7620           1 6GY1500     0.0000 
     32 C31         8.0470   17.6590    8.0590           1 6GY1500     0.0000 
     33 C32         8.6860   18.6290    7.3110           1 6GY1500     0.0000 
     34 C33         8.0460   19.2710    6.2750           1 6GY1500     0.0000 
     35 C34         6.7440   18.9430    5.9750           1 6GY1500     0.0000 
     36 C35         6.0990   17.9780    6.7180           1 6GY1500     0.0000 
     37 P1          8.9440   16.8800    9.3700           1 6GY1500     0.0000 
     38 C37         8.8920   17.9300   10.8410           1 6GY1500     0.0000 
     39 O41         8.5220   15.4540    9.6340           1 6GY1500     0.0000 
     40 CL          5.1480   14.2670   10.4700           1 6GY1500     0.0000 
@<TRIPOS>BOND
     1    1    2 du   
     2    1    5 du   
     3    1   40 du   
     4    2   15 du   
     5    2   30 du   
     6    3   37 du   
     7    4   15 du   
     8    4   16 du   
     9    4   17 du   
    10    5   16 du   
    11    6    7 du   
    12    6   18 du   
    13    7    8 du   
    14    8    9 du   
    15    8   19 du   
    16    9   10 du   
    17   10   11 du   
    18   10   18 du   
    19   11   12 du   
    20   13   20 du   
    21   13   21 du   
    22   14   27 du   
    23   14   28 du   
    24   17   18 du   
    25   19   20 du   
    26   19   23 du   
    27   21   22 du   
    28   21   24 du   
    29   22   23 du   
    30   24   25 du   
    31   24   28 du   
    32   25   26 du   
    33   26   27 du   
    34   27   29 du   
    35   30   31 du   
    36   31   32 du   
    37   31   36 du   
    38   32   33 du   
    39   32   37 du   
    40   33   34 du   
    41   34   35 du   
    42   35   36 du   
    43   37   38 du   
    44   37   39 du   
@<TRIPOS>SUBSTRUCTURE
     1 6GY1500     1 GROUP   
@<TRIPOS>SET

