#    Name: 6cc9_1_GNP
#    Modification time : Fri May 22 19:30:37 2020

@<TRIPOS>MOLECULE
6cc9_1_GNP
   32    34     1     0     1
SMALL
NO_CHARGES


@<TRIPOS>ATOM
      1 PG         43.0320   -5.5790  -23.4730 P.3       1 GNP237      0.0000 
      2 O1G        42.0940   -6.6160  -24.0800 O.co2     1 GNP237      0.0000 
      3 O2G        44.2730   -6.1930  -22.9180 O.co2     1 GNP237      0.0000 
      4 O3G        42.4540   -4.7710  -22.3830 O.co2     1 GNP237      0.0000 
      5 N3B        43.4050   -4.4950  -24.6230 N.3       1 GNP237      0.0000 
      6 PB         42.4030   -3.7200  -25.6090 P.3       1 GNP237      0.0000 
      7 O1B        41.6290   -4.7360  -26.3190 O.co2     1 GNP237      0.0000 
      8 O2B        41.5470   -2.7510  -24.8970 O.co2     1 GNP237      0.0000 
      9 O3A        43.2770   -2.9710  -26.6540 O.3       1 GNP237      0.0000 
     10 PA         44.6710   -2.2380  -26.5680 P.3       1 GNP237      0.0000 
     11 O1A        45.7790   -3.1680  -26.3260 O.co2     1 GNP237      0.0000 
     12 O2A        44.5720   -1.0250  -25.7240 O.co2     1 GNP237      0.0000 
     13 O5'        44.9510   -1.7100  -28.0070 O.3       1 GNP237      0.0000 
     14 C5'        45.0990   -2.6560  -29.0920 C.3       1 GNP237      0.0000 
     15 C4'        45.8550   -2.0060  -30.2230 C.3       1 GNP237      0.0000 
     16 O4'        44.9010   -1.5820  -31.2440 O.3       1 GNP237      0.0000 
     17 C3'        46.6370   -0.7480  -29.8310 C.3       1 GNP237      0.0000 
     18 O3'        47.9320   -0.7820  -30.4090 O.3       1 GNP237      0.0000 
     19 C2'        45.7480    0.3970  -30.3170 C.3       1 GNP237      0.0000 
     20 O2'        46.3940    1.6080  -30.6360 O.3       1 GNP237      0.0000 
     21 C1'        45.0290   -0.1870  -31.5200 C.3       1 GNP237      0.0000 
     22 N9         43.6700    0.3680  -31.7470 N.pl3     1 GNP237      0.0000 
     23 C8         42.7270    0.5850  -30.7900 C.2       1 GNP237      0.0000 
     24 N7         41.6170    1.0770  -31.2560 N.2       1 GNP237      0.0000 
     25 C5         41.8350    1.2000  -32.6320 C.2       1 GNP237      0.0000 
     26 C6         40.9850    1.6840  -33.6850 C.2       1 GNP237      0.0000 
     27 O6         39.8500    2.1130  -33.6420 O.2       1 GNP237      0.0000 
     28 N1         41.5840    1.6340  -34.9200 N.am      1 GNP237      0.0000 
     29 C2         42.8590    1.1890  -35.1560 C.2       1 GNP237      0.0000 
     30 N2         43.2400    1.2310  -36.4440 N.pl3     1 GNP237      0.0000 
     31 N3         43.6610    0.7360  -34.2000 N.2       1 GNP237      0.0000 
     32 C4         43.0930    0.7640  -32.9550 C.2       1 GNP237      0.0000 
@<TRIPOS>BOND
     1    1    2 ar   
     2    1    3 ar   
     3    1    4 ar   
     4    1    5 1    
     5    5    6 1    
     6    6    7 ar   
     7    6    8 ar   
     8    6    9 1    
     9    9   10 1    
    10   10   11 ar   
    11   10   12 ar   
    12   10   13 1    
    13   13   14 1    
    14   14   15 1    
    15   15   16 1    
    16   15   17 1    
    17   16   21 1    
    18   17   18 1    
    19   17   19 1    
    20   19   20 1    
    21   19   21 1    
    22   21   22 1    
    23   22   23 1    
    24   22   32 1    
    25   23   24 2    
    26   24   25 1    
    27   25   26 1    
    28   25   32 2    
    29   26   27 2    
    30   26   28 am   
    31   28   29 1    
    32   29   30 1    
    33   29   31 2    
    34   31   32 1    
@<TRIPOS>SUBSTRUCTURE
     1 GNP237      1 GROUP   
@<TRIPOS>SET
ATOM$ORANGE STATIC     ATOMS   COLORGROUP SYSTEM 
20 14 14 15 15 17 17 19 19 21 21 23 23 25 25 26 26 29 \
29 32 32 

