#    Name: 6ac9_4_ANP
#    Modification time : Fri May 22 19:26:59 2020

@<TRIPOS>MOLECULE
6ac9_4_ANP
   31    33     1     0     1
SMALL
NO_CHARGES


@<TRIPOS>ATOM
      1 PG         29.8870  -51.3350   -6.9180 P.3       1 ANP402      0.0000 
      2 O1G        29.7970  -50.4700   -8.0850 O.co2     1 ANP402      0.0000 
      3 O2G        30.8250  -52.5710   -7.2730 O.co2     1 ANP402      0.0000 
      4 O3G        28.4280  -51.8310   -6.5270 O.co2     1 ANP402      0.0000 
      5 PB         30.7430  -48.9700   -5.3930 P.3       1 ANP402      0.0000 
      6 O1B        31.9370  -48.4620   -6.0500 O.co2     1 ANP402      0.0000 
      7 O2B        29.4710  -48.2390   -5.9710 O.co2     1 ANP402      0.0000 
      8 N3B        30.5320  -50.5670   -5.6310 N.3       1 ANP402      0.0000 
      9 PA         29.5770  -48.3480   -2.8130 P.3       1 ANP402      0.0000 
     10 O1A        28.6080  -47.3960   -3.4190 O.co2     1 ANP402      0.0000 
     11 O2A        30.2290  -47.7320   -1.5860 O.co2     1 ANP402      0.0000 
     12 O3A        30.7440  -48.7020   -3.8400 O.3       1 ANP402      0.0000 
     13 O5'        28.9200  -49.7500   -2.4330 O.3       1 ANP402      0.0000 
     14 C5'        27.9760  -50.4240   -3.2970 C.3       1 ANP402      0.0000 
     15 C4'        26.8410  -50.9820   -2.4770 C.3       1 ANP402      0.0000 
     16 O4'        27.3800  -51.7720   -1.3930 O.3       1 ANP402      0.0000 
     17 C3'        25.9380  -49.9410   -1.8260 C.3       1 ANP402      0.0000 
     18 O3'        24.8820  -49.5540   -2.7010 O.3       1 ANP402      0.0000 
     19 C2'        25.4540  -50.6580   -0.5610 C.3       1 ANP402      0.0000 
     20 O2'        24.2680  -51.4310   -0.7350 O.3       1 ANP402      0.0000 
     21 C1'        26.6610  -51.5340   -0.1980 C.3       1 ANP402      0.0000 
     22 N9         27.5640  -50.9530    0.7950 N.pl3     1 ANP402      0.0000 
     23 C8         28.7290  -50.2680    0.5590 C.2       1 ANP402      0.0000 
     24 N7         29.3180  -49.8200    1.6410 N.2       1 ANP402      0.0000 
     25 C5         28.4810  -50.2340    2.6650 C.ar      1 ANP402      0.0000 
     26 C6         28.5220  -50.0420    4.0620 C.ar      1 ANP402      0.0000 
     27 N6         29.4710  -49.3350    4.6870 N.pl3     1 ANP402      0.0000 
     28 N1         27.5190  -50.5740    4.8010 N.ar      1 ANP402      0.0000 
     29 C2         26.5430  -51.2450    4.1730 C.ar      1 ANP402      0.0000 
     30 N3         26.3930  -51.4830    2.8640 N.ar      1 ANP402      0.0000 
     31 C4         27.3990  -50.9460    2.1590 C.ar      1 ANP402      0.0000 
@<TRIPOS>BOND
     1    1    2 ar   
     2    1    3 ar   
     3    1    4 ar   
     4    1    8 1    
     5    5    6 ar   
     6    5    7 ar   
     7    5    8 1    
     8    5   12 1    
     9    9   10 ar   
    10    9   11 ar   
    11    9   12 1    
    12    9   13 1    
    13   13   14 1    
    14   14   15 1    
    15   15   16 1    
    16   15   17 1    
    17   16   21 1    
    18   17   18 1    
    19   17   19 1    
    20   19   20 1    
    21   19   21 1    
    22   21   22 1    
    23   22   23 1    
    24   22   31 1    
    25   23   24 2    
    26   24   25 1    
    27   25   26 ar   
    28   25   31 ar   
    29   26   27 1    
    30   26   28 ar   
    31   28   29 ar   
    32   29   30 ar   
    33   30   31 ar   
@<TRIPOS>SUBSTRUCTURE
     1 ANP402      1 GROUP   
@<TRIPOS>SET
ATOM$ORANGE STATIC     ATOMS   COLORGROUP SYSTEM 
20 14 14 15 15 17 17 19 19 21 21 23 23 25 25 26 26 29 \
29 31 31 

