#    Name: 6dth_1_ARG_PRO_PRO_GLY_PHE_CAVITY_N1_6
#    Modification time : Fri May 22 19:34:52 2020

@<TRIPOS>MOLECULE
6dth_1_ARG_PRO_PRO_GLY_PHE_CAVITY_N1_6
   75     0     6     0     0
SMALL
NO_CHARGES


@<TRIPOS>ATOM
      1 OG        -20.8700  -27.0600   26.7600 O.3       1 SER1        0.0000 
      2 OG        -20.1400  -29.2000   29.6600 O.3       1 SER1        0.0000 
      3 OG        -18.9200  -28.7600   28.9000 O.3       1 SER1        0.0000 
      4 OG        -20.8700  -27.9800   29.1900 O.3       1 SER1        0.0000 
      5 OG        -19.6500  -27.5400   28.4400 O.3       1 SER1        0.0000 
      6 OG        -20.3900  -26.3100   27.9700 O.3       1 SER1        0.0000 
      7 OG        -19.9100  -25.5700   29.1800 O.3       1 SER1        0.0000 
      8 OG        -20.6400  -24.3400   28.7200 O.3       1 SER1        0.0000 
      9 OG        -18.2100  -24.3800   29.6400 O.3       1 SER1        0.0000 
     10 OG        -18.9400  -23.1600   29.1700 O.3       1 SER1        0.0000 
     11 OG        -18.4600  -21.4900   27.9600 O.3       1 SER1        0.0000 
     12 OG        -16.7500  -27.7500   33.0000 O.3       1 SER1        0.0000 
     13 OG        -17.4800  -26.5200   32.5300 O.3       1 SER1        0.0000 
     14 OG        -16.2700  -26.0800   31.7800 O.3       1 SER1        0.0000 
     15 OG        -17.0000  -24.8600   31.3100 O.3       1 SER1        0.0000 
     16 OG        -15.7800  -24.4200   30.5600 O.3       1 SER1        0.0000 
     17 OG        -16.5100  -23.1900   30.0900 O.3       1 SER1        0.0000 
     18 OG        -17.2400  -21.9700   29.6300 O.3       1 SER1        0.0000 
     19 OG        -16.0300  -21.5200   28.8700 O.3       1 SER1        0.0000 
     20 OG        -16.2700  -27.0000   34.2100 O.3       1 SER1        0.0000 
     21 OG        -15.0500  -26.5600   33.4500 O.3       1 SER1        0.0000 
     22 OG        -15.7900  -25.3400   32.9900 O.3       1 SER1        0.0000 
     23 N         -21.6000  -25.8300   26.3000 N.am      2 ALA2        0.0000 
     24 N         -21.6000  -26.7600   28.7300 N.am      2 ALA2        0.0000 
     25 N         -22.3400  -25.5300   28.2600 N.am      2 ALA2        0.0000 
     26 O         -19.6600  -28.4600   30.8700 O.2       2 ALA2        0.0000 
     27 O         -18.4400  -28.0200   30.1100 O.2       2 ALA2        0.0000 
     28 O         -20.3900  -27.2300   30.4000 O.2       2 ALA2        0.0000 
     29 O         -22.3400  -26.4500   30.6900 O.2       2 ALA2        0.0000 
     30 O         -21.1300  -26.0100   29.9400 O.2       2 ALA2        0.0000 
     31 N         -23.0800  -25.2300   30.2300 N.am      2 ALA2        0.0000 
     32 O         -21.8600  -24.7900   29.4700 O.2       2 ALA2        0.0000 
     33 N         -14.7900  -27.6100   30.2800 N.am      2 ALA2        0.0000 
     34 O         -17.9600  -27.2700   31.3200 O.2       2 ALA2        0.0000 
     35 O         -18.7000  -26.0500   30.8600 O.2       2 ALA2        0.0000 
     36 O         -20.6500  -25.2600   31.1500 O.2       2 ALA2        0.0000 
     37 O         -20.1600  -23.6000   29.9300 O.2       2 ALA2        0.0000 
     38 O         -16.0200  -28.9700   33.4600 O.2       2 ALA2        0.0000 
     39 N         -13.5800  -28.0900   31.9500 N.am      2 ALA2        0.0000 
     40 O         -13.5900  -29.0100   34.3800 O.2       2 ALA2        0.0000 
     41 OD1       -17.7300  -23.6300   30.8500 O.co2     3 ASP3        0.0000 
     42 OD1       -19.6800  -22.8500   31.1400 O.co2     3 ASP3        0.0000 
     43 OD1       -18.4600  -22.4100   30.3800 O.co2     3 ASP3        0.0000 
     44 OD1       -16.7700  -21.2200   30.8400 O.co2     3 ASP3        0.0000 
     45 CZ        -17.2200  -27.5700   29.3600 C.ar      4 PHE5        0.0000 
     46 CZ        -19.1700  -26.7900   29.6500 C.ar      4 PHE5        0.0000 
     47 CZ        -17.9600  -26.3500   28.8900 C.ar      4 PHE5        0.0000 
     48 CZ        -21.3700  -23.1200   28.2600 C.ar      4 PHE5        0.0000 
     49 CZ        -16.7400  -26.8300   30.5700 C.ar      4 PHE5        0.0000 
     50 CZ        -17.4800  -25.6000   30.1000 C.ar      4 PHE5        0.0000 
     51 CZ        -19.4300  -24.8200   30.3900 C.ar      4 PHE5        0.0000 
     52 CZ        -19.6700  -21.9300   28.7100 C.ar      4 PHE5        0.0000 
     53 CZ        -14.3200  -26.8600   31.4900 C.ar      4 PHE5        0.0000 
     54 CZ        -15.0500  -25.6400   31.0200 C.ar      4 PHE5        0.0000 
     55 CZ        -19.2000  -21.1900   29.9200 C.ar      4 PHE5        0.0000 
     56 CZ        -17.9800  -20.7400   29.1700 C.ar      4 PHE5        0.0000 
     57 CZ        -13.1000  -27.3400   33.1600 C.ar      4 PHE5        0.0000 
     58 CZ        -13.8400  -26.1200   32.7000 C.ar      4 PHE5        0.0000 
     59 CZ        -14.5700  -24.8900   32.2300 C.ar      4 PHE5        0.0000 
     60 CZ        -12.6200  -26.6000   34.3700 C.ar      4 PHE5        0.0000 
     61 CZ        -15.7900  -26.2600   35.4200 C.ar      4 PHE5        0.0000 
     62 CZ        -14.5700  -25.8100   34.6600 C.ar      4 PHE5        0.0000 
     63 CZ        -13.3600  -25.3700   33.9100 C.ar      4 PHE5        0.0000 
     64 CZ        -13.3600  -26.2900   36.3300 C.ar      4 PHE5        0.0000 
     65 CA        -21.1200  -25.0900   27.5100 C.3       5 GLY6        0.0000 
     66 CA        -23.0700  -24.3100   27.8000 C.3       5 GLY6        0.0000 
     67 CA        -17.2300  -28.4900   31.7900 C.3       5 GLY6        0.0000 
     68 CA        -16.0100  -28.0500   31.0300 C.3       5 GLY6        0.0000 
     69 CA        -14.8000  -28.5300   32.7000 C.3       5 GLY6        0.0000 
     70 CA        -15.5400  -28.2300   34.6700 C.3       5 GLY6        0.0000 
     71 CA        -13.1100  -28.2600   35.5900 C.3       5 GLY6        0.0000 
     72 CA        -15.0600  -27.4800   35.8800 C.3       5 GLY6        0.0000 
     73 CA        -13.8400  -27.0400   35.1200 C.3       5 GLY6        0.0000 
     74 DU        -15.5300  -27.3100   32.2400 H         6 CUB7        0.0000 
     75 DU        -14.3200  -27.7800   33.9100 H         6 CUB7        0.0000 
@<TRIPOS>BOND
@<TRIPOS>SUBSTRUCTURE
     1 SER1        1 GROUP   
     2 ALA2       23 GROUP   
     3 ASP3       41 GROUP   
     4 PHE5       45 GROUP   
     5 GLY6       65 GROUP   
     6 CUB7       74 GROUP   
@<TRIPOS>SET

