#    Name: 6dth_1_ARG_PRO_PRO_GLY_PHE
#    Modification time : Fri May 22 19:34:50 2020

@<TRIPOS>MOLECULE
6dth_1_ARG_PRO_PRO_GLY_PHE
   40    42     5     0     0
SMALL
NO_CHARGES


@<TRIPOS>ATOM
      1 N         -14.2750  -15.9000   23.6000 N.4       1 ARG1        0.0000 
      2 CA        -15.6840  -16.4140   23.8400 C.3       1 ARG1        0.0000 
      3 C         -15.7960  -16.9430   25.2730 C.2       1 ARG1        0.0000 
      4 O         -14.8290  -17.5430   25.7420 O.2       1 ARG1        0.0000 
      5 CB        -16.0220  -17.4880   22.7990 C.3       1 ARG1        0.0000 
      6 CG        -17.3350  -17.2100   22.0820 C.3       1 ARG1        0.0000 
      7 CD        -17.5470  -18.0800   20.8620 C.3       1 ARG1        0.0000 
      8 NE        -16.9920  -17.5330   19.6260 N.pl3     1 ARG1        0.0000 
      9 CZ        -16.4580  -18.2640   18.6450 C.cat     1 ARG1        0.0000 
     10 NH1       -16.1560  -19.5470   18.8530 N.pl3     1 ARG1        0.0000 
     11 NH2       -16.2270  -17.7100   17.4620 N.pl3     1 ARG1        0.0000 
     12 N         -16.8860  -16.6670   26.0480 N.am      2 PRO2        0.0000 
     13 CA        -17.1300  -17.3300   27.3310 C.3       2 PRO2        0.0000 
     14 C         -17.5190  -18.7900   27.1740 C.2       2 PRO2        0.0000 
     15 O         -18.5270  -19.0930   26.5420 O.2       2 PRO2        0.0000 
     16 CB        -18.2810  -16.5390   27.9900 C.3       2 PRO2        0.0000 
     17 CG        -18.1760  -15.1870   27.3440 C.3       2 PRO2        0.0000 
     18 CD        -17.8340  -15.5510   25.9040 C.3       2 PRO2        0.0000 
     19 N         -16.7110  -19.7130   27.7350 N.am      3 PRO3        0.0000 
     20 CA        -17.0260  -21.1360   27.8000 C.3       3 PRO3        0.0000 
     21 C         -18.1420  -21.4660   28.8000 C.2       3 PRO3        0.0000 
     22 O         -18.2180  -20.8480   29.8580 O.2       3 PRO3        0.0000 
     23 CB        -15.7250  -21.8140   28.2680 C.3       3 PRO3        0.0000 
     24 CG        -14.6550  -20.7610   28.0900 C.3       3 PRO3        0.0000 
     25 CD        -15.3830  -19.4520   28.2900 C.3       3 PRO3        0.0000 
     26 N         -18.9960  -22.4220   28.3870 N.am      4 GLY4        0.0000 
     27 CA        -19.9290  -23.1680   29.2170 C.3       4 GLY4        0.0000 
     28 C         -19.2150  -23.8300   30.3820 C.2       4 GLY4        0.0000 
     29 O         -19.8230  -24.0270   31.4230 O.2       4 GLY4        0.0000 
     30 N         -17.9290  -24.1630   30.1840 N.am      5 PHE5        0.0000 
     31 CA        -17.0450  -24.6910   31.2290 C.3       5 PHE5        0.0000 
     32 C         -15.8840  -23.7210   31.4280 C.2       5 PHE5        0.0000 
     33 O         -15.0290  -23.9830   32.2580 O.2       5 PHE5        0.0000 
     34 CB        -16.5200  -26.0970   30.9060 C.3       5 PHE5        0.0000 
     35 CG        -17.6000  -27.1270   30.6850 C.ar      5 PHE5        0.0000 
     36 CD1       -17.8580  -28.1050   31.6330 C.ar      5 PHE5        0.0000 
     37 CD2       -18.3810  -27.1020   29.5340 C.ar      5 PHE5        0.0000 
     38 CE1       -18.8570  -29.0450   31.4210 C.ar      5 PHE5        0.0000 
     39 CE2       -19.3850  -28.0380   29.3290 C.ar      5 PHE5        0.0000 
     40 CZ        -19.6210  -29.0110   30.2730 C.ar      5 PHE5        0.0000 
@<TRIPOS>BOND
     1    1    2 1    
     2    2    3 1    
     3    2    5 1    
     4    3    4 2    
     5    3   12 am   
     6    5    6 1    
     7    6    7 1    
     8    7    8 1    
     9    8    9 ar   
    10    9   10 ar   
    11    9   11 ar   
    12   12   13 1    
    13   12   18 1    
    14   13   14 1    
    15   13   16 1    
    16   14   15 2    
    17   14   19 am   
    18   16   17 1    
    19   17   18 1    
    20   19   20 1    
    21   19   25 1    
    22   20   21 1    
    23   20   23 1    
    24   21   22 2    
    25   21   26 am   
    26   23   24 1    
    27   24   25 1    
    28   26   27 1    
    29   27   28 1    
    30   28   29 2    
    31   28   30 am   
    32   30   31 1    
    33   31   32 1    
    34   31   34 1    
    35   32   33 2    
    36   34   35 1    
    37   35   36 ar   
    38   35   37 ar   
    39   36   38 ar   
    40   37   39 ar   
    41   38   40 ar   
    42   39   40 ar   
@<TRIPOS>SUBSTRUCTURE
     1 ARG1        1 RESIDUE 
     2 PRO2       12 RESIDUE 
     3 PRO3       19 RESIDUE 
     4 GLY4       26 RESIDUE 
     5 PHE5       30 RESIDUE 
@<TRIPOS>SET

