#    Name: 6cjt_1_PCG
#    Modification time : Fri May 22 19:25:31 2020

@<TRIPOS>MOLECULE
6cjt_1_PCG
   23    26     1     0     0
SMALL
NO_CHARGES


@<TRIPOS>ATOM
      1 PA        110.7840  134.3480  179.7090 P.3       1 PCG500      0.0000 
      2 O1A       111.1380  134.1200  181.1040 O.co2     1 PCG500      0.0000 
      3 O2A       112.0380  134.5300  178.7580 O.co2     1 PCG500      0.0000 
      4 O5'       109.8790  133.1310  179.1770 O.3       1 PCG500      0.0000 
      5 C5'       109.6060  133.2600  177.7970 C.3       1 PCG500      0.0000 
      6 C4'       109.1280  134.6970  177.5940 C.3       1 PCG500      0.0000 
      7 O4'       107.9390  134.7470  176.8390 O.3       1 PCG500      0.0000 
      8 C3'       108.6750  135.2910  178.9470 C.3       1 PCG500      0.0000 
      9 O3'       109.8550  135.6400  179.6240 O.3       1 PCG500      0.0000 
     10 C2'       107.8040  136.4400  178.5290 C.3       1 PCG500      0.0000 
     11 O2'       108.5820  137.6180  178.4960 O.3       1 PCG500      0.0000 
     12 C1'       107.4710  136.0570  177.0720 C.3       1 PCG500      0.0000 
     13 N9        105.9900  135.9230  176.9340 N.pl3     1 PCG500      0.0000 
     14 C8        105.1780  136.5120  176.0200 C.2       1 PCG500      0.0000 
     15 N7        103.9410  136.1840  176.1570 N.2       1 PCG500      0.0000 
     16 C5        103.9200  135.3220  177.2120 C.2       1 PCG500      0.0000 
     17 C6        102.8490  134.6600  177.7930 C.2       1 PCG500      0.0000 
     18 O6        101.6770  134.7380  177.4400 O.2       1 PCG500      0.0000 
     19 N1        103.1630  133.8450  178.8630 N.am      1 PCG500      0.0000 
     20 C2        104.4550  133.7140  179.3090 C.2       1 PCG500      0.0000 
     21 N2        104.7010  132.8930  180.3710 N.pl3     1 PCG500      0.0000 
     22 N3        105.5430  134.3230  178.7920 N.2       1 PCG500      0.0000 
     23 C4        105.2540  135.1250  177.7460 C.2       1 PCG500      0.0000 
@<TRIPOS>BOND
     1    1    2 ar   
     2    1    3 ar   
     3    1    4 1    
     4    1    9 1    
     5    4    5 1    
     6    5    6 1    
     7    6    7 1    
     8    6    8 1    
     9    7   12 1    
    10    8    9 1    
    11    8   10 1    
    12   10   11 1    
    13   10   12 1    
    14   12   13 1    
    15   13   14 1    
    16   13   23 1    
    17   14   15 2    
    18   15   16 1    
    19   16   17 1    
    20   16   23 2    
    21   17   18 2    
    22   17   19 am   
    23   19   20 1    
    24   20   21 1    
    25   20   22 2    
    26   22   23 1    
@<TRIPOS>SUBSTRUCTURE
     1 PCG500      1 GROUP   
@<TRIPOS>SET

