#    Name: 6cjt_4_PCG
#    Modification time : Fri May 22 19:25:44 2020

@<TRIPOS>MOLECULE
6cjt_4_PCG
   23    26     1     0     0
SMALL
NO_CHARGES


@<TRIPOS>ATOM
      1 PA        134.3480  169.8410  179.7090 P.3       1 PCG500      0.0000 
      2 O1A       134.1200  169.4870  181.1040 O.co2     1 PCG500      0.0000 
      3 O2A       134.5300  168.5870  178.7580 O.co2     1 PCG500      0.0000 
      4 O5'       133.1310  170.7460  179.1770 O.3       1 PCG500      0.0000 
      5 C5'       133.2600  171.0190  177.7970 C.3       1 PCG500      0.0000 
      6 C4'       134.6970  171.4970  177.5940 C.3       1 PCG500      0.0000 
      7 O4'       134.7470  172.6860  176.8390 O.3       1 PCG500      0.0000 
      8 C3'       135.2910  171.9500  178.9470 C.3       1 PCG500      0.0000 
      9 O3'       135.6400  170.7700  179.6240 O.3       1 PCG500      0.0000 
     10 C2'       136.4400  172.8210  178.5290 C.3       1 PCG500      0.0000 
     11 O2'       137.6180  172.0430  178.4960 O.3       1 PCG500      0.0000 
     12 C1'       136.0570  173.1540  177.0720 C.3       1 PCG500      0.0000 
     13 N9        135.9230  174.6350  176.9340 N.pl3     1 PCG500      0.0000 
     14 C8        136.5120  175.4470  176.0200 C.2       1 PCG500      0.0000 
     15 N7        136.1840  176.6840  176.1570 N.2       1 PCG500      0.0000 
     16 C5        135.3220  176.7050  177.2120 C.2       1 PCG500      0.0000 
     17 C6        134.6600  177.7760  177.7930 C.2       1 PCG500      0.0000 
     18 O6        134.7380  178.9480  177.4400 O.2       1 PCG500      0.0000 
     19 N1        133.8450  177.4620  178.8630 N.am      1 PCG500      0.0000 
     20 C2        133.7140  176.1700  179.3090 C.2       1 PCG500      0.0000 
     21 N2        132.8930  175.9240  180.3710 N.pl3     1 PCG500      0.0000 
     22 N3        134.3230  175.0820  178.7920 N.2       1 PCG500      0.0000 
     23 C4        135.1250  175.3710  177.7460 C.2       1 PCG500      0.0000 
@<TRIPOS>BOND
     1    1    2 ar   
     2    1    3 ar   
     3    1    4 1    
     4    1    9 1    
     5    4    5 1    
     6    5    6 1    
     7    6    7 1    
     8    6    8 1    
     9    7   12 1    
    10    8    9 1    
    11    8   10 1    
    12   10   11 1    
    13   10   12 1    
    14   12   13 1    
    15   13   14 1    
    16   13   23 1    
    17   14   15 2    
    18   15   16 1    
    19   16   17 1    
    20   16   23 2    
    21   17   18 2    
    22   17   19 am   
    23   19   20 1    
    24   20   21 1    
    25   20   22 2    
    26   22   23 1    
@<TRIPOS>SUBSTRUCTURE
     1 PCG500      1 GROUP   
@<TRIPOS>SET

