#    Name: 6cjt_2_PCG
#    Modification time : Fri May 22 19:25:35 2020

@<TRIPOS>MOLECULE
6cjt_2_PCG
   23    26     1     0     0
SMALL
NO_CHARGES


@<TRIPOS>ATOM
      1 PA        146.2770  110.7840  179.7090 P.3       1 PCG500      0.0000 
      2 O1A       146.5050  111.1380  181.1040 O.co2     1 PCG500      0.0000 
      3 O2A       146.0950  112.0380  178.7580 O.co2     1 PCG500      0.0000 
      4 O5'       147.4940  109.8790  179.1770 O.3       1 PCG500      0.0000 
      5 C5'       147.3650  109.6060  177.7970 C.3       1 PCG500      0.0000 
      6 C4'       145.9280  109.1280  177.5940 C.3       1 PCG500      0.0000 
      7 O4'       145.8780  107.9390  176.8390 O.3       1 PCG500      0.0000 
      8 C3'       145.3340  108.6750  178.9470 C.3       1 PCG500      0.0000 
      9 O3'       144.9850  109.8550  179.6240 O.3       1 PCG500      0.0000 
     10 C2'       144.1850  107.8040  178.5290 C.3       1 PCG500      0.0000 
     11 O2'       143.0070  108.5820  178.4960 O.3       1 PCG500      0.0000 
     12 C1'       144.5680  107.4710  177.0720 C.3       1 PCG500      0.0000 
     13 N9        144.7020  105.9900  176.9340 N.pl3     1 PCG500      0.0000 
     14 C8        144.1130  105.1780  176.0200 C.2       1 PCG500      0.0000 
     15 N7        144.4410  103.9410  176.1570 N.2       1 PCG500      0.0000 
     16 C5        145.3030  103.9200  177.2120 C.2       1 PCG500      0.0000 
     17 C6        145.9650  102.8490  177.7930 C.2       1 PCG500      0.0000 
     18 O6        145.8870  101.6770  177.4400 O.2       1 PCG500      0.0000 
     19 N1        146.7800  103.1630  178.8630 N.am      1 PCG500      0.0000 
     20 C2        146.9110  104.4550  179.3090 C.2       1 PCG500      0.0000 
     21 N2        147.7320  104.7010  180.3710 N.pl3     1 PCG500      0.0000 
     22 N3        146.3020  105.5430  178.7920 N.2       1 PCG500      0.0000 
     23 C4        145.5000  105.2540  177.7460 C.2       1 PCG500      0.0000 
@<TRIPOS>BOND
     1    1    2 ar   
     2    1    3 ar   
     3    1    4 1    
     4    1    9 1    
     5    4    5 1    
     6    5    6 1    
     7    6    7 1    
     8    6    8 1    
     9    7   12 1    
    10    8    9 1    
    11    8   10 1    
    12   10   11 1    
    13   10   12 1    
    14   12   13 1    
    15   13   14 1    
    16   13   23 1    
    17   14   15 2    
    18   15   16 1    
    19   16   17 1    
    20   16   23 2    
    21   17   18 2    
    22   17   19 am   
    23   19   20 1    
    24   20   21 1    
    25   20   22 2    
    26   22   23 1    
@<TRIPOS>SUBSTRUCTURE
     1 PCG500      1 GROUP   
@<TRIPOS>SET

