#    Name: 6nnh_2_1CY
#    Modification time : Fri May 22 19:32:02 2020

@<TRIPOS>MOLECULE
6nnh_2_1CY
   17    18     1     0     0
SMALL
NO_CHARGES


@<TRIPOS>ATOM
      1 N1         34.0760   -8.9290   13.3850 N.pl3     1 1CY201      0.0000 
      2 C2         33.7200   -7.7740   14.1600 C.cat     1 1CY201      0.0000 
      3 N3         34.2700   -6.4880   13.8560 N.pl3     1 1CY201      0.0000 
      4 C4         35.1710   -6.3750   12.7540 C.cat     1 1CY201      0.0000 
      5 N5         35.5510   -7.5290   11.9920 N.pl3     1 1CY201      0.0000 
      6 C6         35.0840   -8.8430   12.3830 C.3       1 1CY201      0.0000 
      7 N7         32.7920   -7.9110   15.2250 N.pl3     1 1CY201      0.0000 
      8 N8         35.6890   -5.0890   12.4420 N.pl3     1 1CY201      0.0000 
      9 C9         36.2720   -9.3610   13.2120 C.3       1 1CY201      0.0000 
     10 C10        34.7650   -9.7490   11.2060 C.3       1 1CY201      0.0000 
     11 C11        36.4430   -7.3520   10.8770 C.ar      1 1CY201      0.0000 
     12 C12        35.8010   -7.0850    9.6660 C.ar      1 1CY201      0.0000 
     13 C13        36.5550   -6.9020    8.5340 C.ar      1 1CY201      0.0000 
     14 C14        37.9260   -6.9700    8.6730 C.ar      1 1CY201      0.0000 
     15 C15        38.5700   -7.2190    9.8690 C.ar      1 1CY201      0.0000 
     16 C16        37.8100   -7.4120   10.9950 C.ar      1 1CY201      0.0000 
     17 CL17       38.9010   -6.7370    7.2260 Cl        1 1CY201      0.0000 
@<TRIPOS>BOND
     1    1    2 ar   
     2    1    6 1    
     3    2    3 ar   
     4    2    7 ar   
     5    3    4 ar   
     6    4    5 ar   
     7    4    8 ar   
     8    5    6 1    
     9    5   11 1    
    10    6    9 1    
    11    6   10 1    
    12   11   12 ar   
    13   11   16 ar   
    14   12   13 ar   
    15   13   14 ar   
    16   14   15 ar   
    17   14   17 1    
    18   15   16 ar   
@<TRIPOS>SUBSTRUCTURE
     1 1CY201      1 GROUP   
@<TRIPOS>SET

