#    Name: 6nnh_1_1CY_CAVITY_N1_6
#    Modification time : Fri May 22 19:32:00 2020

@<TRIPOS>MOLECULE
6nnh_1_1CY_CAVITY_N1_6
   63     0     5     0     0
SMALL
NO_CHARGES


@<TRIPOS>ATOM
      1 N           7.4600    7.0000   24.5500 N.am      1 ALA2        0.0000 
      2 N           8.1400    5.0200   24.9100 N.am      1 ALA2        0.0000 
      3 N           7.3800    6.0400   25.7000 N.am      1 ALA2        0.0000 
      4 N           8.0600    4.0600   26.0600 N.am      1 ALA2        0.0000 
      5 O           8.2700    7.2400   30.6800 O.2       1 ALA2        0.0000 
      6 O           7.5100    8.2600   31.4800 O.2       1 ALA2        0.0000 
      7 O           7.4300    7.3000   32.6300 O.2       1 ALA2        0.0000 
      8 O           9.5600    7.7800   31.2200 O.2       1 ALA2        0.0000 
      9 O           8.7900    8.8000   32.0200 O.2       1 ALA2        0.0000 
     10 O          10.8500    8.3300   31.7700 O.2       1 ALA2        0.0000 
     11 O          10.0800    9.3400   32.5600 O.2       1 ALA2        0.0000 
     12 NZ          9.2700    3.6500   27.7500 N.4       2 LYS4        0.0000 
     13 CZ          9.4300    5.5700   25.4500 C.ar      3 PHE5        0.0000 
     14 CZ          8.6700    6.5800   26.2500 C.ar      3 PHE5        0.0000 
     15 CZ         10.1100    3.5900   25.8100 C.ar      3 PHE5        0.0000 
     16 CZ          9.3500    4.6100   26.6000 C.ar      3 PHE5        0.0000 
     17 CZ          9.9600    7.1300   26.7900 C.ar      3 PHE5        0.0000 
     18 CZ          9.1900    8.1400   27.5900 C.ar      3 PHE5        0.0000 
     19 CZ         10.6400    5.1500   27.1500 C.ar      3 PHE5        0.0000 
     20 CZ          9.8800    6.1700   27.9400 C.ar      3 PHE5        0.0000 
     21 CZ         10.4800    8.6900   28.1300 C.ar      3 PHE5        0.0000 
     22 CZ         10.4000    7.7300   29.2800 C.ar      3 PHE5        0.0000 
     23 CA          5.3300    6.5100   25.9600 C.3       4 GLY6        0.0000 
     24 CA          6.0100    4.5400   26.3100 C.3       4 GLY6        0.0000 
     25 CA          6.7800    8.9800   24.2000 C.3       4 GLY6        0.0000 
     26 CA          6.7000    8.0200   25.3500 C.3       4 GLY6        0.0000 
     27 CA          5.9300    9.0300   26.1500 C.3       4 GLY6        0.0000 
     28 CA          5.8500    8.0700   27.3000 C.3       4 GLY6        0.0000 
     29 CA          7.3000    5.0800   26.8600 C.3       4 GLY6        0.0000 
     30 CA          6.5400    6.1000   27.6500 C.3       4 GLY6        0.0000 
     31 CA          7.9800    3.1000   27.2100 C.3       4 GLY6        0.0000 
     32 CA          7.2200    4.1200   28.0100 C.3       4 GLY6        0.0000 
     33 CA          8.7500    7.5400   25.1000 C.3       4 GLY6        0.0000 
     34 CA          7.9800    8.5600   25.8900 C.3       4 GLY6        0.0000 
     35 CA          7.2200    9.5800   26.6900 C.3       4 GLY6        0.0000 
     36 CA          7.1400    8.6200   27.8400 C.3       4 GLY6        0.0000 
     37 CA          7.7400    5.6800   29.3400 C.3       4 GLY6        0.0000 
     38 CA          9.2700    9.1000   26.4400 C.3       4 GLY6        0.0000 
     39 CA          8.5100   10.1200   27.2300 C.3       4 GLY6        0.0000 
     40 CA          8.4300    9.1600   28.3800 C.3       4 GLY6        0.0000 
     41 CA          7.5900    9.2200   30.3300 C.3       4 GLY6        0.0000 
     42 CA         10.5600    4.1900   28.3000 C.3       4 GLY6        0.0000 
     43 CA          9.7200    9.7000   28.9200 C.3       4 GLY6        0.0000 
     44 CA          8.9600   10.7200   29.7200 C.3       4 GLY6        0.0000 
     45 CA          8.1900   11.7400   30.5100 C.3       4 GLY6        0.0000 
     46 CA         11.0800    5.7500   29.6300 C.3       4 GLY6        0.0000 
     47 CA         10.3200    6.7700   30.4300 C.3       4 GLY6        0.0000 
     48 CA         11.0100   10.2500   29.4700 C.3       4 GLY6        0.0000 
     49 CA         10.2400   11.2600   30.2600 C.3       4 GLY6        0.0000 
     50 DU          6.6200    7.0600   26.5000 H         5 CUB7        0.0000 
     51 DU          7.9000    7.6000   27.0400 H         5 CUB7        0.0000 
     52 DU          8.5900    5.6200   27.4000 H         5 CUB7        0.0000 
     53 DU          7.8200    6.6400   28.1900 H         5 CUB7        0.0000 
     54 DU          7.0600    7.6600   28.9900 H         5 CUB7        0.0000 
     55 DU          8.5100    4.6600   28.5500 H         5 CUB7        0.0000 
     56 DU          6.9800    6.7000   30.1400 H         5 CUB7        0.0000 
     57 DU          9.1100    7.1800   28.7400 H         5 CUB7        0.0000 
     58 DU          8.3500    8.2000   29.5300 H         5 CUB7        0.0000 
     59 DU          9.8000    5.2100   29.0900 H         5 CUB7        0.0000 
     60 DU          9.0300    6.2200   29.8900 H         5 CUB7        0.0000 
     61 DU          9.6400    8.7400   30.0700 H         5 CUB7        0.0000 
     62 DU          8.8700    9.7600   30.8700 H         5 CUB7        0.0000 
     63 DU         10.1600   10.3000   31.4100 H         5 CUB7        0.0000 
@<TRIPOS>BOND
@<TRIPOS>SUBSTRUCTURE
     1 ALA2        1 GROUP   
     2 LYS4       12 GROUP   
     3 PHE5       13 GROUP   
     4 GLY6       23 GROUP   
     5 CUB7       50 GROUP   
@<TRIPOS>SET

