#    Name: 6nnh_1_1CY
#    Modification time : Fri May 22 19:32:00 2020

@<TRIPOS>MOLECULE
6nnh_1_1CY
   17    18     1     0     0
SMALL
NO_CHARGES


@<TRIPOS>ATOM
      1 N1         10.7680    2.5250   27.8660 N.pl3     1 1CY201      0.0000 
      2 C2         11.2560    1.9850   26.6310 C.cat     1 1CY201      0.0000 
      3 N3         10.8360    2.5200   25.3880 N.pl3     1 1CY201      0.0000 
      4 C4          9.9160    3.5950   25.3880 C.cat     1 1CY201      0.0000 
      5 N5          9.4000    4.1450   26.5960 N.pl3     1 1CY201      0.0000 
      6 C6          9.7700    3.5630   27.8790 C.3       1 1CY201      0.0000 
      7 N7         12.1940    0.9210   26.6050 N.pl3     1 1CY201      0.0000 
      8 N8          9.5150    4.1310   24.1460 N.pl3     1 1CY201      0.0000 
      9 C9         10.1780    4.6070   28.9010 C.3       1 1CY201      0.0000 
     10 C10         8.5260    2.7750   28.3120 C.3       1 1CY201      0.0000 
     11 C11         8.5010    5.2590   26.5040 C.ar      1 1CY201      0.0000 
     12 C12         7.1350    5.1100   26.4330 C.ar      1 1CY201      0.0000 
     13 C13         6.3710    6.2560   26.3350 C.ar      1 1CY201      0.0000 
     14 C14         6.9940    7.4870   26.3060 C.ar      1 1CY201      0.0000 
     15 C15         8.3610    7.6400   26.3770 C.ar      1 1CY201      0.0000 
     16 C16         9.1310    6.5000   26.4580 C.ar      1 1CY201      0.0000 
     17 CL17        6.0040    8.9410   26.1950 Cl        1 1CY201      0.0000 
@<TRIPOS>BOND
     1    1    2 ar   
     2    1    6 1    
     3    2    3 ar   
     4    2    7 ar   
     5    3    4 ar   
     6    4    5 ar   
     7    4    8 ar   
     8    5    6 1    
     9    5   11 1    
    10    6    9 1    
    11    6   10 1    
    12   11   12 ar   
    13   11   16 ar   
    14   12   13 ar   
    15   13   14 ar   
    16   14   15 ar   
    17   14   17 1    
    18   15   16 ar   
@<TRIPOS>SUBSTRUCTURE
     1 1CY201      1 GROUP   
@<TRIPOS>SET

