#    Name: 6bb2_5_NAD
#    Modification time : Fri May 22 19:25:53 2020

@<TRIPOS>MOLECULE
6bb2_5_NAD
   44    48     1     0     1
SMALL
NO_CHARGES


@<TRIPOS>ATOM
      1 PA         10.1620   54.7530  228.2550 P.3       1 NAD801      0.0000 
      2 O1A         9.8520   54.4960  229.7180 O.co2     1 NAD801      0.0000 
      3 O2A        11.5880   55.2460  227.9830 O.co2     1 NAD801      0.0000 
      4 O5B         9.1720   55.8110  227.6730 O.3       1 NAD801      0.0000 
      5 C5B         7.8550   55.8840  228.0030 C.3       1 NAD801      0.0000 
      6 C4B         7.3210   57.2150  227.8750 C.3       1 NAD801      0.0000 
      7 O4B         5.9350   57.1630  228.0440 O.3       1 NAD801      0.0000 
      8 C3B         7.8620   58.0850  228.9510 C.3       1 NAD801      0.0000 
      9 O3B         8.5120   59.1810  228.3740 O.3       1 NAD801      0.0000 
     10 C2B         6.7320   58.3850  229.7630 C.3       1 NAD801      0.0000 
     11 O2B         6.7130   59.6060  230.4140 O.3       1 NAD801      0.0000 
     12 C1B         5.6300   58.2980  228.7750 C.3       1 NAD801      0.0000 
     13 N9A         4.3090   58.2270  229.3380 N.pl3     1 NAD801      0.0000 
     14 C8A         3.9250   57.5090  230.3980 C.2       1 NAD801      0.0000 
     15 N7A         2.6190   57.7330  230.6290 N.2       1 NAD801      0.0000 
     16 C5A         2.1570   58.5920  229.7000 C.ar      1 NAD801      0.0000 
     17 C6A         0.9000   59.1950  229.4070 C.ar      1 NAD801      0.0000 
     18 N6A        -0.2790   58.9200  230.2280 N.pl3     1 NAD801      0.0000 
     19 N1A         0.7870   60.0430  228.3520 N.ar      1 NAD801      0.0000 
     20 C2A         1.8840   60.3320  227.5950 C.ar      1 NAD801      0.0000 
     21 N3A         3.0950   59.7860  227.8430 N.ar      1 NAD801      0.0000 
     22 C4A         3.2540   58.9240  228.8810 C.ar      1 NAD801      0.0000 
     23 O3          9.9110   53.3660  227.5050 O.3       1 NAD801      0.0000 
     24 PN         10.3130   53.0280  225.9830 P.3       1 NAD801      0.0000 
     25 O1N        10.1970   54.2930  225.1080 O.co2     1 NAD801      0.0000 
     26 O2N        11.7090   52.4440  225.8740 O.co2     1 NAD801      0.0000 
     27 O5D         9.2200   52.0110  225.4720 O.3       1 NAD801      0.0000 
     28 C5D         7.8540   52.2940  225.5770 C.3       1 NAD801      0.0000 
     29 C4D         6.9210   51.2470  225.2980 C.3       1 NAD801      0.0000 
     30 O4D         7.2280   50.6310  224.0030 O.3       1 NAD801      0.0000 
     31 C3D         6.9750   50.1580  226.2980 C.3       1 NAD801      0.0000 
     32 O3D         5.6810   49.7600  226.6100 O.3       1 NAD801      0.0000 
     33 C2D         7.7720   49.0940  225.6410 C.3       1 NAD801      0.0000 
     34 O2D         7.6040   47.8610  226.1650 O.3       1 NAD801      0.0000 
     35 C1D         7.3540   49.2420  224.2130 C.3       1 NAD801      0.0000 
     36 N1N         8.2100   48.5510  223.2340 N.pl3     1 NAD801      0.0000 
     37 C2N         7.5540   47.8880  222.2470 C.ar      1 NAD801      0.0000 
     38 C3N         8.2650   47.2440  221.2240 C.ar      1 NAD801      0.0000 
     39 C7N         7.4850   46.4590  220.1980 C.2       1 NAD801      0.0000 
     40 O7N         8.1140   45.7400  219.3920 O.2       1 NAD801      0.0000 
     41 N7N         6.0440   46.4990  220.1560 N.am      1 NAD801      0.0000 
     42 C4N         9.6850   47.3330  221.2000 C.ar      1 NAD801      0.0000 
     43 C5N        10.3760   48.0670  222.1970 C.ar      1 NAD801      0.0000 
     44 C6N         9.5890   48.6780  223.2010 C.ar      1 NAD801      0.0000 
@<TRIPOS>BOND
     1    1    2 ar   
     2    1    3 ar   
     3    1    4 1    
     4    1   23 1    
     5    4    5 1    
     6    5    6 1    
     7    6    7 1    
     8    6    8 1    
     9    7   12 1    
    10    8    9 1    
    11    8   10 1    
    12   10   11 1    
    13   10   12 1    
    14   12   13 1    
    15   13   14 1    
    16   13   22 1    
    17   14   15 2    
    18   15   16 1    
    19   16   17 ar   
    20   16   22 ar   
    21   17   18 1    
    22   17   19 ar   
    23   19   20 ar   
    24   20   21 ar   
    25   21   22 ar   
    26   23   24 1    
    27   24   25 ar   
    28   24   26 ar   
    29   24   27 1    
    30   27   28 1    
    31   28   29 1    
    32   29   30 1    
    33   29   31 1    
    34   30   35 1    
    35   31   32 1    
    36   31   33 1    
    37   33   34 1    
    38   33   35 1    
    39   35   36 1    
    40   36   37 ar   
    41   36   44 ar   
    42   37   38 ar   
    43   38   39 1    
    44   38   42 ar   
    45   39   40 2    
    46   39   41 am   
    47   42   43 ar   
    48   43   44 ar   
@<TRIPOS>SUBSTRUCTURE
     1 NAD801      1 GROUP   
@<TRIPOS>SET
ATOM$ORANGE STATIC     ATOMS   COLORGROUP SYSTEM 
42 5 5 6 6 8 8 10 10 12 12 14 14 16 16 17 17 20 \
20 22 22 28 28 29 29 31 31 33 33 35 35 37 37 38 38 39 \
39 42 42 43 43 44 44 

