#    Name: 6bb2_4_NAD
#    Modification time : Fri May 22 19:25:46 2020

@<TRIPOS>MOLECULE
6bb2_4_NAD
   44    48     1     0     1
SMALL
NO_CHARGES


@<TRIPOS>ATOM
      1 PA         12.2060   11.9540  104.6880 P.3       1 NAD801      0.0000 
      2 O1A        11.8700   12.5990  103.3640 O.co2     1 NAD801      0.0000 
      3 O2A        13.2470   10.8360  104.6060 O.co2     1 NAD801      0.0000 
      4 O5B        10.9150   11.3740  105.3360 O.3       1 NAD801      0.0000 
      5 C5B         9.6950   11.9710  105.2190 C.3       1 NAD801      0.0000 
      6 C4B         8.6180   11.0190  105.2780 C.3       1 NAD801      0.0000 
      7 O4B         7.4040   11.6770  105.4120 O.3       1 NAD801      0.0000 
      8 C3B         8.5790   10.2120  104.0250 C.3       1 NAD801      0.0000 
      9 O3B         8.6760    8.8480  104.3350 O.3       1 NAD801      0.0000 
     10 C2B         7.3670   10.5990  103.4220 C.3       1 NAD801      0.0000 
     11 O2B         6.7460    9.6600  102.6180 O.3       1 NAD801      0.0000 
     12 C1B         6.5430   10.9560  104.6090 C.3       1 NAD801      0.0000 
     13 N9A         5.3560   11.7110  104.3030 N.pl3     1 NAD801      0.0000 
     14 C8A         5.2380   12.7010  103.4010 C.2       1 NAD801      0.0000 
     15 N7A         3.9520   13.1300  103.4100 N.2       1 NAD801      0.0000 
     16 C5A         3.2480   12.3940  104.2970 C.ar      1 NAD801      0.0000 
     17 C6A         1.9150   12.3530  104.7460 C.ar      1 NAD801      0.0000 
     18 N6A         0.9180   13.2520  104.1960 N.pl3     1 NAD801      0.0000 
     19 N1A         1.5260   11.4700  105.6920 N.ar      1 NAD801      0.0000 
     20 C2A         2.4360   10.6110  106.2080 C.ar      1 NAD801      0.0000 
     21 N3A         3.7240   10.6210  105.8120 N.ar      1 NAD801      0.0000 
     22 C4A         4.1530   11.4870  104.8610 C.ar      1 NAD801      0.0000 
     23 O3         12.7330   13.1710  105.5810 O.3       1 NAD801      0.0000 
     24 PN         13.4150   13.0350  107.0360 P.3       1 NAD801      0.0000 
     25 O1N        12.7780   11.8430  107.8170 O.co2     1 NAD801      0.0000 
     26 O2N        14.9160   12.9070  106.9230 O.co2     1 NAD801      0.0000 
     27 O5D        12.9740   14.3300  107.8000 O.3       1 NAD801      0.0000 
     28 C5D        11.6300   14.6730  107.9530 C.3       1 NAD801      0.0000 
     29 C4D        11.3310   15.9610  108.4990 C.3       1 NAD801      0.0000 
     30 O4D        12.0420   16.1350  109.7790 O.3       1 NAD801      0.0000 
     31 C3D        11.7720   17.0680  107.6200 C.3       1 NAD801      0.0000 
     32 O3D        10.8000   18.0440  107.6160 O.3       1 NAD801      0.0000 
     33 C2D        13.0300   17.5380  108.2390 C.3       1 NAD801      0.0000 
     34 O2D        13.3740   18.7910  107.8890 O.3       1 NAD801      0.0000 
     35 C1D        12.7590   17.3400  109.6970 C.3       1 NAD801      0.0000 
     36 N1N        13.9380   17.3910  110.5660 N.pl3     1 NAD801      0.0000 
     37 C2N        13.7830   18.0970  111.7210 C.ar      1 NAD801      0.0000 
     38 C3N        14.8330   18.1630  112.6520 C.ar      1 NAD801      0.0000 
     39 C7N        14.6350   19.0270  113.8710 C.2       1 NAD801      0.0000 
     40 O7N        15.6070   19.2550  114.6150 O.2       1 NAD801      0.0000 
     41 N7N        13.3700   19.6380  114.1580 N.am      1 NAD801      0.0000 
     42 C4N        16.0390   17.4530  112.4000 C.ar      1 NAD801      0.0000 
     43 C5N        16.1810   16.6710  111.2290 C.ar      1 NAD801      0.0000 
     44 C6N        15.0930   16.6590  110.3280 C.ar      1 NAD801      0.0000 
@<TRIPOS>BOND
     1    1    2 ar   
     2    1    3 ar   
     3    1    4 1    
     4    1   23 1    
     5    4    5 1    
     6    5    6 1    
     7    6    7 1    
     8    6    8 1    
     9    7   12 1    
    10    8    9 1    
    11    8   10 1    
    12   10   11 1    
    13   10   12 1    
    14   12   13 1    
    15   13   14 1    
    16   13   22 1    
    17   14   15 2    
    18   15   16 1    
    19   16   17 ar   
    20   16   22 ar   
    21   17   18 1    
    22   17   19 ar   
    23   19   20 ar   
    24   20   21 ar   
    25   21   22 ar   
    26   23   24 1    
    27   24   25 ar   
    28   24   26 ar   
    29   24   27 1    
    30   27   28 1    
    31   28   29 1    
    32   29   30 1    
    33   29   31 1    
    34   30   35 1    
    35   31   32 1    
    36   31   33 1    
    37   33   34 1    
    38   33   35 1    
    39   35   36 1    
    40   36   37 ar   
    41   36   44 ar   
    42   37   38 ar   
    43   38   39 1    
    44   38   42 ar   
    45   39   40 2    
    46   39   41 am   
    47   42   43 ar   
    48   43   44 ar   
@<TRIPOS>SUBSTRUCTURE
     1 NAD801      1 GROUP   
@<TRIPOS>SET
ATOM$ORANGE STATIC     ATOMS   COLORGROUP SYSTEM 
42 5 5 6 6 8 8 10 10 12 12 14 14 16 16 17 17 20 \
20 22 22 28 28 29 29 31 31 33 33 35 35 37 37 38 38 39 \
39 42 42 43 43 44 44 

