#    Name: 6bb2_3_NAD
#    Modification time : Fri May 22 19:25:39 2020

@<TRIPOS>MOLECULE
6bb2_3_NAD
   44    48     1     0     1
SMALL
NO_CHARGES


@<TRIPOS>ATOM
      1 PA         25.3930   -1.0970  102.6220 P.3       1 NAD801      0.0000 
      2 O1A        25.7410   -1.0420  101.1410 O.co2     1 NAD801      0.0000 
      3 O2A        24.3320   -0.0830  102.9630 O.co2     1 NAD801      0.0000 
      4 O5B        26.6900   -0.8600  103.4480 O.3       1 NAD801      0.0000 
      5 C5B        27.8970   -1.4290  103.1330 C.3       1 NAD801      0.0000 
      6 C4B        29.0110   -0.6470  103.6000 C.3       1 NAD801      0.0000 
      7 O4B        30.2030   -1.3670  103.5000 O.3       1 NAD801      0.0000 
      8 C3B        29.1370    0.5550  102.7510 C.3       1 NAD801      0.0000 
      9 O3B        29.0470    1.6930  103.5490 O.3       1 NAD801      0.0000 
     10 C2B        30.3720    0.3720  102.1020 C.3       1 NAD801      0.0000 
     11 O2B        31.0660    1.5120  101.7580 O.3       1 NAD801      0.0000 
     12 C1B        31.1260   -0.4320  103.0860 C.3       1 NAD801      0.0000 
     13 N9A        32.2970   -1.0760  102.5660 N.pl3     1 NAD801      0.0000 
     14 C8A        32.4310   -1.6680  101.3710 C.2       1 NAD801      0.0000 
     15 N7A        33.7020   -2.1090  101.2300 N.2       1 NAD801      0.0000 
     16 C5A        34.3810   -1.7810  102.3440 C.ar      1 NAD801      0.0000 
     17 C6A        35.6960   -1.9660  102.7940 C.ar      1 NAD801      0.0000 
     18 N6A        36.6690   -2.6670  101.9640 N.pl3     1 NAD801      0.0000 
     19 N1A        36.0530   -1.4920  104.0130 N.ar      1 NAD801      0.0000 
     20 C2A        35.1600   -0.8370  104.8000 C.ar      1 NAD801      0.0000 
     21 N3A        33.8900   -0.6500  104.4110 N.ar      1 NAD801      0.0000 
     22 C4A        33.4860   -1.1040  103.1960 C.ar      1 NAD801      0.0000 
     23 O3         24.9020   -2.6140  102.9140 O.3       1 NAD801      0.0000 
     24 PN         24.1960   -3.0800  104.2740 P.3       1 NAD801      0.0000 
     25 O1N        24.8040   -2.2910  105.4630 O.co2     1 NAD801      0.0000 
     26 O2N        22.6940   -2.9080  104.2010 O.co2     1 NAD801      0.0000 
     27 O5D        24.5630   -4.5880  104.4600 O.3       1 NAD801      0.0000 
     28 C5D        25.8770   -5.0060  104.5300 C.3       1 NAD801      0.0000 
     29 C4D        26.1310   -6.4170  104.6190 C.3       1 NAD801      0.0000 
     30 O4D        25.3870   -7.0170  105.7330 O.3       1 NAD801      0.0000 
     31 C3D        25.7060   -7.1470  103.4030 C.3       1 NAD801      0.0000 
     32 O3D        26.6770   -8.0910  103.0750 O.3       1 NAD801      0.0000 
     33 C2D        24.4070   -7.7550  103.7790 C.3       1 NAD801      0.0000 
     34 O2D        24.0400   -8.7950  102.9970 O.3       1 NAD801      0.0000 
     35 C1D        24.6550   -8.0960  105.2190 C.3       1 NAD801      0.0000 
     36 N1N        23.4690   -8.4190  106.0110 N.pl3     1 NAD801      0.0000 
     37 C2N        23.5750   -9.4990  106.8400 C.ar      1 NAD801      0.0000 
     38 C3N        22.5180   -9.8930  107.6800 C.ar      1 NAD801      0.0000 
     39 C7N        22.6330  -11.1270  108.5370 C.2       1 NAD801      0.0000 
     40 O7N        23.7190  -11.7360  108.6750 O.2       1 NAD801      0.0000 
     41 N7N        21.4780  -11.6110  109.2010 N.am      1 NAD801      0.0000 
     42 C4N        21.3430   -9.1150  107.6820 C.ar      1 NAD801      0.0000 
     43 C5N        21.2710   -7.9680  106.8700 C.ar      1 NAD801      0.0000 
     44 C6N        22.3460   -7.6430  106.0180 C.ar      1 NAD801      0.0000 
@<TRIPOS>BOND
     1    1    2 ar   
     2    1    3 ar   
     3    1    4 1    
     4    1   23 1    
     5    4    5 1    
     6    5    6 1    
     7    6    7 1    
     8    6    8 1    
     9    7   12 1    
    10    8    9 1    
    11    8   10 1    
    12   10   11 1    
    13   10   12 1    
    14   12   13 1    
    15   13   14 1    
    16   13   22 1    
    17   14   15 2    
    18   15   16 1    
    19   16   17 ar   
    20   16   22 ar   
    21   17   18 1    
    22   17   19 ar   
    23   19   20 ar   
    24   20   21 ar   
    25   21   22 ar   
    26   23   24 1    
    27   24   25 ar   
    28   24   26 ar   
    29   24   27 1    
    30   27   28 1    
    31   28   29 1    
    32   29   30 1    
    33   29   31 1    
    34   30   35 1    
    35   31   32 1    
    36   31   33 1    
    37   33   34 1    
    38   33   35 1    
    39   35   36 1    
    40   36   37 ar   
    41   36   44 ar   
    42   37   38 ar   
    43   38   39 1    
    44   38   42 ar   
    45   39   40 2    
    46   39   41 am   
    47   42   43 ar   
    48   43   44 ar   
@<TRIPOS>SUBSTRUCTURE
     1 NAD801      1 GROUP   
@<TRIPOS>SET
ATOM$ORANGE STATIC     ATOMS   COLORGROUP SYSTEM 
42 5 5 6 6 8 8 10 10 12 12 14 14 16 16 17 17 20 \
20 22 22 28 28 29 29 31 31 33 33 35 35 37 37 38 38 39 \
39 42 42 43 43 44 44 

