#    Name: 6bb2_7_NAD
#    Modification time : Fri May 22 19:26:00 2020

@<TRIPOS>MOLECULE
6bb2_7_NAD
   44    48     1     0     1
SMALL
NO_CHARGES


@<TRIPOS>ATOM
      1 PA         17.8980   54.2010  170.5250 P.3       1 NAD801      0.0000 
      2 O1A        18.0570   53.9030  169.0510 O.co2     1 NAD801      0.0000 
      3 O2A        16.9240   55.3340  170.8200 O.co2     1 NAD801      0.0000 
      4 O5B        19.3000   54.5530  171.1240 O.3       1 NAD801      0.0000 
      5 C5B        20.4630   53.9400  170.7560 C.3       1 NAD801      0.0000 
      6 C4B        21.6140   54.7880  170.9250 C.3       1 NAD801      0.0000 
      7 O4B        22.7910   54.0550  170.7600 O.3       1 NAD801      0.0000 
      8 C3B        21.5950   55.8620  169.8990 C.3       1 NAD801      0.0000 
      9 O3B        21.6070   57.1140  170.5320 O.3       1 NAD801      0.0000 
     10 C2B        22.7140   55.5710  169.0900 C.3       1 NAD801      0.0000 
     11 O2B        23.3400   56.6460  168.5020 O.3       1 NAD801      0.0000 
     12 C1B        23.6260   54.8960  170.0480 C.3       1 NAD801      0.0000 
     13 N9A        24.7200   54.1800  169.4390 N.pl3     1 NAD801      0.0000 
     14 C8A        24.6770   53.4310  168.3190 C.2       1 NAD801      0.0000 
     15 N7A        25.9150   52.9500  168.0560 N.2       1 NAD801      0.0000 
     16 C5A        26.7550   53.4070  169.0080 C.ar      1 NAD801      0.0000 
     17 C6A        28.1360   53.2800  169.2830 C.ar      1 NAD801      0.0000 
     18 N6A        29.0020   52.4870  168.4280 N.pl3     1 NAD801      0.0000 
     19 N1A        28.6750   53.8940  170.3660 N.ar      1 NAD801      0.0000 
     20 C2A        27.8890   54.6530  171.1850 C.ar      1 NAD801      0.0000 
     21 N3A        26.5680   54.8010  170.9590 N.ar      1 NAD801      0.0000 
     22 C4A        25.9850   54.2040  169.8870 C.ar      1 NAD801      0.0000 
     23 O3         17.4500   52.8040  171.1790 O.3       1 NAD801      0.0000 
     24 PN         16.9020   52.5920  172.6840 P.3       1 NAD801      0.0000 
     25 O1N        15.3750   52.6510  172.5590 O.co2     1 NAD801      0.0000 
     26 O2N        17.4550   53.5730  173.6980 O.co2     1 NAD801      0.0000 
     27 O5D        17.3250   51.1510  173.1110 O.3       1 NAD801      0.0000 
     28 C5D        18.6350   50.7170  173.0090 C.3       1 NAD801      0.0000 
     29 C4D        18.8870   49.3160  173.1890 C.3       1 NAD801      0.0000 
     30 O4D        18.2880   48.8720  174.4540 O.3       1 NAD801      0.0000 
     31 C3D        18.2890   48.4650  172.1280 C.3       1 NAD801      0.0000 
     32 O3D        19.1890   47.4710  171.7770 O.3       1 NAD801      0.0000 
     33 C2D        17.0580   47.9270  172.7490 C.3       1 NAD801      0.0000 
     34 O2D        16.5950   46.8010  172.1690 O.3       1 NAD801      0.0000 
     35 C1D        17.4840   47.7560  174.1750 C.3       1 NAD801      0.0000 
     36 N1N        16.3940   47.5500  175.1430 N.pl3     1 NAD801      0.0000 
     37 C2N        16.6070   46.5850  176.0730 C.ar      1 NAD801      0.0000 
     38 C3N        15.6580   46.3410  177.0760 C.ar      1 NAD801      0.0000 
     39 C7N        15.9110   45.1980  178.0260 C.2       1 NAD801      0.0000 
     40 O7N        17.0220   44.5930  178.0660 O.2       1 NAD801      0.0000 
     41 N7N        14.8570   44.7870  178.8820 N.am      1 NAD801      0.0000 
     42 C4N        14.4990   47.1530  177.1570 C.ar      1 NAD801      0.0000 
     43 C5N        14.2930   48.1960  176.2230 C.ar      1 NAD801      0.0000 
     44 C6N        15.2850   48.3750  175.2300 C.ar      1 NAD801      0.0000 
@<TRIPOS>BOND
     1    1    2 ar   
     2    1    3 ar   
     3    1    4 1    
     4    1   23 1    
     5    4    5 1    
     6    5    6 1    
     7    6    7 1    
     8    6    8 1    
     9    7   12 1    
    10    8    9 1    
    11    8   10 1    
    12   10   11 1    
    13   10   12 1    
    14   12   13 1    
    15   13   14 1    
    16   13   22 1    
    17   14   15 2    
    18   15   16 1    
    19   16   17 ar   
    20   16   22 ar   
    21   17   18 1    
    22   17   19 ar   
    23   19   20 ar   
    24   20   21 ar   
    25   21   22 ar   
    26   23   24 1    
    27   24   25 ar   
    28   24   26 ar   
    29   24   27 1    
    30   27   28 1    
    31   28   29 1    
    32   29   30 1    
    33   29   31 1    
    34   30   35 1    
    35   31   32 1    
    36   31   33 1    
    37   33   34 1    
    38   33   35 1    
    39   35   36 1    
    40   36   37 ar   
    41   36   44 ar   
    42   37   38 ar   
    43   38   39 1    
    44   38   42 ar   
    45   39   40 2    
    46   39   41 am   
    47   42   43 ar   
    48   43   44 ar   
@<TRIPOS>SUBSTRUCTURE
     1 NAD801      1 GROUP   
@<TRIPOS>SET
ATOM$ORANGE STATIC     ATOMS   COLORGROUP SYSTEM 
42 5 5 6 6 8 8 10 10 12 12 14 14 16 16 17 17 20 \
20 22 22 28 28 29 29 31 31 33 33 35 35 37 37 38 38 39 \
39 42 42 43 43 44 44 

