#    Name: 6bb2_3_NAD_CAVITY_N1_4
#    Modification time : Fri May 22 19:25:41 2020

@<TRIPOS>MOLECULE
6bb2_3_NAD_CAVITY_N1_4
   73     0     4     0     0
SMALL
NO_CHARGES


@<TRIPOS>ATOM
      1 OG         19.9500   -7.6500  104.1600 O.3       1 SER1        0.0000 
      2 OG         20.6500   -8.7000  104.9600 O.3       1 SER1        0.0000 
      3 OG         19.3400   -9.1300  105.5500 O.3       1 SER1        0.0000 
      4 OG         20.0500  -10.1800  106.3500 O.3       1 SER1        0.0000 
      5 OG         18.7400  -10.6100  106.9400 O.3       1 SER1        0.0000 
      6 OG         20.7600  -11.2300  107.1600 O.3       1 SER1        0.0000 
      7 OG         20.1300   -6.6700  105.2800 O.3       1 SER1        0.0000 
      8 OG         20.8300   -7.7200  106.0800 O.3       1 SER1        0.0000 
      9 OG         21.5400   -8.7700  106.8900 O.3       1 SER1        0.0000 
     10 OG         20.2300   -9.2000  107.4700 O.3       1 SER1        0.0000 
     11 N          21.0800   -8.2000  102.4500 N.am      2 ALA2        0.0000 
     12 O          23.1000   -8.8200  102.6700 O.2       2 ALA2        0.0000 
     13 N          21.7900   -9.2500  103.2500 N.am      2 ALA2        0.0000 
     14 N          20.4700   -9.6800  103.8400 N.am      2 ALA2        0.0000 
     15 N          19.1600  -10.1100  104.4300 N.am      2 ALA2        0.0000 
     16 N          25.9000   -6.9700  102.6100 N.am      2 ALA2        0.0000 
     17 O          21.9600   -8.2700  104.3700 O.2       2 ALA2        0.0000 
     18 O          25.2900   -8.4600  104.0100 O.2       2 ALA2        0.0000 
     19 O          23.9800   -8.8900  104.5900 O.2       2 ALA2        0.0000 
     20 O          21.3600   -9.7500  105.7700 O.2       2 ALA2        0.0000 
     21 O          22.0700  -10.8000  106.5700 O.2       2 ALA2        0.0000 
     22 N          26.5800   -1.9800  100.1400 N.am      2 ALA2        0.0000 
     23 N          25.2700   -2.4100  100.7300 N.am      2 ALA2        0.0000 
     24 N          25.3700   -4.9400  102.9300 N.am      2 ALA2        0.0000 
     25 N          26.0800   -5.9900  103.7300 N.am      2 ALA2        0.0000 
     26 O          24.1600   -7.9100  105.7100 O.2       2 ALA2        0.0000 
     27 O          22.8500   -8.3400  106.3000 O.2       2 ALA2        0.0000 
     28 N          24.8700   -8.9600  106.5200 N.am      2 ALA2        0.0000 
     29 N          23.5600   -9.3900  107.1100 N.am      2 ALA2        0.0000 
     30 N          26.7600   -1.0000  101.2600 N.am      2 ALA2        0.0000 
     31 N          27.4600   -2.0500  102.0700 N.am      2 ALA2        0.0000 
     32 N          26.1500   -2.4800  102.6500 N.am      2 ALA2        0.0000 
     33 N          26.8600   -3.5300  103.4600 N.am      2 ALA2        0.0000 
     34 N          25.5500   -3.9600  104.0500 N.am      2 ALA2        0.0000 
     35 N          26.2600   -5.0100  104.8500 N.am      2 ALA2        0.0000 
     36 N          25.6500   -6.4900  106.2500 N.am      2 ALA2        0.0000 
     37 O          25.0200   -1.9300  104.3600 O.2       2 ALA2        0.0000 
     38 O          23.7100   -2.3600  104.9500 O.2       2 ALA2        0.0000 
     39 OD1        19.8700  -11.1600  105.2300 O.co2     3 ASP3        0.0000 
     40 OD1        24.5600   -1.3600   99.9200 O.co2     3 ASP3        0.0000 
     41 OD1        24.7400   -0.3800  101.0400 O.co2     3 ASP3        0.0000 
     42 OD1        25.4500   -1.4300  101.8500 O.co2     3 ASP3        0.0000 
     43 OD1        24.1400   -1.8600  102.4400 O.co2     3 ASP3        0.0000 
     44 OD1        24.3100   -0.8800  103.5600 O.co2     3 ASP3        0.0000 
     45 CA         21.2600   -7.2200  103.5700 C.3       4 GLY6        0.0000 
     46 CA         24.5900   -7.4100  103.2000 C.3       4 GLY6        0.0000 
     47 CA         23.2800   -7.8400  103.7900 C.3       4 GLY6        0.0000 
     48 CA         24.6600   -3.8900  102.1200 C.3       4 GLY6        0.0000 
     49 CA         22.0400   -4.7600  103.3000 C.3       4 GLY6        0.0000 
     50 CA         24.0600   -5.3800  103.5100 C.3       4 GLY6        0.0000 
     51 CA         22.7500   -5.8100  104.1000 C.3       4 GLY6        0.0000 
     52 CA         21.4400   -6.2400  104.6900 C.3       4 GLY6        0.0000 
     53 CA         24.7700   -6.4200  104.3200 C.3       4 GLY6        0.0000 
     54 CA         23.4500   -6.8600  104.9100 C.3       4 GLY6        0.0000 
     55 CA         22.1400   -7.2900  105.4900 C.3       4 GLY6        0.0000 
     56 CA         26.7800   -7.0400  104.5400 C.3       4 GLY6        0.0000 
     57 CA         25.4700   -7.4700  105.1300 C.3       4 GLY6        0.0000 
     58 CA         22.2500   -9.8200  107.6900 C.3       4 GLY6        0.0000 
     59 CA         20.9300  -10.2500  108.2800 C.3       4 GLY6        0.0000 
     60 CA         24.8400   -2.9100  103.2400 C.3       4 GLY6        0.0000 
     61 CA         23.5300   -3.3500  103.8300 C.3       4 GLY6        0.0000 
     62 CA         22.2200   -3.7800  104.4200 C.3       4 GLY6        0.0000 
     63 CA         24.2400   -4.3900  104.6300 C.3       4 GLY6        0.0000 
     64 CA         24.9400   -5.4400  105.4400 C.3       4 GLY6        0.0000 
     65 CA         21.0100   -6.7400  107.2000 C.3       4 GLY6        0.0000 
     66 CA         24.3400   -6.9200  106.8300 C.3       4 GLY6        0.0000 
     67 CA         23.0300   -7.3600  107.4200 C.3       4 GLY6        0.0000 
     68 CA         21.7200   -7.7900  108.0100 C.3       4 GLY6        0.0000 
     69 CA         25.0500   -7.9700  107.6400 C.3       4 GLY6        0.0000 
     70 CA         23.7400   -8.4100  108.2300 C.3       4 GLY6        0.0000 
     71 CA         25.6300   -0.4500  102.9700 C.3       4 GLY6        0.0000 
     72 CA         26.3300   -1.5000  103.7700 C.3       4 GLY6        0.0000 
     73 CA         24.4200   -3.4100  105.7500 C.3       4 GLY6        0.0000 
@<TRIPOS>BOND
@<TRIPOS>SUBSTRUCTURE
     1 SER1        1 GROUP   
     2 ALA2       11 GROUP   
     3 ASP3       39 GROUP   
     4 GLY6       45 GROUP   
@<TRIPOS>SET

