#    Name: 6bb2_8_NAD
#    Modification time : Fri May 22 19:26:07 2020

@<TRIPOS>MOLECULE
6bb2_8_NAD
   44    48     1     0     1
SMALL
NO_CHARGES


@<TRIPOS>ATOM
      1 PA          5.6510   67.8670  173.1870 P.3       1 NAD801      0.0000 
      2 O1A         5.1610   68.2060  171.7720 O.co2     1 NAD801      0.0000 
      3 O2A         6.6380   66.7190  173.1590 O.co2     1 NAD801      0.0000 
      4 O5B         4.4000   67.4750  174.0550 O.3       1 NAD801      0.0000 
      5 C5B         3.2200   68.1790  174.0620 C.3       1 NAD801      0.0000 
      6 C4B         2.0900   67.3740  174.4390 C.3       1 NAD801      0.0000 
      7 O4B         0.9530   68.1550  174.6470 O.3       1 NAD801      0.0000 
      8 C3B         1.7790   66.4190  173.3440 C.3       1 NAD801      0.0000 
      9 O3B         1.8450   65.1030  173.8110 O.3       1 NAD801      0.0000 
     10 C2B         0.5020   66.8210  172.9040 C.3       1 NAD801      0.0000 
     11 O2B        -0.3170   65.8370  172.3820 O.3       1 NAD801      0.0000 
     12 C1B        -0.0830   67.4000  174.1290 C.3       1 NAD801      0.0000 
     13 N9A        -1.2510   68.1960  173.9000 N.pl3     1 NAD801      0.0000 
     14 C8A        -1.4460   69.0890  172.9160 C.2       1 NAD801      0.0000 
     15 N7A        -2.6900   69.6210  173.0360 N.2       1 NAD801      0.0000 
     16 C5A        -3.2750   69.0720  174.1180 C.ar      1 NAD801      0.0000 
     17 C6A        -4.5140   69.2130  174.7570 C.ar      1 NAD801      0.0000 
     18 N6A        -5.4920   70.1480  174.2150 N.pl3     1 NAD801      0.0000 
     19 N1A        -4.7900   68.4800  175.8700 N.ar      1 NAD801      0.0000 
     20 C2A        -3.8800   67.6030  176.3680 C.ar      1 NAD801      0.0000 
     21 N3A        -2.6790   67.4420  175.7830 N.ar      1 NAD801      0.0000 
     22 C4A        -2.3580   68.1520  174.6670 C.ar      1 NAD801      0.0000 
     23 O3          6.2710   69.2340  173.7730 O.3       1 NAD801      0.0000 
     24 PN          7.1370   69.3090  175.1190 P.3       1 NAD801      0.0000 
     25 O1N         6.5980   68.2880  176.1490 O.co2     1 NAD801      0.0000 
     26 O2N         8.6020   69.0840  174.8320 O.co2     1 NAD801      0.0000 
     27 O5D         6.9160   70.7460  175.6880 O.3       1 NAD801      0.0000 
     28 C5D         5.6490   71.2010  176.0100 C.3       1 NAD801      0.0000 
     29 C4D         5.5250   72.5600  176.4620 C.3       1 NAD801      0.0000 
     30 O4D         6.4200   72.8320  177.6010 O.3       1 NAD801      0.0000 
     31 C3D         5.8840   73.5350  175.4120 C.3       1 NAD801      0.0000 
     32 O3D         4.9770   74.5810  175.4450 O.3       1 NAD801      0.0000 
     33 C2D         7.2540   73.9550  175.7640 C.3       1 NAD801      0.0000 
     34 O2D         7.6250   75.1250  175.2170 O.3       1 NAD801      0.0000 
     35 C1D         7.1850   73.9630  177.2610 C.3       1 NAD801      0.0000 
     36 N1N         8.4720   74.0460  177.9600 N.pl3     1 NAD801      0.0000 
     37 C2N         8.5380   74.8890  179.0260 C.ar      1 NAD801      0.0000 
     38 C3N         9.6940   75.0130  179.8040 C.ar      1 NAD801      0.0000 
     39 C7N         9.7720   76.0060  180.9280 C.2       1 NAD801      0.0000 
     40 O7N        10.8600   76.2030  181.4950 O.2       1 NAD801      0.0000 
     41 N7N         8.6150   76.7190  181.3410 N.am      1 NAD801      0.0000 
     42 C4N        10.7910   74.2020  179.4890 C.ar      1 NAD801      0.0000 
     43 C5N        10.6830   73.2770  178.4330 C.ar      1 NAD801      0.0000 
     44 C6N         9.5120   73.2220  177.6630 C.ar      1 NAD801      0.0000 
@<TRIPOS>BOND
     1    1    2 ar   
     2    1    3 ar   
     3    1    4 1    
     4    1   23 1    
     5    4    5 1    
     6    5    6 1    
     7    6    7 1    
     8    6    8 1    
     9    7   12 1    
    10    8    9 1    
    11    8   10 1    
    12   10   11 1    
    13   10   12 1    
    14   12   13 1    
    15   13   14 1    
    16   13   22 1    
    17   14   15 2    
    18   15   16 1    
    19   16   17 ar   
    20   16   22 ar   
    21   17   18 1    
    22   17   19 ar   
    23   19   20 ar   
    24   20   21 ar   
    25   21   22 ar   
    26   23   24 1    
    27   24   25 ar   
    28   24   26 ar   
    29   24   27 1    
    30   27   28 1    
    31   28   29 1    
    32   29   30 1    
    33   29   31 1    
    34   30   35 1    
    35   31   32 1    
    36   31   33 1    
    37   33   34 1    
    38   33   35 1    
    39   35   36 1    
    40   36   37 ar   
    41   36   44 ar   
    42   37   38 ar   
    43   38   39 1    
    44   38   42 ar   
    45   39   40 2    
    46   39   41 am   
    47   42   43 ar   
    48   43   44 ar   
@<TRIPOS>SUBSTRUCTURE
     1 NAD801      1 GROUP   
@<TRIPOS>SET
ATOM$ORANGE STATIC     ATOMS   COLORGROUP SYSTEM 
42 5 5 6 6 8 8 10 10 12 12 14 14 16 16 17 17 20 \
20 22 22 28 28 29 29 31 31 33 33 35 35 37 37 38 38 39 \
39 42 42 43 43 44 44 

