#    Name: 6t8o_1_ADP_CAVITY_N1_8
#    Modification time : Fri May 22 19:28:40 2020

@<TRIPOS>MOLECULE
6t8o_1_ADP_CAVITY_N1_8
   95     0     6     0     0
SMALL
NO_CHARGES


@<TRIPOS>ATOM
      1 OG        139.3100  112.7600  152.6300 O.3       1 SER1        0.0000 
      2 OG        134.8200  112.4700  159.5100 O.3       1 SER1        0.0000 
      3 OG        134.8100  114.3900  158.6100 O.3       1 SER1        0.0000 
      4 OG        135.8300  112.9500  160.5200 O.3       1 SER1        0.0000 
      5 N         136.7400  110.9700  153.8300 N.am      2 ALA2        0.0000 
      6 O         134.6000  112.6500  157.4100 O.2       2 ALA2        0.0000 
      7 O         134.5900  114.5700  156.5000 O.2       2 ALA2        0.0000 
      8 O         135.3800  113.3100  156.3100 O.2       2 ALA2        0.0000 
      9 O         136.1700  112.0500  156.1200 O.2       2 ALA2        0.0000 
     10 N         137.7500  109.5300  155.7400 N.am      2 ALA2        0.0000 
     11 O         134.0200  115.6500  158.8000 O.2       2 ALA2        0.0000 
     12 O         134.8000  116.3100  157.7000 O.2       2 ALA2        0.0000 
     13 O         135.5900  115.0500  157.5100 O.2       2 ALA2        0.0000 
     14 O         136.3800  113.7900  157.3200 O.2       2 ALA2        0.0000 
     15 O         139.5500  108.7500  156.5500 O.2       2 ALA2        0.0000 
     16 O         134.2500  115.4700  160.9000 O.2       2 ALA2        0.0000 
     17 O         135.0300  116.1300  159.8000 O.2       2 ALA2        0.0000 
     18 O         135.8100  116.7900  158.7000 O.2       2 ALA2        0.0000 
     19 O         137.3900  114.2700  158.3200 O.2       2 ALA2        0.0000 
     20 O         140.5600  109.2300  157.5500 O.2       2 ALA2        0.0000 
     21 O         138.1700  114.9300  157.2200 O.2       2 ALA2        0.0000 
     22 N         139.2100  109.6500  160.9400 N.am      2 ALA2        0.0000 
     23 N         139.9900  110.3100  159.8400 N.am      2 ALA2        0.0000 
     24 O         136.8100  117.2600  159.7100 O.2       2 ALA2        0.0000 
     25 N         141.5600  109.7100  158.5500 N.am      2 ALA2        0.0000 
     26 O         140.2100  112.0500  161.0400 O.2       2 ALA2        0.0000 
     27 O         141.0000  110.7900  160.8500 O.2       2 ALA2        0.0000 
     28 OD1       135.3900  111.3900  157.2200 O.co2     3 ASP3        0.0000 
     29 OD1       136.1800  110.1300  157.0300 O.co2     3 ASP3        0.0000 
     30 OD1       136.9700  108.8700  156.8300 O.co2     3 ASP3        0.0000 
     31 OD1       136.9600  110.7900  155.9300 O.co2     3 ASP3        0.0000 
     32 OD1       138.1800  113.0100  158.1300 O.co2     3 ASP3        0.0000 
     33 OD1       138.9600  113.6700  157.0300 O.co2     3 ASP3        0.0000 
     34 OD1       136.0500  112.7700  162.6200 O.co2     3 ASP3        0.0000 
     35 OD1       136.8400  111.5100  162.4200 O.co2     3 ASP3        0.0000 
     36 OD1       139.1900  113.4900  159.1300 O.co2     3 ASP3        0.0000 
     37 OD1       139.9800  112.2300  158.9400 O.co2     3 ASP3        0.0000 
     38 OD1       137.0600  113.2500  163.6200 O.co2     3 ASP3        0.0000 
     39 OD1       137.8500  111.9900  163.4300 O.co2     3 ASP3        0.0000 
     40 OD1       141.7800  111.4500  159.7500 O.co2     3 ASP3        0.0000 
     41 NZ        135.6100  111.2100  159.3200 N.4       4 LYS4        0.0000 
     42 NZ        136.3900  111.8700  158.2200 N.4       4 LYS4        0.0000 
     43 NZ        137.1900  110.6100  158.0300 N.4       4 LYS4        0.0000 
     44 NZ        137.9800  109.3500  157.8400 N.4       4 LYS4        0.0000 
     45 NZ        135.0500  112.2900  161.6100 N.4       4 LYS4        0.0000 
     46 NZ        136.6200  111.6900  160.3200 N.4       4 LYS4        0.0000 
     47 NZ        137.4100  110.4300  160.1300 N.4       4 LYS4        0.0000 
     48 NZ        138.2000  109.1700  159.9400 N.4       4 LYS4        0.0000 
     49 NZ        138.1900  111.0900  159.0300 N.4       4 LYS4        0.0000 
     50 CA        133.8100  113.9100  157.6000 C.3       5 GLY6        0.0000 
     51 CA        136.1600  113.9700  155.2100 C.3       5 GLY6        0.0000 
     52 CA        136.9500  112.7100  155.0200 C.3       5 GLY6        0.0000 
     53 CA        137.7400  111.4500  154.8300 C.3       5 GLY6        0.0000 
     54 CA        138.5300  110.1900  154.6400 C.3       5 GLY6        0.0000 
     55 CA        138.5200  112.1100  153.7300 C.3       5 GLY6        0.0000 
     56 CA        139.3200  110.8500  153.5400 C.3       5 GLY6        0.0000 
     57 CA        140.1000  111.5100  152.4400 C.3       5 GLY6        0.0000 
     58 CA        138.7700  108.0900  157.6400 C.3       5 GLY6        0.0000 
     59 CA        138.7600  110.0100  156.7400 C.3       5 GLY6        0.0000 
     60 CA        137.9600  113.1900  156.0300 C.3       5 GLY6        0.0000 
     61 CA        138.7500  111.9300  155.8300 C.3       5 GLY6        0.0000 
     62 CA        138.7400  113.8400  154.9300 C.3       5 GLY6        0.0000 
     63 CA        139.5300  112.5900  154.7400 C.3       5 GLY6        0.0000 
     64 CA        140.3100  113.2400  153.6400 C.3       5 GLY6        0.0000 
     65 CA        135.0400  114.2100  160.7100 C.3       5 GLY6        0.0000 
     66 CA        138.9800  109.8300  158.8400 C.3       5 GLY6        0.0000 
     67 CA        136.6000  115.5300  158.5100 C.3       5 GLY6        0.0000 
     68 CA        138.9700  111.7500  157.9400 C.3       5 GLY6        0.0000 
     69 CA        139.7700  110.4900  157.7400 C.3       5 GLY6        0.0000 
     70 CA        135.2600  114.0300  162.8100 C.3       5 GLY6        0.0000 
     71 CA        135.2500  115.9500  161.9000 C.3       5 GLY6        0.0000 
     72 CA        138.4200  110.9100  161.1300 C.3       5 GLY6        0.0000 
     73 CA        136.0300  116.6100  160.8100 C.3       5 GLY6        0.0000 
     74 CA        137.6100  116.0100  159.5200 C.3       5 GLY6        0.0000 
     75 CA        140.7700  110.9700  158.7500 C.3       5 GLY6        0.0000 
     76 CA        136.2700  114.5100  163.8100 C.3       5 GLY6        0.0000 
     77 CA        137.0500  115.1700  162.7200 C.3       5 GLY6        0.0000 
     78 CA        139.4200  111.3900  162.1400 C.3       5 GLY6        0.0000 
     79 DU        135.6000  113.1300  158.4100 H         6 CUB7        0.0000 
     80 DU        137.1800  112.5300  157.1200 H         6 CUB7        0.0000 
     81 DU        137.9700  111.2700  156.9300 H         6 CUB7        0.0000 
     82 DU        135.8200  114.8700  159.6100 H         6 CUB7        0.0000 
     83 DU        136.6100  113.6100  159.4200 H         6 CUB7        0.0000 
     84 DU        137.4000  112.3500  159.2300 H         6 CUB7        0.0000 
     85 DU        136.0400  114.6900  161.7100 H         6 CUB7        0.0000 
     86 DU        136.8300  113.4300  161.5200 H         6 CUB7        0.0000 
     87 DU        137.6300  112.1700  161.3300 H         6 CUB7        0.0000 
     88 DU        136.8200  115.3500  160.6100 H         6 CUB7        0.0000 
     89 DU        138.4100  112.8300  160.2300 H         6 CUB7        0.0000 
     90 DU        139.2000  111.5700  160.0400 H         6 CUB7        0.0000 
     91 DU        138.4000  114.7500  159.3200 H         6 CUB7        0.0000 
     92 DU        137.8400  113.9100  162.5200 H         6 CUB7        0.0000 
     93 DU        138.6300  112.6500  162.3300 H         6 CUB7        0.0000 
     94 DU        137.8300  115.8300  161.6200 H         6 CUB7        0.0000 
     95 DU        137.8200  117.7400  160.7100 H         6 CUB7        0.0000 
@<TRIPOS>BOND
@<TRIPOS>SUBSTRUCTURE
     1 SER1        1 GROUP   
     2 ALA2        5 GROUP   
     3 ASP3       28 GROUP   
     4 LYS4       41 GROUP   
     5 GLY6       50 GROUP   
     6 CUB7       79 GROUP   
@<TRIPOS>SET

