#    Name: 6t8o_1_ADP_CAVITY_N1_4
#    Modification time : Fri May 22 19:28:40 2020

@<TRIPOS>MOLECULE
6t8o_1_ADP_CAVITY_N1_4
   64     0     6     0     0
SMALL
NO_CHARGES


@<TRIPOS>ATOM
      1 OG        134.8200  112.4700  159.5100 O.3       1 SER1        0.0000 
      2 OG        134.8100  114.3900  158.6100 O.3       1 SER1        0.0000 
      3 OG        135.8300  112.9500  160.5200 O.3       1 SER1        0.0000 
      4 O         134.6000  112.6500  157.4100 O.2       2 ALA2        0.0000 
      5 O         134.5900  114.5700  156.5000 O.2       2 ALA2        0.0000 
      6 O         135.3800  113.3100  156.3100 O.2       2 ALA2        0.0000 
      7 O         136.1700  112.0500  156.1200 O.2       2 ALA2        0.0000 
      8 O         134.0200  115.6500  158.8000 O.2       2 ALA2        0.0000 
      9 O         134.8000  116.3100  157.7000 O.2       2 ALA2        0.0000 
     10 O         135.5900  115.0500  157.5100 O.2       2 ALA2        0.0000 
     11 O         136.3800  113.7900  157.3200 O.2       2 ALA2        0.0000 
     12 O         134.2500  115.4700  160.9000 O.2       2 ALA2        0.0000 
     13 O         135.0300  116.1300  159.8000 O.2       2 ALA2        0.0000 
     14 O         135.8100  116.7900  158.7000 O.2       2 ALA2        0.0000 
     15 O         137.3900  114.2700  158.3200 O.2       2 ALA2        0.0000 
     16 O         138.1700  114.9300  157.2200 O.2       2 ALA2        0.0000 
     17 O         136.8100  117.2600  159.7100 O.2       2 ALA2        0.0000 
     18 OD1       135.3900  111.3900  157.2200 O.co2     3 ASP3        0.0000 
     19 OD1       136.1800  110.1300  157.0300 O.co2     3 ASP3        0.0000 
     20 OD1       136.9600  110.7900  155.9300 O.co2     3 ASP3        0.0000 
     21 OD1       138.1800  113.0100  158.1300 O.co2     3 ASP3        0.0000 
     22 OD1       138.9600  113.6700  157.0300 O.co2     3 ASP3        0.0000 
     23 OD1       136.0500  112.7700  162.6200 O.co2     3 ASP3        0.0000 
     24 OD1       136.8400  111.5100  162.4200 O.co2     3 ASP3        0.0000 
     25 OD1       139.1900  113.4900  159.1300 O.co2     3 ASP3        0.0000 
     26 OD1       137.0600  113.2500  163.6200 O.co2     3 ASP3        0.0000 
     27 NZ        135.6100  111.2100  159.3200 N.4       4 LYS4        0.0000 
     28 NZ        136.3900  111.8700  158.2200 N.4       4 LYS4        0.0000 
     29 NZ        137.1900  110.6100  158.0300 N.4       4 LYS4        0.0000 
     30 NZ        135.0500  112.2900  161.6100 N.4       4 LYS4        0.0000 
     31 NZ        136.6200  111.6900  160.3200 N.4       4 LYS4        0.0000 
     32 NZ        138.1900  111.0900  159.0300 N.4       4 LYS4        0.0000 
     33 CA        133.8100  113.9100  157.6000 C.3       5 GLY6        0.0000 
     34 CA        136.1600  113.9700  155.2100 C.3       5 GLY6        0.0000 
     35 CA        136.9500  112.7100  155.0200 C.3       5 GLY6        0.0000 
     36 CA        137.7400  111.4500  154.8300 C.3       5 GLY6        0.0000 
     37 CA        137.9600  113.1900  156.0300 C.3       5 GLY6        0.0000 
     38 CA        138.7500  111.9300  155.8300 C.3       5 GLY6        0.0000 
     39 CA        138.7400  113.8400  154.9300 C.3       5 GLY6        0.0000 
     40 CA        135.0400  114.2100  160.7100 C.3       5 GLY6        0.0000 
     41 CA        136.6000  115.5300  158.5100 C.3       5 GLY6        0.0000 
     42 CA        138.9700  111.7500  157.9400 C.3       5 GLY6        0.0000 
     43 CA        135.2600  114.0300  162.8100 C.3       5 GLY6        0.0000 
     44 CA        135.2500  115.9500  161.9000 C.3       5 GLY6        0.0000 
     45 CA        136.0300  116.6100  160.8100 C.3       5 GLY6        0.0000 
     46 CA        137.6100  116.0100  159.5200 C.3       5 GLY6        0.0000 
     47 CA        136.2700  114.5100  163.8100 C.3       5 GLY6        0.0000 
     48 CA        137.0500  115.1700  162.7200 C.3       5 GLY6        0.0000 
     49 DU        135.6000  113.1300  158.4100 H         6 CUB7        0.0000 
     50 DU        137.1800  112.5300  157.1200 H         6 CUB7        0.0000 
     51 DU        137.9700  111.2700  156.9300 H         6 CUB7        0.0000 
     52 DU        135.8200  114.8700  159.6100 H         6 CUB7        0.0000 
     53 DU        136.6100  113.6100  159.4200 H         6 CUB7        0.0000 
     54 DU        137.4000  112.3500  159.2300 H         6 CUB7        0.0000 
     55 DU        136.0400  114.6900  161.7100 H         6 CUB7        0.0000 
     56 DU        136.8300  113.4300  161.5200 H         6 CUB7        0.0000 
     57 DU        137.6300  112.1700  161.3300 H         6 CUB7        0.0000 
     58 DU        136.8200  115.3500  160.6100 H         6 CUB7        0.0000 
     59 DU        138.4100  112.8300  160.2300 H         6 CUB7        0.0000 
     60 DU        138.4000  114.7500  159.3200 H         6 CUB7        0.0000 
     61 DU        137.8400  113.9100  162.5200 H         6 CUB7        0.0000 
     62 DU        138.6300  112.6500  162.3300 H         6 CUB7        0.0000 
     63 DU        137.8300  115.8300  161.6200 H         6 CUB7        0.0000 
     64 DU        137.8200  117.7400  160.7100 H         6 CUB7        0.0000 
@<TRIPOS>BOND
@<TRIPOS>SUBSTRUCTURE
     1 SER1        1 GROUP   
     2 ALA2        4 GROUP   
     3 ASP3       18 GROUP   
     4 LYS4       27 GROUP   
     5 GLY6       33 GROUP   
     6 CUB7       49 GROUP   
@<TRIPOS>SET

