#    Name: 6t8o_3_ADP_CAVITY_N1_8
#    Modification time : Fri May 22 19:28:51 2020

@<TRIPOS>MOLECULE
6t8o_3_ADP_CAVITY_N1_8
   91     0     6     0     0
SMALL
NO_CHARGES


@<TRIPOS>ATOM
      1 OG         92.0200  129.0400  120.5400 O.3       1 SER1        0.0000 
      2 OG         92.8100  127.7800  120.3500 O.3       1 SER1        0.0000 
      3 OG         92.0100  130.9600  119.6400 O.3       1 SER1        0.0000 
      4 OG         93.6000  128.4400  119.2500 O.3       1 SER1        0.0000 
      5 OG         93.0200  131.4400  120.6400 O.3       1 SER1        0.0000 
      6 OG         94.5900  130.8400  119.3500 O.3       1 SER1        0.0000 
      7 OG         98.0700  130.0000  127.4700 O.3       1 SER1        0.0000 
      8 OG         98.8500  130.6600  126.3700 O.3       1 SER1        0.0000 
      9 O          93.6100  126.5200  120.1600 O.2       2 ALA2        0.0000 
     10 O          93.0400  127.6000  122.4500 O.2       2 ALA2        0.0000 
     11 O          93.0300  129.5200  121.5500 O.2       2 ALA2        0.0000 
     12 O          93.8200  128.2600  121.3600 O.2       2 ALA2        0.0000 
     13 O          93.8100  130.1800  120.4500 O.2       2 ALA2        0.0000 
     14 O          92.2200  134.6200  119.9300 O.2       2 ALA2        0.0000 
     15 O          93.0100  133.3600  119.7400 O.2       2 ALA2        0.0000 
     16 O          93.8000  132.1000  119.5400 O.2       2 ALA2        0.0000 
     17 N          90.8900  131.2000  125.1300 N.am      2 ALA2        0.0000 
     18 O          94.0500  128.0800  123.4600 O.2       2 ALA2        0.0000 
     19 O          92.4500  132.5200  122.9400 O.2       2 ALA2        0.0000 
     20 O          93.2500  131.2600  122.7400 O.2       2 ALA2        0.0000 
     21 O          94.0400  130.0000  122.5500 O.2       2 ALA2        0.0000 
     22 O          93.2400  133.1800  121.8400 O.2       2 ALA2        0.0000 
     23 O          94.0300  131.9200  121.6500 O.2       2 ALA2        0.0000 
     24 O          94.8200  130.6600  121.4500 O.2       2 ALA2        0.0000 
     25 O          94.0200  133.8400  120.7400 O.2       2 ALA2        0.0000 
     26 O          94.8100  132.5800  120.5500 O.2       2 ALA2        0.0000 
     27 O          95.6000  131.3200  120.3600 O.2       2 ALA2        0.0000 
     28 N          91.1200  131.0200  127.2300 N.am      2 ALA2        0.0000 
     29 N          91.9100  129.7600  127.0400 N.am      2 ALA2        0.0000 
     30 N          92.6900  130.4200  125.9400 N.am      2 ALA2        0.0000 
     31 N          93.4800  129.1600  125.7500 N.am      2 ALA2        0.0000 
     32 N          92.6800  132.3400  125.0400 N.am      2 ALA2        0.0000 
     33 N          93.4700  131.0800  124.8500 N.am      2 ALA2        0.0000 
     34 N          94.4900  129.6400  126.7500 N.am      2 ALA2        0.0000 
     35 OD1        88.8900  128.3200  124.0300 O.co2     3 ASP3        0.0000 
     36 OD1        89.6800  127.0600  123.8400 O.co2     3 ASP3        0.0000 
     37 OD1        90.4600  127.7200  122.7400 O.co2     3 ASP3        0.0000 
     38 OD1        91.2500  126.4600  122.5500 O.co2     3 ASP3        0.0000 
     39 OD1        88.3200  129.4000  126.3200 O.co2     3 ASP3        0.0000 
     40 OD1        89.1000  130.0600  125.2300 O.co2     3 ASP3        0.0000 
     41 OD1        91.4700  128.2000  123.7400 O.co2     3 ASP3        0.0000 
     42 OD1        92.2600  126.9400  123.5500 O.co2     3 ASP3        0.0000 
     43 OD1        90.1200  128.6200  127.1400 O.co2     3 ASP3        0.0000 
     44 OD1        90.9000  129.2800  126.0400 O.co2     3 ASP3        0.0000 
     45 OD1        91.6900  128.0200  125.8400 O.co2     3 ASP3        0.0000 
     46 OD1        93.2600  127.4200  124.5500 O.co2     3 ASP3        0.0000 
     47 NZ         92.6000  126.0400  119.1600 N.4       4 LYS4        0.0000 
     48 NZ         89.6700  128.9800  122.9300 N.4       4 LYS4        0.0000 
     49 NZ         90.4500  129.6400  121.8300 N.4       4 LYS4        0.0000 
     50 NZ         91.2400  128.3800  121.6400 N.4       4 LYS4        0.0000 
     51 NZ         91.2300  130.3000  120.7400 N.4       4 LYS4        0.0000 
     52 CA         88.6600  128.5000  121.9300 C.3       5 GLY6        0.0000 
     53 CA         89.4500  127.2400  121.7400 C.3       5 GLY6        0.0000 
     54 CA         90.2500  125.9800  121.5400 C.3       5 GLY6        0.0000 
     55 CA         90.2400  127.9000  120.6400 C.3       5 GLY6        0.0000 
     56 CA         91.0300  126.6400  120.4500 C.3       5 GLY6        0.0000 
     57 CA         91.8200  125.3800  120.2500 C.3       5 GLY6        0.0000 
     58 CA         91.8100  127.3000  119.3500 C.3       5 GLY6        0.0000 
     59 CA         92.0300  127.1200  121.4500 C.3       5 GLY6        0.0000 
     60 CA         92.8200  125.8600  121.2600 C.3       5 GLY6        0.0000 
     61 CA         93.8300  126.3400  122.2600 C.3       5 GLY6        0.0000 
     62 CA         92.4400  134.4400  122.0300 C.3       5 GLY6        0.0000 
     63 CA         91.1300  129.1000  128.1400 C.3       5 GLY6        0.0000 
     64 CA         92.7000  128.5000  126.8500 C.3       5 GLY6        0.0000 
     65 CA         94.2700  127.9000  125.5600 C.3       5 GLY6        0.0000 
     66 CA         94.2600  129.8200  124.6500 C.3       5 GLY6        0.0000 
     67 CA         95.0500  128.5600  124.4600 C.3       5 GLY6        0.0000 
     68 CA         95.2700  130.3000  125.6600 C.3       5 GLY6        0.0000 
     69 CA         96.0600  129.0400  125.4600 C.3       5 GLY6        0.0000 
     70 CA         97.0700  129.5200  126.4700 C.3       5 GLY6        0.0000 
     71 CA         98.8600  128.7400  127.2800 C.3       5 GLY6        0.0000 
     72 CA         99.6400  129.4000  126.1800 C.3       5 GLY6        0.0000 
     73 CA         99.6400  131.3100  125.2800 C.3       5 GLY6        0.0000 
     74 CA        100.4300  130.0500  125.0800 C.3       5 GLY6        0.0000 
     75 CA         99.0800  130.4800  128.4800 C.3       5 GLY6        0.0000 
     76 CA         99.8600  131.1300  127.3800 C.3       5 GLY6        0.0000 
     77 CA        100.6400  131.7900  126.2800 C.3       5 GLY6        0.0000 
     78 CA        101.4200  132.4500  125.1800 C.3       5 GLY6        0.0000 
     79 DU         90.6800  129.4600  123.9400 H         6 CUB7        0.0000 
     80 DU         90.6700  131.3800  123.0300 H         6 CUB7        0.0000 
     81 DU         91.4600  130.1200  122.8400 H         6 CUB7        0.0000 
     82 DU         92.2500  128.8600  122.6500 H         6 CUB7        0.0000 
     83 DU         91.4500  132.0400  121.9300 H         6 CUB7        0.0000 
     84 DU         92.2400  130.7800  121.7400 H         6 CUB7        0.0000 
     85 DU         92.2300  132.7000  120.8300 H         6 CUB7        0.0000 
     86 DU         90.1100  130.5400  126.2300 H         6 CUB7        0.0000 
     87 DU         91.6800  129.9400  124.9400 H         6 CUB7        0.0000 
     88 DU         92.4700  128.6800  124.7500 H         6 CUB7        0.0000 
     89 DU         91.6700  131.8600  124.0300 H         6 CUB7        0.0000 
     90 DU         92.4600  130.6000  123.8400 H         6 CUB7        0.0000 
     91 DU         93.2500  129.3400  123.6500 H         6 CUB7        0.0000 
@<TRIPOS>BOND
@<TRIPOS>SUBSTRUCTURE
     1 SER1        1 GROUP   
     2 ALA2        9 GROUP   
     3 ASP3       35 GROUP   
     4 LYS4       47 GROUP   
     5 GLY6       52 GROUP   
     6 CUB7       79 GROUP   
@<TRIPOS>SET

