#    Name: 6t8o_6_ADP
#    Modification time : Fri May 22 19:29:11 2020

@<TRIPOS>MOLECULE
6t8o_6_ADP
   27    29     1     0     1
SMALL
NO_CHARGES


@<TRIPOS>ATOM
      1 PB        157.1330  114.4800  131.0540 P.3       1 ADP801      0.0000 
      2 O1B       157.6050  114.1210  129.6720 O.co2     1 ADP801      0.0000 
      3 O2B       157.1420  113.3480  132.0480 O.co2     1 ADP801      0.0000 
      4 O3B       155.8710  115.2960  131.0930 O.co2     1 ADP801      0.0000 
      5 PA        159.3750  114.9570  132.5970 P.3       1 ADP801      0.0000 
      6 O1A       159.9800  113.7100  132.0100 O.co2     1 ADP801      0.0000 
      7 O2A       158.7700  114.9290  133.9750 O.co2     1 ADP801      0.0000 
      8 O3A       158.2510  115.4960  131.5910 O.3       1 ADP801      0.0000 
      9 O5'       160.5100  116.0890  132.5600 O.3       1 ADP801      0.0000 
     10 C5'       161.8230  115.7510  132.9940 C.3       1 ADP801      0.0000 
     11 C4'       162.7460  116.9320  132.7590 C.3       1 ADP801      0.0000 
     12 O4'       162.5320  117.9320  133.7480 O.3       1 ADP801      0.0000 
     13 C3'       164.2050  116.5410  132.8690 C.3       1 ADP801      0.0000 
     14 O3'       164.7850  116.5540  131.5680 O.3       1 ADP801      0.0000 
     15 C2'       164.8650  117.6080  133.7090 C.3       1 ADP801      0.0000 
     16 O2'       165.8530  118.2830  132.9320 O.3       1 ADP801      0.0000 
     17 C1'       163.7650  118.5890  134.0390 C.3       1 ADP801      0.0000 
     18 N9        163.8190  118.9750  135.4670 N.pl3     1 ADP801      0.0000 
     19 C8        162.9460  118.5970  136.4130 C.2       1 ADP801      0.0000 
     20 N7        163.2570  119.1270  137.6190 N.2       1 ADP801      0.0000 
     21 C5        164.3590  119.8670  137.4450 C.ar      1 ADP801      0.0000 
     22 C6        165.2140  120.6960  138.3090 C.ar      1 ADP801      0.0000 
     23 N6        164.9330  120.8320  139.6230 N.pl3     1 ADP801      0.0000 
     24 N1        166.2730  121.3070  137.7430 N.ar      1 ADP801      0.0000 
     25 C2        166.5510  121.1740  136.4340 C.ar      1 ADP801      0.0000 
     26 N3        165.8130  120.4350  135.5890 N.ar      1 ADP801      0.0000 
     27 C4        164.7230  119.7700  136.0280 C.ar      1 ADP801      0.0000 
@<TRIPOS>BOND
     1    1    2 ar   
     2    1    3 ar   
     3    1    4 ar   
     4    1    8 1    
     5    5    6 ar   
     6    5    7 ar   
     7    5    8 1    
     8    5    9 1    
     9    9   10 1    
    10   10   11 1    
    11   11   12 1    
    12   11   13 1    
    13   12   17 1    
    14   13   14 1    
    15   13   15 1    
    16   15   16 1    
    17   15   17 1    
    18   17   18 1    
    19   18   19 1    
    20   18   27 1    
    21   19   20 2    
    22   20   21 1    
    23   21   22 ar   
    24   21   27 ar   
    25   22   23 1    
    26   22   24 ar   
    27   24   25 ar   
    28   25   26 ar   
    29   26   27 ar   
@<TRIPOS>SUBSTRUCTURE
     1 ADP801      1 GROUP   
@<TRIPOS>SET
ATOM$ORANGE STATIC     ATOMS   COLORGROUP SYSTEM 
20 10 10 11 11 13 13 15 15 17 17 19 19 21 21 22 22 25 \
25 27 27 

