#    Name: 6t8o_5_ADP_CAVITY_N1_4
#    Modification time : Fri May 22 19:29:01 2020

@<TRIPOS>MOLECULE
6t8o_5_ADP_CAVITY_N1_4
   41     0     6     0     0
SMALL
NO_CHARGES


@<TRIPOS>ATOM
      1 OG        147.5900  117.1200   99.6600 O.3       1 SER1        0.0000 
      2 OG        148.3700  117.7800   98.5600 O.3       1 SER1        0.0000 
      3 OG        149.1500  118.4400   97.4700 O.3       1 SER1        0.0000 
      4 OG        148.5800  119.5200   99.7600 O.3       1 SER1        0.0000 
      5 N         143.2100  118.0200   99.1400 N.am      2 ALA2        0.0000 
      6 N         143.9900  118.6800   98.0400 N.am      2 ALA2        0.0000 
      7 O         144.7800  117.4200   97.8500 O.2       2 ALA2        0.0000 
      8 O         145.0000  119.1600   99.0400 O.2       2 ALA2        0.0000 
      9 O         145.7900  117.9000   98.8500 O.2       2 ALA2        0.0000 
     10 O         146.5800  116.6400   98.6600 O.2       2 ALA2        0.0000 
     11 O         145.7800  119.8200   97.9500 O.2       2 ALA2        0.0000 
     12 O         146.5700  118.5600   97.7500 O.2       2 ALA2        0.0000 
     13 O         145.7700  121.7400   97.0400 O.2       2 ALA2        0.0000 
     14 O         146.0000  119.6400  100.0500 O.2       2 ALA2        0.0000 
     15 O         146.7800  120.3000   98.9500 O.2       2 ALA2        0.0000 
     16 O         147.5800  119.0400   98.7600 O.2       2 ALA2        0.0000 
     17 O         147.5700  120.9600   97.8500 O.2       2 ALA2        0.0000 
     18 O         147.0100  120.1200  101.0500 O.2       2 ALA2        0.0000 
     19 O         147.8000  118.8600  100.8600 O.2       2 ALA2        0.0000 
     20 O         147.7900  120.7800   99.9500 O.2       2 ALA2        0.0000 
     21 O         149.3600  120.1800   98.6600 O.2       2 ALA2        0.0000 
     22 O         150.3700  120.6600   99.6700 O.2       2 ALA2        0.0000 
     23 OD1       143.7700  118.8600   95.9400 O.co2     3 ASP3        0.0000 
     24 OD1       144.5600  117.6000   95.7500 O.co2     3 ASP3        0.0000 
     25 NZ        146.5900  114.7200   99.5600 N.4       4 LYS4        0.0000 
     26 CA        143.2000  119.9400   98.2300 C.3       5 GLY6        0.0000 
     27 CA        145.5700  116.1600   97.6500 C.3       5 GLY6        0.0000 
     28 CA        143.9800  120.6000   97.1300 C.3       5 GLY6        0.0000 
     29 CA        146.3500  116.8200   96.5600 C.3       5 GLY6        0.0000 
     30 CA        147.3700  115.3800   98.4700 C.3       5 GLY6        0.0000 
     31 CA        147.3600  117.3000   97.5600 C.3       5 GLY6        0.0000 
     32 CA        149.9400  117.1800   97.2700 C.3       5 GLY6        0.0000 
     33 CA        148.5700  121.4400   98.8500 C.3       5 GLY6        0.0000 
     34 CA        150.1600  118.9200   98.4700 C.3       5 GLY6        0.0000 
     35 CA        149.3500  122.1000   97.7600 C.3       5 GLY6        0.0000 
     36 DU        144.7700  119.3400   96.9400 H         6 CUB7        0.0000 
     37 DU        145.5600  118.0800   96.7500 H         6 CUB7        0.0000 
     38 DU        147.3500  119.2200   96.6600 H         6 CUB7        0.0000 
     39 DU        148.3600  119.7000   97.6600 H         6 CUB7        0.0000 
     40 DU        149.9300  119.1000   96.3700 H         6 CUB7        0.0000 
     41 DU        150.1500  120.8400   97.5600 H         6 CUB7        0.0000 
@<TRIPOS>BOND
@<TRIPOS>SUBSTRUCTURE
     1 SER1        1 GROUP   
     2 ALA2        5 GROUP   
     3 ASP3       23 GROUP   
     4 LYS4       25 GROUP   
     5 GLY6       26 GROUP   
     6 CUB7       36 GROUP   
@<TRIPOS>SET

