#    Name: 6t8o_1_ADP
#    Modification time : Fri May 22 19:28:39 2020

@<TRIPOS>MOLECULE
6t8o_1_ADP
   27    29     1     0     1
SMALL
NO_CHARGES


@<TRIPOS>ATOM
      1 PB        134.9560  114.2170  157.4340 P.3       1 ADP801      0.0000 
      2 O1B       134.6590  114.7150  156.0460 O.co2     1 ADP801      0.0000 
      3 O2B       136.2490  113.4540  157.5620 O.co2     1 ADP801      0.0000 
      4 O3B       133.7850  113.5600  158.1150 O.co2     1 ADP801      0.0000 
      5 PA        135.1660  115.5030  159.8910 P.3       1 ADP801      0.0000 
      6 O1A       135.6900  114.1610  160.3300 O.co2     1 ADP801      0.0000 
      7 O2A       133.8080  115.9670  160.3440 O.co2     1 ADP801      0.0000 
      8 O3A       135.2070  115.5570  158.2860 O.3       1 ADP801      0.0000 
      9 O5'       136.2380  116.6060  160.3510 O.3       1 ADP801      0.0000 
     10 C5'       136.6930  116.5760  161.7000 C.3       1 ADP801      0.0000 
     11 C4'       137.6610  117.7160  161.9780 C.3       1 ADP801      0.0000 
     12 O4'       136.9750  118.9630  161.9060 O.3       1 ADP801      0.0000 
     13 C3'       138.2410  117.6170  163.3790 C.3       1 ADP801      0.0000 
     14 O3'       139.6400  117.3320  163.3170 O.3       1 ADP801      0.0000 
     15 C2'       138.0280  118.9690  164.0220 C.3       1 ADP801      0.0000 
     16 O2'       139.2750  119.5260  164.4390 O.3       1 ADP801      0.0000 
     17 C1'       137.4210  119.8360  162.9410 C.3       1 ADP801      0.0000 
     18 N9        136.2800  120.5870  163.5070 N.pl3     1 ADP801      0.0000 
     19 C8        134.9860  120.2290  163.4410 C.2       1 ADP801      0.0000 
     20 N7        134.1950  121.1390  164.0590 N.2       1 ADP801      0.0000 
     21 C5        135.0000  122.1040  164.5330 C.ar      1 ADP801      0.0000 
     22 C6        134.8200  123.3570  165.2860 C.ar      1 ADP801      0.0000 
     23 N6        133.5860  123.7620  165.6600 N.pl3     1 ADP801      0.0000 
     24 N1        135.9200  124.0770  165.5860 N.ar      1 ADP801      0.0000 
     25 C2        137.1490  123.6770  165.2180 C.ar      1 ADP801      0.0000 
     26 N3        137.3880  122.5480  164.5320 N.ar      1 ADP801      0.0000 
     27 C4        136.3720  121.7360  164.1680 C.ar      1 ADP801      0.0000 
@<TRIPOS>BOND
     1    1    2 ar   
     2    1    3 ar   
     3    1    4 ar   
     4    1    8 1    
     5    5    6 ar   
     6    5    7 ar   
     7    5    8 1    
     8    5    9 1    
     9    9   10 1    
    10   10   11 1    
    11   11   12 1    
    12   11   13 1    
    13   12   17 1    
    14   13   14 1    
    15   13   15 1    
    16   15   16 1    
    17   15   17 1    
    18   17   18 1    
    19   18   19 1    
    20   18   27 1    
    21   19   20 2    
    22   20   21 1    
    23   21   22 ar   
    24   21   27 ar   
    25   22   23 1    
    26   22   24 ar   
    27   24   25 ar   
    28   25   26 ar   
    29   26   27 ar   
@<TRIPOS>SUBSTRUCTURE
     1 ADP801      1 GROUP   
@<TRIPOS>SET
ATOM$ORANGE STATIC     ATOMS   COLORGROUP SYSTEM 
20 10 10 11 11 13 13 15 15 17 17 19 19 21 21 22 22 25 \
25 27 27 

