#    Name: 6t8o_5_ADP_CAVITY_N1_8
#    Modification time : Fri May 22 19:29:01 2020

@<TRIPOS>MOLECULE
6t8o_5_ADP_CAVITY_N1_8
   82     0     6     0     0
SMALL
NO_CHARGES


@<TRIPOS>ATOM
      1 OG        147.5900  117.1200   99.6600 O.3       1 SER1        0.0000 
      2 OG        148.3700  117.7800   98.5600 O.3       1 SER1        0.0000 
      3 OG        149.1500  118.4400   97.4700 O.3       1 SER1        0.0000 
      4 OG        148.5800  119.5200   99.7600 O.3       1 SER1        0.0000 
      5 N         139.6200  117.6700   98.4200 N.am      2 ALA2        0.0000 
      6 N         141.1800  120.9000   95.3200 N.am      2 ALA2        0.0000 
      7 N         140.6300  118.1500   99.4200 N.am      2 ALA2        0.0000 
      8 O         141.3900  122.6400   96.5100 O.2       2 ALA2        0.0000 
      9 N         143.2100  118.0200   99.1400 N.am      2 ALA2        0.0000 
     10 O         144.0000  116.7600   98.9500 O.2       2 ALA2        0.0000 
     11 N         143.9900  118.6800   98.0400 N.am      2 ALA2        0.0000 
     12 O         144.7800  117.4200   97.8500 O.2       2 ALA2        0.0000 
     13 O         142.4000  123.1200   97.5200 O.2       2 ALA2        0.0000 
     14 O         145.0000  119.1600   99.0400 O.2       2 ALA2        0.0000 
     15 O         145.7900  117.9000   98.8500 O.2       2 ALA2        0.0000 
     16 O         146.5800  116.6400   98.6600 O.2       2 ALA2        0.0000 
     17 O         145.7800  119.8200   97.9500 O.2       2 ALA2        0.0000 
     18 O         146.5700  118.5600   97.7500 O.2       2 ALA2        0.0000 
     19 O         145.7700  121.7400   97.0400 O.2       2 ALA2        0.0000 
     20 O         146.0000  119.6400  100.0500 O.2       2 ALA2        0.0000 
     21 O         146.7800  120.3000   98.9500 O.2       2 ALA2        0.0000 
     22 O         147.5800  119.0400   98.7600 O.2       2 ALA2        0.0000 
     23 O         147.5700  120.9600   97.8500 O.2       2 ALA2        0.0000 
     24 O         147.0100  120.1200  101.0500 O.2       2 ALA2        0.0000 
     25 O         147.8000  118.8600  100.8600 O.2       2 ALA2        0.0000 
     26 O         147.7900  120.7800   99.9500 O.2       2 ALA2        0.0000 
     27 O         149.3600  120.1800   98.6600 O.2       2 ALA2        0.0000 
     28 O         150.3700  120.6600   99.6700 O.2       2 ALA2        0.0000 
     29 OD1       140.4100  116.4100   98.2300 O.co2     3 ASP3        0.0000 
     30 OD1       141.2000  117.0700   97.1300 O.co2     3 ASP3        0.0000 
     31 OD1       141.9900  115.8100   96.9400 O.co2     3 ASP3        0.0000 
     32 OD1       141.1900  118.9800   96.2200 O.co2     3 ASP3        0.0000 
     33 OD1       141.9800  117.7300   96.0300 O.co2     3 ASP3        0.0000 
     34 OD1       141.9700  119.6400   95.1300 O.co2     3 ASP3        0.0000 
     35 OD1       142.7500  120.3000   94.0300 O.co2     3 ASP3        0.0000 
     36 OD1       143.5300  120.9600   92.9300 O.co2     3 ASP3        0.0000 
     37 OD1       141.4200  116.8900   99.2300 O.co2     3 ASP3        0.0000 
     38 OD1       142.2000  117.5500   98.1300 O.co2     3 ASP3        0.0000 
     39 OD1       142.9900  116.2900   97.9400 O.co2     3 ASP3        0.0000 
     40 OD1       143.7900  115.0300   97.7500 O.co2     3 ASP3        0.0000 
     41 OD1       142.9800  118.2000   97.0400 O.co2     3 ASP3        0.0000 
     42 OD1       143.7800  116.9400   96.8400 O.co2     3 ASP3        0.0000 
     43 OD1       142.9700  120.1200   96.1300 O.co2     3 ASP3        0.0000 
     44 OD1       143.7700  118.8600   95.9400 O.co2     3 ASP3        0.0000 
     45 OD1       144.5600  117.6000   95.7500 O.co2     3 ASP3        0.0000 
     46 OD1       143.7600  120.7800   95.0300 O.co2     3 ASP3        0.0000 
     47 NZ        144.7900  115.5100   98.7500 N.4       4 LYS4        0.0000 
     48 NZ        146.5900  114.7200   99.5600 N.4       4 LYS4        0.0000 
     49 CA        140.4000  118.3300   97.3200 C.3       5 GLY6        0.0000 
     50 CA        140.3900  120.2400   96.4200 C.3       5 GLY6        0.0000 
     51 CA        140.3800  122.1600   95.5100 C.3       5 GLY6        0.0000 
     52 CA        141.9600  121.5600   94.2200 C.3       5 GLY6        0.0000 
     53 CA        139.8400  119.4100   99.6200 C.3       5 GLY6        0.0000 
     54 CA        140.6200  120.0600   98.5200 C.3       5 GLY6        0.0000 
     55 CA        141.4100  118.8100   98.3300 C.3       5 GLY6        0.0000 
     56 CA        140.6100  121.9800   97.6100 C.3       5 GLY6        0.0000 
     57 CA        141.4000  120.7200   97.4200 C.3       5 GLY6        0.0000 
     58 CA        144.5700  115.6800   96.6500 C.3       5 GLY6        0.0000 
     59 CA        142.1700  123.3000   95.4200 C.3       5 GLY6        0.0000 
     60 CA        142.4200  119.2800   99.3300 C.3       5 GLY6        0.0000 
     61 CA        145.5800  114.2500   98.5600 C.3       5 GLY6        0.0000 
     62 CA        143.2000  119.9400   98.2300 C.3       5 GLY6        0.0000 
     63 CA        145.5700  116.1600   97.6500 C.3       5 GLY6        0.0000 
     64 CA        143.1900  121.8600   97.3300 C.3       5 GLY6        0.0000 
     65 CA        143.9800  120.6000   97.1300 C.3       5 GLY6        0.0000 
     66 CA        146.3500  116.8200   96.5600 C.3       5 GLY6        0.0000 
     67 CA        143.1800  123.7800   96.4200 C.3       5 GLY6        0.0000 
     68 CA        147.3700  115.3800   98.4700 C.3       5 GLY6        0.0000 
     69 CA        147.3600  117.3000   97.5600 C.3       5 GLY6        0.0000 
     70 CA        149.9400  117.1800   97.2700 C.3       5 GLY6        0.0000 
     71 CA        148.5700  121.4400   98.8500 C.3       5 GLY6        0.0000 
     72 CA        150.1600  118.9200   98.4700 C.3       5 GLY6        0.0000 
     73 CA        149.3500  122.1000   97.7600 C.3       5 GLY6        0.0000 
     74 DU        142.1900  119.4600   97.2300 H         6 CUB7        0.0000 
     75 DU        142.1800  121.3800   96.3200 H         6 CUB7        0.0000 
     76 DU        142.9600  122.0400   95.2200 H         6 CUB7        0.0000 
     77 DU        144.7700  119.3400   96.9400 H         6 CUB7        0.0000 
     78 DU        145.5600  118.0800   96.7500 H         6 CUB7        0.0000 
     79 DU        147.3500  119.2200   96.6600 H         6 CUB7        0.0000 
     80 DU        148.3600  119.7000   97.6600 H         6 CUB7        0.0000 
     81 DU        149.9300  119.1000   96.3700 H         6 CUB7        0.0000 
     82 DU        150.1500  120.8400   97.5600 H         6 CUB7        0.0000 
@<TRIPOS>BOND
@<TRIPOS>SUBSTRUCTURE
     1 SER1        1 GROUP   
     2 ALA2        5 GROUP   
     3 ASP3       29 GROUP   
     4 LYS4       47 GROUP   
     5 GLY6       49 GROUP   
     6 CUB7       74 GROUP   
@<TRIPOS>SET

