#    Name: 6t8o_5_ADP
#    Modification time : Fri May 22 19:29:00 2020

@<TRIPOS>MOLECULE
6t8o_5_ADP
   27    29     1     0     1
SMALL
NO_CHARGES


@<TRIPOS>ATOM
      1 PB        147.2890  119.6080   99.5090 P.3       1 ADP801      0.0000 
      2 O1B       146.6720  119.6300   98.1370 O.co2     1 ADP801      0.0000 
      3 O2B       146.4130  120.1450  100.6070 O.co2     1 ADP801      0.0000 
      4 O3B       147.9680  118.3100   99.8530 O.co2     1 ADP801      0.0000 
      5 PA        149.8560  120.1850   98.7040 P.3       1 ADP801      0.0000 
      6 O1A       149.5020  119.2560   97.5740 O.co2     1 ADP801      0.0000 
      7 O2A       150.8000  119.7320   99.7870 O.co2     1 ADP801      0.0000 
      8 O3A       148.4960  120.6560   99.4060 O.3       1 ADP801      0.0000 
      9 O5'       150.4360  121.5270   98.0390 O.3       1 ADP801      0.0000 
     10 C5'       151.4550  121.4050   97.0530 C.3       1 ADP801      0.0000 
     11 C4'       151.6280  122.7130   96.3000 C.3       1 ADP801      0.0000 
     12 O4'       152.2290  123.6840   97.1480 O.3       1 ADP801      0.0000 
     13 C3'       152.5460  122.5170   95.1110 C.3       1 ADP801      0.0000 
     14 O3'       151.8310  122.7750   93.9020 O.3       1 ADP801      0.0000 
     15 C2'       153.6540  123.5310   95.2570 C.3       1 ADP801      0.0000 
     16 O2'       153.6340  124.4220   94.1420 O.3       1 ADP801      0.0000 
     17 C1'       153.3560  124.2970   96.5260 C.3       1 ADP801      0.0000 
     18 N9        154.5130  124.1280   97.4230 N.pl3     1 ADP801      0.0000 
     19 C8        154.6180  123.1680   98.3500 C.2       1 ADP801      0.0000 
     20 N7        155.7880  123.2580   99.0210 N.2       1 ADP801      0.0000 
     21 C5        156.4540  124.3010   98.5150 C.ar      1 ADP801      0.0000 
     22 C6        157.7510  124.9420   98.7750 C.ar      1 ADP801      0.0000 
     23 N6        158.5750  124.4660   99.7330 N.pl3     1 ADP801      0.0000 
     24 N1        158.0810  126.0120   98.0300 N.ar      1 ADP801      0.0000 
     25 C2        157.2600  126.4860   97.0770 C.ar      1 ADP801      0.0000 
     26 N3        156.0630  125.9490   96.7870 N.ar      1 ADP801      0.0000 
     27 C4        155.6120  124.8730   97.4620 C.ar      1 ADP801      0.0000 
@<TRIPOS>BOND
     1    1    2 ar   
     2    1    3 ar   
     3    1    4 ar   
     4    1    8 1    
     5    5    6 ar   
     6    5    7 ar   
     7    5    8 1    
     8    5    9 1    
     9    9   10 1    
    10   10   11 1    
    11   11   12 1    
    12   11   13 1    
    13   12   17 1    
    14   13   14 1    
    15   13   15 1    
    16   15   16 1    
    17   15   17 1    
    18   17   18 1    
    19   18   19 1    
    20   18   27 1    
    21   19   20 2    
    22   20   21 1    
    23   21   22 ar   
    24   21   27 ar   
    25   22   23 1    
    26   22   24 ar   
    27   24   25 ar   
    28   25   26 ar   
    29   26   27 ar   
@<TRIPOS>SUBSTRUCTURE
     1 ADP801      1 GROUP   
@<TRIPOS>SET
ATOM$ORANGE STATIC     ATOMS   COLORGROUP SYSTEM 
20 10 10 11 11 13 13 15 15 17 17 19 19 21 21 22 22 25 \
25 27 27 

