#    Name: 6t8o_3_ADP
#    Modification time : Fri May 22 19:28:50 2020

@<TRIPOS>MOLECULE
6t8o_3_ADP
   27    29     1     0     1
SMALL
NO_CHARGES


@<TRIPOS>ATOM
      1 PB         94.1210  131.3440  121.1470 P.3       1 ADP801      0.0000 
      2 O1B        93.2310  130.5380  120.2360 O.co2     1 ADP801      0.0000 
      3 O2B        95.4970  131.5910  120.5890 O.co2     1 ADP801      0.0000 
      4 O3B        94.1020  130.8950  122.5850 O.co2     1 ADP801      0.0000 
      5 PA         93.0700  133.5720  119.8410 P.3       1 ADP801      0.0000 
      6 O1A        94.3360  133.7780  119.0570 O.co2     1 ADP801      0.0000 
      7 O2A        91.8930  132.8710  119.2160 O.co2     1 ADP801      0.0000 
      8 O3A        93.4500  132.8030  121.1960 O.3       1 ADP801      0.0000 
      9 O5'        92.5450  134.9950  120.3660 O.3       1 ADP801      0.0000 
     10 C5'        91.5320  135.6650  119.6230 C.3       1 ADP801      0.0000 
     11 C4'        91.0930  136.9470  120.3190 C.3       1 ADP801      0.0000 
     12 O4'        91.7220  138.0710  119.7060 O.3       1 ADP801      0.0000 
     13 C3'        89.5970  137.1380  120.1780 C.3       1 ADP801      0.0000 
     14 O3'        88.9960  137.1710  121.4730 O.3       1 ADP801      0.0000 
     15 C2'        89.3950  138.4690  119.4910 C.3       1 ADP801      0.0000 
     16 O2'        88.6170  139.3260  120.3270 O.3       1 ADP801      0.0000 
     17 C1'        90.7750  139.0630  119.3070 C.3       1 ADP801      0.0000 
     18 N9         90.9950  139.3740  117.8750 N.pl3     1 ADP801      0.0000 
     19 C8         91.6280  138.5680  117.0110 C.2       1 ADP801      0.0000 
     20 N7         91.6910  139.1080  115.7720 N.2       1 ADP801      0.0000 
     21 C5         91.0770  140.2950  115.8330 C.ar      1 ADP801      0.0000 
     22 C6         90.7890  141.3810  114.8760 C.ar      1 ADP801      0.0000 
     23 N6         91.1770  141.2890  113.5840 N.pl3     1 ADP801      0.0000 
     24 N1         90.1230  142.4590  115.3310 N.ar      1 ADP801      0.0000 
     25 C2         89.7340  142.5550  116.6140 C.ar      1 ADP801      0.0000 
     26 N3         89.9650  141.6060  117.5390 N.ar      1 ADP801      0.0000 
     27 C4         90.6210  140.4710  117.2170 C.ar      1 ADP801      0.0000 
@<TRIPOS>BOND
     1    1    2 ar   
     2    1    3 ar   
     3    1    4 ar   
     4    1    8 1    
     5    5    6 ar   
     6    5    7 ar   
     7    5    8 1    
     8    5    9 1    
     9    9   10 1    
    10   10   11 1    
    11   11   12 1    
    12   11   13 1    
    13   12   17 1    
    14   13   14 1    
    15   13   15 1    
    16   15   16 1    
    17   15   17 1    
    18   17   18 1    
    19   18   19 1    
    20   18   27 1    
    21   19   20 2    
    22   20   21 1    
    23   21   22 ar   
    24   21   27 ar   
    25   22   23 1    
    26   22   24 ar   
    27   24   25 ar   
    28   25   26 ar   
    29   26   27 ar   
@<TRIPOS>SUBSTRUCTURE
     1 ADP801      1 GROUP   
@<TRIPOS>SET
ATOM$ORANGE STATIC     ATOMS   COLORGROUP SYSTEM 
20 10 10 11 11 13 13 15 15 17 17 19 19 21 21 22 22 25 \
25 27 27 

