#    Name: 6t8o_6_ADP_CAVITY_N1_4
#    Modification time : Fri May 22 19:29:12 2020

@<TRIPOS>MOLECULE
6t8o_6_ADP_CAVITY_N1_4
   72     0     6     0     0
SMALL
NO_CHARGES


@<TRIPOS>ATOM
      1 OG        156.1400  110.3500  132.4300 O.3       1 SER1        0.0000 
      2 OG        156.1300  112.2700  131.5200 O.3       1 SER1        0.0000 
      3 OG        156.9200  111.0100  131.3300 O.3       1 SER1        0.0000 
      4 OG        157.9200  113.4000  131.4300 O.3       1 SER1        0.0000 
      5 OG        158.7100  112.1500  131.2300 O.3       1 SER1        0.0000 
      6 OG        158.9200  113.8800  132.4300 O.3       1 SER1        0.0000 
      7 OG        159.7100  112.6200  132.2400 O.3       1 SER1        0.0000 
      8 O         157.9100  115.3200  130.5200 O.2       2 ALA2        0.0000 
      9 O         158.6900  115.9800  129.4200 O.2       2 ALA2        0.0000 
     10 O         160.2600  115.3800  128.1300 O.2       2 ALA2        0.0000 
     11 O         157.3400  116.4000  132.8200 O.2       2 ALA2        0.0000 
     12 O         158.1300  115.1400  132.6200 O.2       2 ALA2        0.0000 
     13 O         158.1200  117.0600  131.7200 O.2       2 ALA2        0.0000 
     14 O         158.9100  115.8000  131.5200 O.2       2 ALA2        0.0000 
     15 O         159.6900  116.4600  130.4300 O.2       2 ALA2        0.0000 
     16 O         160.4800  117.1200  129.3300 O.2       2 ALA2        0.0000 
     17 O         159.1400  115.6200  133.6300 O.2       2 ALA2        0.0000 
     18 O         159.9200  116.2800  132.5300 O.2       2 ALA2        0.0000 
     19 OD1       155.6800  112.6300  127.3200 O.co2     3 ASP3        0.0000 
     20 OD1       156.4700  111.3700  127.1300 O.co2     3 ASP3        0.0000 
     21 OD1       154.3400  111.1300  131.6200 O.co2     3 ASP3        0.0000 
     22 OD1       154.3300  113.0500  130.7100 O.co2     3 ASP3        0.0000 
     23 OD1       155.1200  111.7900  130.5200 O.co2     3 ASP3        0.0000 
     24 OD1       155.9100  110.5300  130.3200 O.co2     3 ASP3        0.0000 
     25 OD1       155.9000  112.4500  129.4200 O.co2     3 ASP3        0.0000 
     26 OD1       156.6900  111.1900  129.2300 O.co2     3 ASP3        0.0000 
     27 OD1       157.4800  111.8500  128.1300 O.co2     3 ASP3        0.0000 
     28 OD1       158.2600  112.5000  127.0300 O.co2     3 ASP3        0.0000 
     29 OD1       158.2500  114.4200  126.1300 O.co2     3 ASP3        0.0000 
     30 OD1       155.3500  111.6100  132.6200 O.co2     3 ASP3        0.0000 
     31 OD1       159.2600  112.9800  128.0300 O.co2     3 ASP3        0.0000 
     32 OD1       160.0500  113.6400  126.9400 O.co2     3 ASP3        0.0000 
     33 NZ        159.4900  112.8000  130.1400 N.4       4 LYS4        0.0000 
     34 NZ        160.2800  111.5400  129.9400 N.4       4 LYS4        0.0000 
     35 NZ        160.5000  113.2800  131.1400 N.4       4 LYS4        0.0000 
     36 NZ        162.2900  112.5000  131.9500 N.4       4 LYS4        0.0000 
     37 CA        156.4600  113.2800  126.2200 C.3       5 GLY6        0.0000 
     38 CA        155.1100  113.7100  129.6100 C.3       5 GLY6        0.0000 
     39 CA        156.6800  113.1100  128.3200 C.3       5 GLY6        0.0000 
     40 CA        158.2700  110.5900  127.9400 C.3       5 GLY6        0.0000 
     41 CA        157.4700  113.7600  127.2200 C.3       5 GLY6        0.0000 
     42 CA        157.4600  115.6800  126.3200 C.3       5 GLY6        0.0000 
     43 CA        155.3400  113.5300  131.7100 C.3       5 GLY6        0.0000 
     44 CA        157.7100  109.7500  131.1400 C.3       5 GLY6        0.0000 
     45 CA        155.3300  115.4500  130.8100 C.3       5 GLY6        0.0000 
     46 CA        156.1200  114.1900  130.6200 C.3       5 GLY6        0.0000 
     47 CA        158.4900  110.4100  130.0400 C.3       5 GLY6        0.0000 
     48 CA        156.9000  114.8400  129.5200 C.3       5 GLY6        0.0000 
     49 CA        157.6900  113.5800  129.3300 C.3       5 GLY6        0.0000 
     50 CA        159.2700  111.0700  128.9400 C.3       5 GLY6        0.0000 
     51 CA        158.4700  114.2400  128.2300 C.3       5 GLY6        0.0000 
     52 CA        158.4600  116.1600  127.3200 C.3       5 GLY6        0.0000 
     53 CA        159.2500  114.9000  127.1300 C.3       5 GLY6        0.0000 
     54 CA        155.5500  115.2700  132.9100 C.3       5 GLY6        0.0000 
     55 CA        156.3400  114.0100  132.7200 C.3       5 GLY6        0.0000 
     56 CA        156.3300  115.9200  131.8100 C.3       5 GLY6        0.0000 
     57 CA        159.9300  114.3600  133.4300 C.3       5 GLY6        0.0000 
     58 CA        160.7200  113.1000  133.2400 C.3       5 GLY6        0.0000 
     59 CA        160.7000  116.9400  131.4300 C.3       5 GLY6        0.0000 
     60 CA        161.4800  117.6000  130.3300 C.3       5 GLY6        0.0000 
     61 DU        156.9100  112.9300  130.4200 H         6 CUB7        0.0000 
     62 DU        157.7000  111.6700  130.2300 H         6 CUB7        0.0000 
     63 DU        158.4800  112.3200  129.1300 H         6 CUB7        0.0000 
     64 DU        157.1200  114.6600  131.6200 H         6 CUB7        0.0000 
     65 DU        158.7000  114.0600  130.3300 H         6 CUB7        0.0000 
     66 DU        159.4800  114.7200  129.2300 H         6 CUB7        0.0000 
     67 DU        160.2700  113.4600  129.0400 H         6 CUB7        0.0000 
     68 DU        159.7000  114.5400  131.3300 H         6 CUB7        0.0000 
     69 DU        160.4900  115.2000  130.2300 H         6 CUB7        0.0000 
     70 DU        160.7100  115.0200  132.3400 H         6 CUB7        0.0000 
     71 DU        161.4900  115.6800  131.2400 H         6 CUB7        0.0000 
     72 DU        162.2700  116.3400  130.1400 H         6 CUB7        0.0000 
@<TRIPOS>BOND
@<TRIPOS>SUBSTRUCTURE
     1 SER1        1 GROUP   
     2 ALA2        8 GROUP   
     3 ASP3       19 GROUP   
     4 LYS4       33 GROUP   
     5 GLY6       37 GROUP   
     6 CUB7       61 GROUP   
@<TRIPOS>SET

