#    Name: 6t8o_3_ADP_CAVITY_N1_4
#    Modification time : Fri May 22 19:28:51 2020

@<TRIPOS>MOLECULE
6t8o_3_ADP_CAVITY_N1_4
   50     0     6     0     0
SMALL
NO_CHARGES


@<TRIPOS>ATOM
      1 OG         92.0200  129.0400  120.5400 O.3       1 SER1        0.0000 
      2 OG         92.8100  127.7800  120.3500 O.3       1 SER1        0.0000 
      3 OG         92.0100  130.9600  119.6400 O.3       1 SER1        0.0000 
      4 OG         93.6000  128.4400  119.2500 O.3       1 SER1        0.0000 
      5 OG         93.0200  131.4400  120.6400 O.3       1 SER1        0.0000 
      6 OG         94.5900  130.8400  119.3500 O.3       1 SER1        0.0000 
      7 O          93.0400  127.6000  122.4500 O.2       2 ALA2        0.0000 
      8 O          93.0300  129.5200  121.5500 O.2       2 ALA2        0.0000 
      9 O          93.8200  128.2600  121.3600 O.2       2 ALA2        0.0000 
     10 O          93.8100  130.1800  120.4500 O.2       2 ALA2        0.0000 
     11 O          92.2200  134.6200  119.9300 O.2       2 ALA2        0.0000 
     12 O          93.0100  133.3600  119.7400 O.2       2 ALA2        0.0000 
     13 O          93.8000  132.1000  119.5400 O.2       2 ALA2        0.0000 
     14 O          94.0500  128.0800  123.4600 O.2       2 ALA2        0.0000 
     15 O          92.4500  132.5200  122.9400 O.2       2 ALA2        0.0000 
     16 O          93.2500  131.2600  122.7400 O.2       2 ALA2        0.0000 
     17 O          94.0400  130.0000  122.5500 O.2       2 ALA2        0.0000 
     18 O          93.2400  133.1800  121.8400 O.2       2 ALA2        0.0000 
     19 O          94.0300  131.9200  121.6500 O.2       2 ALA2        0.0000 
     20 O          94.8200  130.6600  121.4500 O.2       2 ALA2        0.0000 
     21 O          94.0200  133.8400  120.7400 O.2       2 ALA2        0.0000 
     22 O          94.8100  132.5800  120.5500 O.2       2 ALA2        0.0000 
     23 O          95.6000  131.3200  120.3600 O.2       2 ALA2        0.0000 
     24 N          92.6900  130.4200  125.9400 N.am      2 ALA2        0.0000 
     25 N          93.4800  129.1600  125.7500 N.am      2 ALA2        0.0000 
     26 N          92.6800  132.3400  125.0400 N.am      2 ALA2        0.0000 
     27 N          93.4700  131.0800  124.8500 N.am      2 ALA2        0.0000 
     28 OD1        91.4700  128.2000  123.7400 O.co2     3 ASP3        0.0000 
     29 NZ         90.4500  129.6400  121.8300 N.4       4 LYS4        0.0000 
     30 NZ         91.2400  128.3800  121.6400 N.4       4 LYS4        0.0000 
     31 NZ         91.2300  130.3000  120.7400 N.4       4 LYS4        0.0000 
     32 CA         91.8100  127.3000  119.3500 C.3       5 GLY6        0.0000 
     33 CA         92.0300  127.1200  121.4500 C.3       5 GLY6        0.0000 
     34 CA         92.4400  134.4400  122.0300 C.3       5 GLY6        0.0000 
     35 CA         94.2600  129.8200  124.6500 C.3       5 GLY6        0.0000 
     36 CA         95.0500  128.5600  124.4600 C.3       5 GLY6        0.0000 
     37 CA         95.2700  130.3000  125.6600 C.3       5 GLY6        0.0000 
     38 CA         96.0600  129.0400  125.4600 C.3       5 GLY6        0.0000 
     39 DU         90.6800  129.4600  123.9400 H         6 CUB7        0.0000 
     40 DU         90.6700  131.3800  123.0300 H         6 CUB7        0.0000 
     41 DU         91.4600  130.1200  122.8400 H         6 CUB7        0.0000 
     42 DU         92.2500  128.8600  122.6500 H         6 CUB7        0.0000 
     43 DU         91.4500  132.0400  121.9300 H         6 CUB7        0.0000 
     44 DU         92.2400  130.7800  121.7400 H         6 CUB7        0.0000 
     45 DU         92.2300  132.7000  120.8300 H         6 CUB7        0.0000 
     46 DU         91.6800  129.9400  124.9400 H         6 CUB7        0.0000 
     47 DU         92.4700  128.6800  124.7500 H         6 CUB7        0.0000 
     48 DU         91.6700  131.8600  124.0300 H         6 CUB7        0.0000 
     49 DU         92.4600  130.6000  123.8400 H         6 CUB7        0.0000 
     50 DU         93.2500  129.3400  123.6500 H         6 CUB7        0.0000 
@<TRIPOS>BOND
@<TRIPOS>SUBSTRUCTURE
     1 SER1        1 GROUP   
     2 ALA2        7 GROUP   
     3 ASP3       28 GROUP   
     4 LYS4       29 GROUP   
     5 GLY6       32 GROUP   
     6 CUB7       39 GROUP   
@<TRIPOS>SET

