#    Name: 5utm_1_NAD_CAVITY_N1_4
#    Modification time : Fri May 22 19:19:00 2020

@<TRIPOS>MOLECULE
5utm_1_NAD_CAVITY_N1_4
   62     0     4     0     0
SMALL
NO_CHARGES


@<TRIPOS>ATOM
      1 O          -0.5100   18.0800   26.0900 O.2       1 ALA2        0.0000 
      2 O           0.7100   17.8400   25.2400 O.2       1 ALA2        0.0000 
      3 N          -0.8900   19.1300   27.8900 N.am      1 ALA2        0.0000 
      4 N          -0.3200   21.3600   25.4600 N.am      1 ALA2        0.0000 
      5 N           0.0000   20.1300   26.2500 N.am      1 ALA2        0.0000 
      6 N          -1.5400   16.7200   32.9200 N.am      1 ALA2        0.0000 
      7 N          -1.2800   20.1800   29.6900 N.am      1 ALA2        0.0000 
      8 N          -0.3900   21.1800   28.0500 N.am      1 ALA2        0.0000 
      9 N          -0.0700   19.9500   28.8400 N.am      1 ALA2        0.0000 
     10 N           0.8200   20.9500   27.2000 N.am      1 ALA2        0.0000 
     11 N          -0.7200   17.5400   33.8700 N.am      1 ALA2        0.0000 
     12 O          -0.4000   16.3000   34.6600 O.2       1 ALA2        0.0000 
     13 N          -0.1400   19.7700   31.4300 N.am      1 ALA2        0.0000 
     14 N           0.1800   18.5400   32.2200 N.am      1 ALA2        0.0000 
     15 N           0.8200   16.0700   33.8000 N.am      1 ALA2        0.0000 
     16 N           1.6400   16.8900   34.7500 N.am      1 ALA2        0.0000 
     17 N           2.8500   16.6600   33.9000 N.am      1 ALA2        0.0000 
     18 CZ         -1.2200   15.4800   33.7100 C.ar      2 PHE5        0.0000 
     19 CA         -0.8200   19.3100   25.3000 C.3       3 GLY6        0.0000 
     20 CA         -0.1900   16.8400   26.8800 C.3       3 GLY6        0.0000 
     21 CA          0.3900   19.0800   24.4500 C.3       3 GLY6        0.0000 
     22 CA          1.0300   16.6100   26.0300 C.3       3 GLY6        0.0000 
     23 CA         -1.7900   18.1300   29.5400 C.3       3 GLY6        0.0000 
     24 CA         -0.5800   17.9000   28.6800 C.3       3 GLY6        0.0000 
     25 CA         -0.2600   16.6600   29.4700 C.3       3 GLY6        0.0000 
     26 CA          0.0600   15.4300   30.2700 C.3       3 GLY6        0.0000 
     27 CA          0.3800   14.1900   31.0600 C.3       3 GLY6        0.0000 
     28 CA          0.9600   16.4300   28.6200 C.3       3 GLY6        0.0000 
     29 CA          1.2700   15.1900   29.4100 C.3       3 GLY6        0.0000 
     30 CA          1.8500   17.4300   26.9800 C.3       3 GLY6        0.0000 
     31 CA         -0.9600   18.9500   30.4800 C.3       3 GLY6        0.0000 
     32 CA         -0.6500   17.7200   31.2700 C.3       3 GLY6        0.0000 
     33 CA         -0.3300   16.4800   32.0700 C.3       3 GLY6        0.0000 
     34 CA         -0.0100   15.2500   32.8600 C.3       3 GLY6        0.0000 
     35 CA          0.5700   17.4800   30.4200 C.3       3 GLY6        0.0000 
     36 CA          0.8900   16.2500   31.2100 C.3       3 GLY6        0.0000 
     37 CA         -0.4600   21.0000   30.6400 C.3       3 GLY6        0.0000 
     38 CA         -0.2100   19.5900   34.0200 C.3       3 GLY6        0.0000 
     39 CA          0.1100   18.3600   34.8100 C.3       3 GLY6        0.0000 
     40 CA          0.4300   17.1200   35.6000 C.3       3 GLY6        0.0000 
     41 CA          0.6800   20.5900   32.3800 C.3       3 GLY6        0.0000 
     42 CA          1.0000   19.3600   33.1700 C.3       3 GLY6        0.0000 
     43 CA          0.9300   19.1800   35.7600 C.3       3 GLY6        0.0000 
     44 CA          1.2500   17.9400   36.5500 C.3       3 GLY6        0.0000 
     45 CA          1.8300   20.1800   34.1200 C.3       3 GLY6        0.0000 
     46 CA          2.4600   17.7100   35.7000 C.3       3 GLY6        0.0000 
     47 CA          2.9700   19.7600   35.8600 C.3       3 GLY6        0.0000 
     48 DU          0.3200   18.9000   27.0400 H         4 CUB7        0.0000 
     49 DU          0.6400   17.6600   27.8300 H         4 CUB7        0.0000 
     50 DU          0.8900   21.1300   24.6100 H         4 CUB7        0.0000 
     51 DU          1.2100   19.9000   25.4000 H         4 CUB7        0.0000 
     52 DU          1.5300   18.6600   26.1900 H         4 CUB7        0.0000 
     53 DU          0.2500   18.7200   29.6300 H         4 CUB7        0.0000 
     54 DU          1.2000   15.0100   32.0000 H         4 CUB7        0.0000 
     55 DU          1.1400   19.7200   27.9900 H         4 CUB7        0.0000 
     56 DU          2.1000   16.0200   30.3600 H         4 CUB7        0.0000 
     57 DU          0.5000   17.3000   33.0100 H         4 CUB7        0.0000 
     58 DU          1.0700   19.5400   30.5800 H         4 CUB7        0.0000 
     59 DU          1.3900   18.3000   31.3700 H         4 CUB7        0.0000 
     60 DU          1.3200   18.1200   33.9600 H         4 CUB7        0.0000 
     61 DU          2.1400   18.9400   34.9100 H         4 CUB7        0.0000 
     62 DU          3.6800   17.4800   34.8500 H         4 CUB7        0.0000 
@<TRIPOS>BOND
@<TRIPOS>SUBSTRUCTURE
     1 ALA2        1 GROUP   
     2 PHE5       18 GROUP   
     3 GLY6       19 GROUP   
     4 CUB7       48 GROUP   
@<TRIPOS>SET

