#    Name: 5utm_3_NAD
#    Modification time : Fri May 22 19:19:06 2020

@<TRIPOS>MOLECULE
5utm_3_NAD
   44    48     1     0     1
SMALL
NO_CHARGES


@<TRIPOS>ATOM
      1 PA         18.3550   24.2660   16.4480 P.3       1 NAD401      0.0000 
      2 O1A        16.9000   24.3470   16.7580 O.co2     1 NAD401      0.0000 
      3 O2A        19.1870   23.3010   17.2200 O.co2     1 NAD401      0.0000 
      4 O5B        19.0410   25.7050   16.5570 O.3       1 NAD401      0.0000 
      5 C5B        18.2450   26.8900   16.3760 C.3       1 NAD401      0.0000 
      6 C4B        18.7580   27.9400   17.3290 C.3       1 NAD401      0.0000 
      7 O4B        18.3600   29.2510   16.8560 O.3       1 NAD401      0.0000 
      8 C3B        18.2460   27.8300   18.7740 C.3       1 NAD401      0.0000 
      9 O3B        19.3100   27.9490   19.7060 O.3       1 NAD401      0.0000 
     10 C2B        17.2230   28.9690   18.8720 C.3       1 NAD401      0.0000 
     11 O2B        17.0840   29.4570   20.1880 O.3       1 NAD401      0.0000 
     12 C1B        17.8330   29.9970   17.9240 C.3       1 NAD401      0.0000 
     13 N9A        16.8960   30.9800   17.3790 N.pl3     1 NAD401      0.0000 
     14 C8A        15.6190   30.7600   16.9230 C.2       1 NAD401      0.0000 
     15 N7A        15.0280   31.8440   16.4800 N.2       1 NAD401      0.0000 
     16 C5A        15.9790   32.8430   16.6420 C.ar      1 NAD401      0.0000 
     17 C6A        15.9650   34.2250   16.3560 C.ar      1 NAD401      0.0000 
     18 N6A        14.9210   34.8620   15.8270 N.pl3     1 NAD401      0.0000 
     19 N1A        17.0830   34.9360   16.6390 N.ar      1 NAD401      0.0000 
     20 C2A        18.1320   34.2930   17.1710 C.ar      1 NAD401      0.0000 
     21 N3A        18.2590   33.0040   17.4820 N.ar      1 NAD401      0.0000 
     22 C4A        17.1350   32.3210   17.1930 C.ar      1 NAD401      0.0000 
     23 O3         18.5210   23.9730   14.8830 O.3       1 NAD401      0.0000 
     24 PN         19.7180   23.2810   14.0740 P.3       1 NAD401      0.0000 
     25 O1N        19.4780   21.8130   14.0390 O.co2     1 NAD401      0.0000 
     26 O2N        20.9990   23.7880   14.6340 O.co2     1 NAD401      0.0000 
     27 O5D        19.4750   23.8750   12.6100 O.3       1 NAD401      0.0000 
     28 C5D        19.8370   25.2430   12.3570 C.3       1 NAD401      0.0000 
     29 C4D        19.9030   25.4600   10.8650 C.3       1 NAD401      0.0000 
     30 O4D        20.9030   24.5730   10.3010 O.3       1 NAD401      0.0000 
     31 C3D        18.6180   25.1770   10.0700 C.3       1 NAD401      0.0000 
     32 O3D        18.5360   26.0510    8.9580 O.3       1 NAD401      0.0000 
     33 C2D        18.8230   23.7290    9.6240 C.3       1 NAD401      0.0000 
     34 O2D        18.0470   23.3670    8.4940 O.3       1 NAD401      0.0000 
     35 C1D        20.3100   23.7620    9.3210 C.3       1 NAD401      0.0000 
     36 N1N        20.9620   22.4100    9.3550 N.pl3     1 NAD401      0.0000 
     37 C2N        20.7700   21.5410   10.3970 C.ar      1 NAD401      0.0000 
     38 C3N        21.3270   20.2780   10.3620 C.ar      1 NAD401      0.0000 
     39 C7N        21.0480   19.2510   11.4330 C.2       1 NAD401      0.0000 
     40 O7N        21.2050   18.0570   11.1720 O.2       1 NAD401      0.0000 
     41 N7N        20.6450   19.6730   12.6270 N.am      1 NAD401      0.0000 
     42 C4N        22.1720   19.9430    9.3040 C.ar      1 NAD401      0.0000 
     43 C5N        22.4340   20.8640    8.3010 C.ar      1 NAD401      0.0000 
     44 C6N        21.7860   22.0720    8.3190 C.ar      1 NAD401      0.0000 
@<TRIPOS>BOND
     1    1    2 ar   
     2    1    3 ar   
     3    1    4 1    
     4    1   23 1    
     5    4    5 1    
     6    5    6 1    
     7    6    7 1    
     8    6    8 1    
     9    7   12 1    
    10    8    9 1    
    11    8   10 1    
    12   10   11 1    
    13   10   12 1    
    14   12   13 1    
    15   13   14 1    
    16   13   22 1    
    17   14   15 2    
    18   15   16 1    
    19   16   17 ar   
    20   16   22 ar   
    21   17   18 1    
    22   17   19 ar   
    23   19   20 ar   
    24   20   21 ar   
    25   21   22 ar   
    26   23   24 1    
    27   24   25 ar   
    28   24   26 ar   
    29   24   27 1    
    30   27   28 1    
    31   28   29 1    
    32   29   30 1    
    33   29   31 1    
    34   30   35 1    
    35   31   32 1    
    36   31   33 1    
    37   33   34 1    
    38   33   35 1    
    39   35   36 1    
    40   36   37 ar   
    41   36   44 ar   
    42   37   38 ar   
    43   38   39 1    
    44   38   42 ar   
    45   39   40 2    
    46   39   41 am   
    47   42   43 ar   
    48   43   44 ar   
@<TRIPOS>SUBSTRUCTURE
     1 NAD401      1 GROUP   
@<TRIPOS>SET
ATOM$ORANGE STATIC     ATOMS   COLORGROUP SYSTEM 
42 5 5 6 6 8 8 10 10 12 12 14 14 16 16 17 17 20 \
20 22 22 28 28 29 29 31 31 33 33 35 35 37 37 38 38 39 \
39 42 42 43 43 44 44 

