#    Name: 5utm_1_NAD
#    Modification time : Fri May 22 19:18:59 2020

@<TRIPOS>MOLECULE
5utm_1_NAD
   44    48     1     0     1
SMALL
NO_CHARGES


@<TRIPOS>ATOM
      1 PA          1.0180   19.2920   25.1150 P.3       1 NAD401      0.0000 
      2 O1A         2.1620   20.1810   24.7750 O.co2     1 NAD401      0.0000 
      3 O2A         0.9400   17.9480   24.4780 O.co2     1 NAD401      0.0000 
      4 O5B        -0.3710   20.0410   24.8620 O.3       1 NAD401      0.0000 
      5 C5B        -0.4360   21.4750   24.9390 C.3       1 NAD401      0.0000 
      6 C4B        -1.4000   21.9450   23.8790 C.3       1 NAD401      0.0000 
      7 O4B        -1.8110   23.3070   24.1610 O.3       1 NAD401      0.0000 
      8 C3B        -0.8450   21.9540   22.4440 C.3       1 NAD401      0.0000 
      9 O3B        -1.7550   21.3460   21.5400 O.3       1 NAD401      0.0000 
     10 C2B        -0.6180   23.4440   22.1650 C.3       1 NAD401      0.0000 
     11 O2B        -0.7120   23.7750   20.7980 O.3       1 NAD401      0.0000 
     12 C1B        -1.7490   24.0630   22.9780 C.3       1 NAD401      0.0000 
     13 N9A        -1.5610   25.4590   23.3530 N.pl3     1 NAD401      0.0000 
     14 C8A        -0.4180   26.0510   23.8300 C.2       1 NAD401      0.0000 
     15 N7A        -0.5700   27.3200   24.1170 N.2       1 NAD401      0.0000 
     16 C5A        -1.9030   27.5770   23.8360 C.ar      1 NAD401      0.0000 
     17 C6A        -2.6860   28.7440   23.9400 C.ar      1 NAD401      0.0000 
     18 N6A        -2.2180   29.9100   24.3840 N.pl3     1 NAD401      0.0000 
     19 N1A        -3.9920   28.6550   23.5880 N.ar      1 NAD401      0.0000 
     20 C2A        -4.4590   27.4790   23.1460 C.ar      1 NAD401      0.0000 
     21 N3A        -3.8160   26.3220   23.0020 N.ar      1 NAD401      0.0000 
     22 C4A        -2.5270   26.4350   23.3690 C.ar      1 NAD401      0.0000 
     23 O3          0.9650   19.1190   26.7130 O.3       1 NAD401      0.0000 
     24 PN          0.3920   17.9400   27.6430 P.3       1 NAD401      0.0000 
     25 O1N         1.4480   16.9110   27.8550 O.co2     1 NAD401      0.0000 
     26 O2N        -0.9180   17.4920   27.0930 O.co2     1 NAD401      0.0000 
     27 O5D         0.1780   18.7220   29.0180 O.3       1 NAD401      0.0000 
     28 C5D        -0.8410   19.7330   29.0750 C.3       1 NAD401      0.0000 
     29 C4D        -1.1020   20.0680   30.5220 C.3       1 NAD401      0.0000 
     30 O4D        -1.4350   18.8510   31.2350 O.3       1 NAD401      0.0000 
     31 C3D         0.0700   20.6820   31.3040 C.3       1 NAD401      0.0000 
     32 O3D        -0.4310   21.5540   32.3020 O.3       1 NAD401      0.0000 
     33 C2D         0.7290   19.4400   31.9140 C.3       1 NAD401      0.0000 
     34 O2D         1.5330   19.7300   33.0420 O.3       1 NAD401      0.0000 
     35 C1D        -0.5160   18.6490   32.2780 C.3       1 NAD401      0.0000 
     36 N1N        -0.2820   17.1760   32.4530 N.pl3     1 NAD401      0.0000 
     37 C2N         0.4150   16.4330   31.5360 C.ar      1 NAD401      0.0000 
     38 C3N         0.6630   15.0950   31.7680 C.ar      1 NAD401      0.0000 
     39 C7N         1.4570   14.2470   30.8010 C.2       1 NAD401      0.0000 
     40 O7N         1.9690   13.1990   31.2000 O.2       1 NAD401      0.0000 
     41 N7N         1.5700   14.6630   29.5450 N.am      1 NAD401      0.0000 
     42 C4N         0.1760   14.5120   32.9370 C.ar      1 NAD401      0.0000 
     43 C5N        -0.6480   15.2370   33.7830 C.ar      1 NAD401      0.0000 
     44 C6N        -0.8280   16.5750   33.5510 C.ar      1 NAD401      0.0000 
@<TRIPOS>BOND
     1    1    2 ar   
     2    1    3 ar   
     3    1    4 1    
     4    1   23 1    
     5    4    5 1    
     6    5    6 1    
     7    6    7 1    
     8    6    8 1    
     9    7   12 1    
    10    8    9 1    
    11    8   10 1    
    12   10   11 1    
    13   10   12 1    
    14   12   13 1    
    15   13   14 1    
    16   13   22 1    
    17   14   15 2    
    18   15   16 1    
    19   16   17 ar   
    20   16   22 ar   
    21   17   18 1    
    22   17   19 ar   
    23   19   20 ar   
    24   20   21 ar   
    25   21   22 ar   
    26   23   24 1    
    27   24   25 ar   
    28   24   26 ar   
    29   24   27 1    
    30   27   28 1    
    31   28   29 1    
    32   29   30 1    
    33   29   31 1    
    34   30   35 1    
    35   31   32 1    
    36   31   33 1    
    37   33   34 1    
    38   33   35 1    
    39   35   36 1    
    40   36   37 ar   
    41   36   44 ar   
    42   37   38 ar   
    43   38   39 1    
    44   38   42 ar   
    45   39   40 2    
    46   39   41 am   
    47   42   43 ar   
    48   43   44 ar   
@<TRIPOS>SUBSTRUCTURE
     1 NAD401      1 GROUP   
@<TRIPOS>SET
ATOM$ORANGE STATIC     ATOMS   COLORGROUP SYSTEM 
42 5 5 6 6 8 8 10 10 12 12 14 14 16 16 17 17 20 \
20 22 22 28 28 29 29 31 31 33 33 35 35 37 37 38 38 39 \
39 42 42 43 43 44 44 

