#    Name: 6f76_4_GNP
#    Modification time : Fri May 22 19:30:11 2020

@<TRIPOS>MOLECULE
6f76_4_GNP
   32    34     1     0     1
SMALL
NO_CHARGES


@<TRIPOS>ATOM
      1 PG         39.9990  134.6010   11.6160 P.3       1 GNP201      0.0000 
      2 O1G        38.6440  135.2690   11.2510 O.co2     1 GNP201      0.0000 
      3 O2G        40.0520  134.3260   13.1690 O.co2     1 GNP201      0.0000 
      4 O3G        41.1450  135.4430   11.3380 O.co2     1 GNP201      0.0000 
      5 N3B        39.9780  133.1650   10.8130 N.3       1 GNP201      0.0000 
      6 PB         41.0590  131.9520   10.9810 P.3       1 GNP201      0.0000 
      7 O1B        42.4780  132.3790   10.4090 O.co2     1 GNP201      0.0000 
      8 O2B        41.1330  131.5890   12.3760 O.co2     1 GNP201      0.0000 
      9 O3A        40.5120  130.6770   10.2000 O.3       1 GNP201      0.0000 
     10 PA         39.5090  129.6440   10.8880 P.3       1 GNP201      0.0000 
     11 O1A        38.3090  130.3590   11.5020 O.co2     1 GNP201      0.0000 
     12 O2A        40.2400  128.7380   11.7950 O.co2     1 GNP201      0.0000 
     13 O5'        39.1580  128.6990    9.6400 O.3       1 GNP201      0.0000 
     14 C5'        38.3970  129.2690    8.5720 C.3       1 GNP201      0.0000 
     15 C4'        37.7290  128.2070    7.6940 C.3       1 GNP201      0.0000 
     16 O4'        38.7160  127.3920    7.0670 O.3       1 GNP201      0.0000 
     17 C3'        36.8860  127.2860    8.5250 C.3       1 GNP201      0.0000 
     18 O3'        35.6740  127.0180    7.8360 O.3       1 GNP201      0.0000 
     19 C2'        37.7300  126.0470    8.6900 C.3       1 GNP201      0.0000 
     20 O2'        36.9630  124.8610    8.9130 O.3       1 GNP201      0.0000 
     21 C1'        38.4750  126.0390    7.4050 C.3       1 GNP201      0.0000 
     22 N9         39.8170  125.5030    7.5330 N.pl3     1 GNP201      0.0000 
     23 C8         40.8820  125.9510    8.3810 C.2       1 GNP201      0.0000 
     24 N7         41.9890  125.1830    8.1580 N.2       1 GNP201      0.0000 
     25 C5         41.7240  124.2610    7.2240 C.2       1 GNP201      0.0000 
     26 C6         42.5470  123.1830    6.5630 C.2       1 GNP201      0.0000 
     27 O6         43.7490  122.9700    6.8290 O.2       1 GNP201      0.0000 
     28 N1         41.9120  122.4750    5.6250 N.am      1 GNP201      0.0000 
     29 C2         40.5530  122.7320    5.2560 C.2       1 GNP201      0.0000 
     30 N2         39.9940  121.9500    4.3320 N.pl3     1 GNP201      0.0000 
     31 N3         39.8160  123.6870    5.8160 N.2       1 GNP201      0.0000 
     32 C4         40.3510  124.4310    6.7670 C.2       1 GNP201      0.0000 
@<TRIPOS>BOND
     1    1    2 ar   
     2    1    3 ar   
     3    1    4 ar   
     4    1    5 1    
     5    5    6 1    
     6    6    7 ar   
     7    6    8 ar   
     8    6    9 1    
     9    9   10 1    
    10   10   11 ar   
    11   10   12 ar   
    12   10   13 1    
    13   13   14 1    
    14   14   15 1    
    15   15   16 1    
    16   15   17 1    
    17   16   21 1    
    18   17   18 1    
    19   17   19 1    
    20   19   20 1    
    21   19   21 1    
    22   21   22 1    
    23   22   23 1    
    24   22   32 1    
    25   23   24 2    
    26   24   25 1    
    27   25   26 1    
    28   25   32 2    
    29   26   27 2    
    30   26   28 am   
    31   28   29 1    
    32   29   30 1    
    33   29   31 2    
    34   31   32 1    
@<TRIPOS>SUBSTRUCTURE
     1 GNP201      1 GROUP   
@<TRIPOS>SET
ATOM$ORANGE STATIC     ATOMS   COLORGROUP SYSTEM 
20 14 14 15 15 17 17 19 19 21 21 23 23 25 25 26 26 29 \
29 32 32 

