#    Name: 6f76_2_GNP
#    Modification time : Fri May 22 19:30:01 2020

@<TRIPOS>MOLECULE
6f76_2_GNP
   32    34     1     0     1
SMALL
NO_CHARGES


@<TRIPOS>ATOM
      1 PG         31.9440   94.1460   10.4290 P.3       1 GNP202      0.0000 
      2 O1G        31.6070   92.8160    9.7070 O.co2     1 GNP202      0.0000 
      3 O2G        32.6150   93.8350   11.7930 O.co2     1 GNP202      0.0000 
      4 O3G        30.7790   95.0090   10.7260 O.co2     1 GNP202      0.0000 
      5 N3B        32.9000   95.1190    9.5240 N.3       1 GNP202      0.0000 
      6 PB         33.5590   96.4900   10.0870 P.3       1 GNP202      0.0000 
      7 O1B        32.6830   97.7470   10.0480 O.co2     1 GNP202      0.0000 
      8 O2B        34.1700   96.1990   11.3840 O.co2     1 GNP202      0.0000 
      9 O3A        34.7450   96.8750    9.0320 O.3       1 GNP202      0.0000 
     10 PA         36.3200   96.5130    9.1890 P.3       1 GNP202      0.0000 
     11 O1A        36.5580   95.0740    9.3870 O.co2     1 GNP202      0.0000 
     12 O2A        36.8650   97.4970   10.1770 O.co2     1 GNP202      0.0000 
     13 O5'        36.8710   96.9770    7.7960 O.3       1 GNP202      0.0000 
     14 C5'        36.3450   96.5960    6.5100 C.3       1 GNP202      0.0000 
     15 C4'        37.3460   96.7240    5.3670 C.3       1 GNP202      0.0000 
     16 O4'        37.4610   98.0990    5.0160 O.3       1 GNP202      0.0000 
     17 C3'        38.7400   96.2350    5.7270 C.3       1 GNP202      0.0000 
     18 O3'        39.3640   95.7330    4.5540 O.3       1 GNP202      0.0000 
     19 C2'        39.4480   97.4780    6.1380 C.3       1 GNP202      0.0000 
     20 O2'        40.8370   97.4760    5.9400 O.3       1 GNP202      0.0000 
     21 C1'        38.8260   98.4560    5.2230 C.3       1 GNP202      0.0000 
     22 N9         38.8320   99.7580    5.8320 N.pl3     1 GNP202      0.0000 
     23 C8         38.2490  100.2030    7.0590 C.2       1 GNP202      0.0000 
     24 N7         38.4180  101.5320    7.2090 N.2       1 GNP202      0.0000 
     25 C5         39.0630  101.9830    6.1430 C.2       1 GNP202      0.0000 
     26 C6         39.5170  103.3170    5.7940 C.2       1 GNP202      0.0000 
     27 O6         39.3300  104.2500    6.5640 O.2       1 GNP202      0.0000 
     28 N1         40.1160  103.4670    4.6400 N.am      1 GNP202      0.0000 
     29 C2         40.3670  102.3550    3.7700 C.2       1 GNP202      0.0000 
     30 N2         41.0280  102.5920    2.6380 N.pl3     1 GNP202      0.0000 
     31 N3         39.9590  101.1260    4.0390 N.2       1 GNP202      0.0000 
     32 C4         39.3330  100.9220    5.1970 C.2       1 GNP202      0.0000 
@<TRIPOS>BOND
     1   26   28 am   
     2   28   29 1    
     3   29   30 1    
     4   29   31 2    
     5   31   32 1    
     6    1    2 ar   
     7    1    3 ar   
     8    1    4 ar   
     9    1    5 1    
    10    5    6 1    
    11    6    7 ar   
    12    6    8 ar   
    13    6    9 1    
    14    9   10 1    
    15   10   11 ar   
    16   10   12 ar   
    17   10   13 1    
    18   13   14 1    
    19   14   15 1    
    20   15   16 1    
    21   15   17 1    
    22   16   21 1    
    23   17   18 1    
    24   17   19 1    
    25   19   20 1    
    26   19   21 1    
    27   21   22 1    
    28   22   23 1    
    29   22   32 1    
    30   23   24 2    
    31   24   25 1    
    32   25   26 1    
    33   25   32 2    
    34   26   27 2    
@<TRIPOS>SUBSTRUCTURE
     1 GNP202      1 GROUP   
@<TRIPOS>SET
ATOM$ORANGE STATIC     ATOMS   COLORGROUP SYSTEM 
20 14 14 15 15 17 17 19 19 21 21 23 23 25 25 26 26 29 \
29 32 32 

