#    Name: 6f76_4_GNP_CAVITY_N1_4
#    Modification time : Fri May 22 19:30:13 2020

@<TRIPOS>MOLECULE
6f76_4_GNP_CAVITY_N1_4
   86     0     6     0     0
SMALL
NO_CHARGES


@<TRIPOS>ATOM
      1 N          35.9400  124.5300    7.0700 N.am      1 ALA2        0.0000 
      2 N          36.1800  126.5200    7.7800 N.am      1 ALA2        0.0000 
      3 N          36.6100  125.1600    8.2600 N.am      1 ALA2        0.0000 
      4 N          36.8500  127.1500    8.9600 N.am      1 ALA2        0.0000 
      5 N          37.2700  125.7900    9.4400 N.am      1 ALA2        0.0000 
      6 N          38.5500  125.9100    8.6600 N.am      1 ALA2        0.0000 
      7 N          38.5500  130.1000    6.4300 N.am      1 ALA2        0.0000 
      8 O          41.5200  124.8000    7.5800 O.2       1 ALA2        0.0000 
      9 O          42.8000  124.9200    6.8000 O.2       1 ALA2        0.0000 
     10 N          37.5200  127.7800   10.1500 N.am      1 ALA2        0.0000 
     11 N          37.9400  126.4200   10.6300 N.am      1 ALA2        0.0000 
     12 N          39.6400  129.3800    8.1000 N.am      1 ALA2        0.0000 
     13 O          42.1900  125.4300    8.7700 O.2       1 ALA2        0.0000 
     14 N          38.1800  128.4100   11.3300 N.am      1 ALA2        0.0000 
     15 O          40.3100  130.0100    9.2900 O.2       1 ALA2        0.0000 
     16 N          36.3000  128.8000   14.0800 N.am      1 ALA2        0.0000 
     17 O          40.1300  129.1600   11.7400 O.2       1 ALA2        0.0000 
     18 O          40.5500  131.9900    9.9900 O.2       1 ALA2        0.0000 
     19 O          40.9800  130.6400   10.4700 O.2       1 ALA2        0.0000 
     20 OD1        38.0600  126.1300    5.0300 O.co2     2 ASP3        0.0000 
     21 OD1        37.8800  129.4700    5.2500 O.co2     2 ASP3        0.0000 
     22 OD1        38.3100  128.1100    5.7300 O.co2     2 ASP3        0.0000 
     23 OD1        38.7300  126.7600    6.2100 O.co2     2 ASP3        0.0000 
     24 OD1        39.1600  125.4000    6.7000 O.co2     2 ASP3        0.0000 
     25 OD1        38.9700  128.7400    6.9200 O.co2     2 ASP3        0.0000 
     26 OD1        39.4000  127.3900    7.4000 O.co2     2 ASP3        0.0000 
     27 OD1        39.7000  130.5200   11.2600 O.co2     2 ASP3        0.0000 
     28 OD1        39.5200  133.8600   11.4800 O.co2     2 ASP3        0.0000 
     29 NZ         39.2800  120.9200    3.3200 N.4       3 LYS4        0.0000 
     30 NZ         39.9500  121.5500    4.5100 N.4       3 LYS4        0.0000 
     31 NZ         42.5500  122.9300    6.1000 N.4       3 LYS4        0.0000 
     32 CZ         36.9700  122.6600    5.5900 C.ar      4 PHE5        0.0000 
     33 CZ         37.4000  121.3100    6.0700 C.ar      4 PHE5        0.0000 
     34 CZ         37.2100  124.6500    6.2900 C.ar      4 PHE5        0.0000 
     35 CZ         37.6400  123.2900    6.7700 C.ar      4 PHE5        0.0000 
     36 CZ         38.9100  123.4200    5.9900 C.ar      4 PHE5        0.0000 
     37 CZ         39.3400  122.0600    6.4800 C.ar      4 PHE5        0.0000 
     38 CZ         36.6100  129.3500    6.0300 C.ar      4 PHE5        0.0000 
     39 CZ         37.8800  125.2800    7.4800 C.ar      4 PHE5        0.0000 
     40 CZ         39.5800  124.0500    7.1800 C.ar      4 PHE5        0.0000 
     41 CZ         41.2800  122.8100    6.8800 C.ar      4 PHE5        0.0000 
     42 CZ         37.2700  129.9800    7.2100 C.ar      4 PHE5        0.0000 
     43 CZ         37.7000  128.6200    7.7000 C.ar      4 PHE5        0.0000 
     44 CZ         38.9700  124.5600    9.1500 C.ar      4 PHE5        0.0000 
     45 CZ         38.1200  131.4500    5.9500 C.ar      4 PHE5        0.0000 
     46 CZ         40.2500  124.6800    8.3600 C.ar      4 PHE5        0.0000 
     47 CZ         37.9400  130.6100    8.4000 C.ar      4 PHE5        0.0000 
     48 CZ         37.7600  129.7600   10.8500 C.ar      4 PHE5        0.0000 
     49 CZ         38.6100  131.2400    9.5900 C.ar      4 PHE5        0.0000 
     50 CZ         38.8500  133.2300   10.2900 C.ar      4 PHE5        0.0000 
     51 CZ         39.2800  131.8700   10.7700 C.ar      4 PHE5        0.0000 
     52 CZ         39.0900  135.2100   10.9900 C.ar      4 PHE5        0.0000 
     53 CA         38.0000  120.8000    4.1000 C.3       5 GLY6        0.0000 
     54 CA         38.6700  121.4300    5.2900 C.3       5 GLY6        0.0000 
     55 CA         39.1000  124.2600    3.5400 C.3       5 GLY6        0.0000 
     56 CA         39.5200  122.9100    4.0300 C.3       5 GLY6        0.0000 
     57 CA         39.7600  124.8900    4.7300 C.3       5 GLY6        0.0000 
     58 CA         40.1900  123.5400    5.2100 C.3       5 GLY6        0.0000 
     59 CA         40.6100  122.1800    5.6900 C.3       5 GLY6        0.0000 
     60 CA         41.4600  123.6600    4.4300 C.3       5 GLY6        0.0000 
     61 CA         40.4300  125.5200    5.9100 C.3       5 GLY6        0.0000 
     62 CA         40.8600  124.1700    6.4000 C.3       5 GLY6        0.0000 
     63 CA         42.1300  124.2900    5.6200 C.3       5 GLY6        0.0000 
     64 CA         36.4200  128.5000    8.4800 C.3       5 GLY6        0.0000 
     65 CA         41.1000  126.1500    7.1000 C.3       5 GLY6        0.0000 
     66 CA         41.9500  123.4400    8.0700 C.3       5 GLY6        0.0000 
     67 CA         37.0900  129.1300    9.6600 C.3       5 GLY6        0.0000 
     68 CA         39.2200  126.5400    9.8500 C.3       5 GLY6        0.0000 
     69 CA         40.0700  128.0200    8.5800 C.3       5 GLY6        0.0000 
     70 CA         40.4900  126.6600    9.0700 C.3       5 GLY6        0.0000 
     71 CA         41.7600  126.7900    8.2900 C.3       5 GLY6        0.0000 
     72 CA         38.6100  127.0500   11.8200 C.3       5 GLY6        0.0000 
     73 CA         39.4600  128.5300   10.5500 C.3       5 GLY6        0.0000 
     74 CA         37.5800  128.9200   13.3000 C.3       5 GLY6        0.0000 
     75 CA         38.8500  129.0400   12.5200 C.3       5 GLY6        0.0000 
     76 DU         37.8200  124.1400    4.3200 H         6 CUB7        0.0000 
     77 DU         38.2500  122.7800    4.8100 H         6 CUB7        0.0000 
     78 DU         36.7900  126.0000    5.8100 H         6 CUB7        0.0000 
     79 DU         38.4900  124.7700    5.5100 H         6 CUB7        0.0000 
     80 DU         37.0300  127.9900    6.5100 H         6 CUB7        0.0000 
     81 DU         37.4600  126.6400    6.9900 H         6 CUB7        0.0000 
     82 DU         38.1200  127.2700    8.1800 H         6 CUB7        0.0000 
     83 DU         39.8200  126.0300    7.8800 H         6 CUB7        0.0000 
     84 DU         38.3700  129.2500    8.8800 H         6 CUB7        0.0000 
     85 DU         38.7900  127.9000    9.3700 H         6 CUB7        0.0000 
     86 DU         39.0300  129.8900   10.0700 H         6 CUB7        0.0000 
@<TRIPOS>BOND
@<TRIPOS>SUBSTRUCTURE
     1 ALA2        1 GROUP   
     2 ASP3       20 GROUP   
     3 LYS4       29 GROUP   
     4 PHE5       32 GROUP   
     5 GLY6       53 GROUP   
     6 CUB7       76 GROUP   
@<TRIPOS>SET

