#    Name: 6f76_5_GNP
#    Modification time : Fri May 22 19:30:16 2020

@<TRIPOS>MOLECULE
6f76_5_GNP
   32    34     1     0     1
SMALL
NO_CHARGES


@<TRIPOS>ATOM
      1 PG         36.4650   98.6200   58.4080 P.3       1 GNP202      0.0000 
      2 O1G        36.0080   99.0990   56.9730 O.co2     1 GNP202      0.0000 
      3 O2G        36.6750   97.1830   58.2820 O.co2     1 GNP202      0.0000 
      4 O3G        35.2280   98.9750   59.3180 O.co2     1 GNP202      0.0000 
      5 N3B        37.8090   99.4470   58.8740 N.3       1 GNP202      0.0000 
      6 PB         39.2640   99.4960   58.0410 P.3       1 GNP202      0.0000 
      7 O1B        38.9790   99.9130   56.7200 O.co2     1 GNP202      0.0000 
      8 O2B        39.9990   98.1040   58.0810 O.co2     1 GNP202      0.0000 
      9 O3A        40.2620  100.5480   58.7330 O.3       1 GNP202      0.0000 
     10 PA         40.2520  102.1320   58.3760 P.3       1 GNP202      0.0000 
     11 O1A        40.9820  102.3220   57.0610 O.co2     1 GNP202      0.0000 
     12 O2A        38.8360  102.6530   58.6010 O.co2     1 GNP202      0.0000 
     13 O5'        41.2000  102.7930   59.5010 O.3       1 GNP202      0.0000 
     14 C5'        40.7820  102.6350   60.8370 C.3       1 GNP202      0.0000 
     15 C4'        41.4030  103.6960   61.7120 C.3       1 GNP202      0.0000 
     16 O4'        42.8170  103.4920   61.8460 O.3       1 GNP202      0.0000 
     17 C3'        41.2590  105.0550   61.1040 C.3       1 GNP202      0.0000 
     18 O3'        41.0900  105.8760   62.2410 O.3       1 GNP202      0.0000 
     19 C2'        42.6060  105.3410   60.4670 C.3       1 GNP202      0.0000 
     20 O2'        42.9350  106.7130   60.3980 O.3       1 GNP202      0.0000 
     21 C1'        43.5710  104.6170   61.3790 C.3       1 GNP202      0.0000 
     22 N9         44.7020  104.0800   60.6390 N.pl3     1 GNP202      0.0000 
     23 C8         44.6250  103.2240   59.4820 C.2       1 GNP202      0.0000 
     24 N7         45.8710  102.9080   59.0840 N.2       1 GNP202      0.0000 
     25 C5         46.7610  103.4680   59.8750 C.2       1 GNP202      0.0000 
     26 C6         48.2590  103.4250   59.8520 C.2       1 GNP202      0.0000 
     27 O6         48.8200  102.7450   58.9960 O.2       1 GNP202      0.0000 
     28 N1         48.9070  104.1040   60.7960 N.am      1 GNP202      0.0000 
     29 C2         48.1450  104.8110   61.8040 C.2       1 GNP202      0.0000 
     30 N2         48.8090  105.4790   62.7480 N.pl3     1 GNP202      0.0000 
     31 N3         46.7820  104.8750   61.8550 N.2       1 GNP202      0.0000 
     32 C4         46.0830  104.2230   60.9150 C.2       1 GNP202      0.0000 
@<TRIPOS>BOND
     1    1    2 ar   
     2    1    3 ar   
     3    1    4 ar   
     4    1    5 1    
     5    5    6 1    
     6    6    7 ar   
     7    6    8 ar   
     8    6    9 1    
     9    9   10 1    
    10   10   11 ar   
    11   10   12 ar   
    12   10   13 1    
    13   13   14 1    
    14   14   15 1    
    15   15   16 1    
    16   15   17 1    
    17   16   21 1    
    18   17   18 1    
    19   17   19 1    
    20   19   20 1    
    21   19   21 1    
    22   21   22 1    
    23   22   23 1    
    24   22   32 1    
    25   23   24 2    
    26   24   25 1    
    27   25   26 1    
    28   25   32 2    
    29   26   27 2    
    30   26   28 am   
    31   28   29 1    
    32   29   30 1    
    33   29   31 2    
    34   31   32 1    
@<TRIPOS>SUBSTRUCTURE
     1 GNP202      1 GROUP   
@<TRIPOS>SET
ATOM$ORANGE STATIC     ATOMS   COLORGROUP SYSTEM 
20 14 14 15 15 17 17 19 19 21 21 23 23 25 25 26 26 29 \
29 32 32 

