#    Name: 6f76_3_GNP_CAVITY_N1_4
#    Modification time : Fri May 22 19:30:08 2020

@<TRIPOS>MOLECULE
6f76_3_GNP_CAVITY_N1_4
   82     0     6     0     0
SMALL
NO_CHARGES


@<TRIPOS>ATOM
      1 O          69.9700   91.9800   48.9000 O.2       1 ALA2        0.0000 
      2 N          68.9400   93.8500   50.3800 N.am      1 ALA2        0.0000 
      3 N          70.6400   92.6100   50.0800 N.am      1 ALA2        0.0000 
      4 N          68.3300   94.3600   52.3500 N.am      1 ALA2        0.0000 
      5 N          68.7600   93.0000   52.8300 N.am      1 ALA2        0.0000 
      6 N          69.6100   94.4800   51.5700 N.am      1 ALA2        0.0000 
      7 N          70.0300   93.1200   52.0500 N.am      1 ALA2        0.0000 
      8 O          70.4600   95.9600   50.3000 O.2       1 ALA2        0.0000 
      9 N          66.8700   93.3900   55.5800 N.am      1 ALA2        0.0000 
     10 N          67.7200   94.8700   54.3200 N.am      1 ALA2        0.0000 
     11 N          68.1500   93.5100   54.8000 N.am      1 ALA2        0.0000 
     12 N          68.5700   92.1600   55.2800 N.am      1 ALA2        0.0000 
     13 N          69.4200   93.6300   54.0200 N.am      1 ALA2        0.0000 
     14 O          72.8200   95.3500   51.1900 O.2       1 ALA2        0.0000 
     15 N          67.5400   94.0200   56.7700 N.am      1 ALA2        0.0000 
     16 O          68.8200   98.3300   53.7600 O.2       1 ALA2        0.0000 
     17 N          71.3700   94.3900   54.4200 N.am      1 ALA2        0.0000 
     18 N          72.2200   95.8600   53.1600 N.am      1 ALA2        0.0000 
     19 OD1        69.6700   95.6200   54.7200 O.co2     2 ASP3        0.0000 
     20 OD1        70.0900   94.2700   55.2000 O.co2     2 ASP3        0.0000 
     21 OD1        70.9400   95.7400   53.9400 O.co2     2 ASP3        0.0000 
     22 OD1        63.5400   97.0000   59.3300 O.co2     2 ASP3        0.0000 
     23 OD1        69.0600   96.1300   56.6900 O.co2     2 ASP3        0.0000 
     24 OD1        69.4800   94.7800   57.1700 O.co2     2 ASP3        0.0000 
     25 OD1        70.7600   94.9000   56.3900 O.co2     2 ASP3        0.0000 
     26 OD1        72.0300   95.0200   55.6100 O.co2     2 ASP3        0.0000 
     27 NZ         64.5700   95.1400   57.8500 N.4       3 LYS4        0.0000 
     28 NZ         64.3900   98.4800   58.0700 N.4       3 LYS4        0.0000 
     29 NZ         65.6600   98.6000   57.2900 N.4       3 LYS4        0.0000 
     30 NZ         66.5100  100.0800   56.0200 N.4       3 LYS4        0.0000 
     31 NZ         66.9300   98.7200   56.5100 N.4       3 LYS4        0.0000 
     32 NZ         66.3300   99.2300   58.4700 N.4       3 LYS4        0.0000 
     33 CZ         71.3100   93.2500   51.2700 C.ar      4 PHE5        0.0000 
     34 CZ         65.1700   94.6300   55.8800 C.ar      4 PHE5        0.0000 
     35 CZ         66.4500   94.7500   55.1000 C.ar      4 PHE5        0.0000 
     36 CZ         67.3000   96.2200   53.8300 C.ar      4 PHE5        0.0000 
     37 CZ         70.7000   93.7600   53.2400 C.ar      4 PHE5        0.0000 
     38 CZ         71.9700   93.8800   52.4600 C.ar      4 PHE5        0.0000 
     39 CZ         73.2500   94.0000   51.6700 C.ar      4 PHE5        0.0000 
     40 CZ         64.9900   97.9700   56.1000 C.ar      4 PHE5        0.0000 
     41 CZ         65.4200   96.6100   56.5800 C.ar      4 PHE5        0.0000 
     42 CZ         65.8400   95.2600   57.0700 C.ar      4 PHE5        0.0000 
     43 CZ         66.2700   98.0900   55.3200 C.ar      4 PHE5        0.0000 
     44 CZ         66.6900   96.7300   55.8000 C.ar      4 PHE5        0.0000 
     45 CZ         67.1200   95.3800   56.2800 C.ar      4 PHE5        0.0000 
     46 CZ         67.5400   98.2100   54.5400 C.ar      4 PHE5        0.0000 
     47 CZ         67.9700   96.8600   55.0200 C.ar      4 PHE5        0.0000 
     48 CZ         72.4600   93.6600   56.0900 C.ar      4 PHE5        0.0000 
     49 CA         68.2700   93.2200   49.2000 C.3       5 GLY6        0.0000 
     50 CA         69.5500   93.3400   48.4200 C.3       5 GLY6        0.0000 
     51 CA         68.5100   95.2000   49.9000 C.3       5 GLY6        0.0000 
     52 CA         70.2100   93.9700   49.6000 C.3       5 GLY6        0.0000 
     53 CA         67.9100   95.7100   51.8700 C.3       5 GLY6        0.0000 
     54 CA         69.1800   95.8300   51.0900 C.3       5 GLY6        0.0000 
     55 CA         68.5700   96.3400   53.0500 C.3       5 GLY6        0.0000 
     56 CA         69.8500   92.2800   54.5000 C.3       5 GLY6        0.0000 
     57 CA         69.8500   96.4700   52.2700 C.3       5 GLY6        0.0000 
     58 CA         71.5500   95.2300   51.9700 C.3       5 GLY6        0.0000 
     59 CA         64.1400   96.4900   57.3600 C.3       5 GLY6        0.0000 
     60 CA         65.8400   99.4400   54.8400 C.3       5 GLY6        0.0000 
     61 CA         67.1200   99.5700   54.0600 C.3       5 GLY6        0.0000 
     62 CA         69.2400   96.9800   54.2400 C.3       5 GLY6        0.0000 
     63 CA         70.5200   97.1000   53.4600 C.3       5 GLY6        0.0000 
     64 CA         72.6400   94.5100   53.6400 C.3       5 GLY6        0.0000 
     65 CA         64.8100   97.1200   58.5500 C.3       5 GLY6        0.0000 
     66 CA         67.7800  100.2000   55.2400 C.3       5 GLY6        0.0000 
     67 CA         68.2100   98.8400   55.7200 C.3       5 GLY6        0.0000 
     68 CA         68.6300   97.4900   56.2100 C.3       5 GLY6        0.0000 
     69 CA         69.4800   98.9600   54.9400 C.3       5 GLY6        0.0000 
     70 CA         66.7500   97.8800   58.9600 C.3       5 GLY6        0.0000 
     71 CA         67.6000   99.3500   57.6900 C.3       5 GLY6        0.0000 
     72 CA         68.0300   98.0000   58.1700 C.3       5 GLY6        0.0000 
     73 CA         68.4500   96.6400   58.6600 C.3       5 GLY6        0.0000 
     74 DU         70.8800   94.6000   50.7900 H         6 CUB7        0.0000 
     75 DU         69.0000   94.9900   53.5400 H         6 CUB7        0.0000 
     76 DU         70.2700   95.1100   52.7500 H         6 CUB7        0.0000 
     77 DU         68.3900   95.5000   55.5000 H         6 CUB7        0.0000 
     78 DU         68.8200   94.1400   55.9900 H         6 CUB7        0.0000 
     79 DU         66.0800   97.2400   57.7700 H         6 CUB7        0.0000 
     80 DU         66.5100   95.8900   58.2500 H         6 CUB7        0.0000 
     81 DU         67.3600   97.3700   56.9900 H         6 CUB7        0.0000 
     82 DU         67.7800   96.0100   57.4700 H         6 CUB7        0.0000 
@<TRIPOS>BOND
@<TRIPOS>SUBSTRUCTURE
     1 ALA2        1 GROUP   
     2 ASP3       19 GROUP   
     3 LYS4       27 GROUP   
     4 PHE5       33 GROUP   
     5 GLY6       49 GROUP   
     6 CUB7       74 GROUP   
@<TRIPOS>SET

