#    Name: 6f76_3_GNP
#    Modification time : Fri May 22 19:30:06 2020

@<TRIPOS>MOLECULE
6f76_3_GNP
   32    34     1     0     1
SMALL
NO_CHARGES


@<TRIPOS>ATOM
      1 PG         76.4570   94.1330   49.0140 P.3       1 GNP202      0.0000 
      2 O1G        75.8590   93.9480   47.5860 O.co2     1 GNP202      0.0000 
      3 O2G        77.5390   95.1110   48.9600 O.co2     1 GNP202      0.0000 
      4 O3G        76.8350   92.6850   49.4190 O.co2     1 GNP202      0.0000 
      5 N3B        75.2730   94.5350   50.1020 N.3       1 GNP202      0.0000 
      6 PB         74.2520   95.8120   49.9530 P.3       1 GNP202      0.0000 
      7 O1B        73.7590   95.7460   48.5840 O.co2     1 GNP202      0.0000 
      8 O2B        75.0290   97.1570   50.2460 O.co2     1 GNP202      0.0000 
      9 O3A        73.0430   95.6860   50.9880 O.3       1 GNP202      0.0000 
     10 PA         71.6100   95.0810   50.6150 P.3       1 GNP202      0.0000 
     11 O1A        70.9820   96.1180   49.7430 O.co2     1 GNP202      0.0000 
     12 O2A        71.6230   93.6020   50.2160 O.co2     1 GNP202      0.0000 
     13 O5'        70.8910   95.2240   52.0340 O.3       1 GNP202      0.0000 
     14 C5'        71.4830   94.6040   53.1710 C.3       1 GNP202      0.0000 
     15 C4'        70.4340   94.2030   54.1890 C.3       1 GNP202      0.0000 
     16 O4'        70.0930   95.4030   54.8270 O.3       1 GNP202      0.0000 
     17 C3'        69.1490   93.6430   53.5800 C.3       1 GNP202      0.0000 
     18 O3'        68.6270   92.6090   54.3870 O.3       1 GNP202      0.0000 
     19 C2'        68.1620   94.7720   53.5940 C.3       1 GNP202      0.0000 
     20 O2'        66.8140   94.3590   53.8120 O.3       1 GNP202      0.0000 
     21 C1'        68.6800   95.5910   54.7370 C.3       1 GNP202      0.0000 
     22 N9         68.4950   97.0000   54.4580 N.pl3     1 GNP202      0.0000 
     23 C8         69.0200   97.7630   53.3560 C.2       1 GNP202      0.0000 
     24 N7         68.6060   99.0250   53.4910 N.2       1 GNP202      0.0000 
     25 C5         67.8610   99.1660   54.5820 C.2       1 GNP202      0.0000 
     26 C6         67.1450  100.3080   55.1950 C.2       1 GNP202      0.0000 
     27 O6         67.2290  101.4250   54.7020 O.2       1 GNP202      0.0000 
     28 N1         66.5070  100.0730   56.3300 N.am      1 GNP202      0.0000 
     29 C2         66.4830   98.7570   56.9030 C.2       1 GNP202      0.0000 
     30 N2         65.8080   98.4710   58.0270 N.pl3     1 GNP202      0.0000 
     31 N3         67.0760   97.7280   56.3390 N.2       1 GNP202      0.0000 
     32 C4         67.7620   97.8960   55.2490 C.2       1 GNP202      0.0000 
@<TRIPOS>BOND
     1    1    2 ar   
     2    1    3 ar   
     3    1    4 ar   
     4    1    5 1    
     5    5    6 1    
     6    6    7 ar   
     7    6    8 ar   
     8    6    9 1    
     9    9   10 1    
    10   10   11 ar   
    11   10   12 ar   
    12   10   13 1    
    13   13   14 1    
    14   14   15 1    
    15   15   16 1    
    16   15   17 1    
    17   16   21 1    
    18   17   18 1    
    19   17   19 1    
    20   19   20 1    
    21   19   21 1    
    22   21   22 1    
    23   22   23 1    
    24   22   32 1    
    25   23   24 2    
    26   24   25 1    
    27   25   26 1    
    28   25   32 2    
    29   26   27 2    
    30   26   28 am   
    31   28   29 1    
    32   29   30 1    
    33   29   31 2    
    34   31   32 1    
@<TRIPOS>SUBSTRUCTURE
     1 GNP202      1 GROUP   
@<TRIPOS>SET
ATOM$ORANGE STATIC     ATOMS   COLORGROUP SYSTEM 
20 14 14 15 15 17 17 19 19 21 21 23 23 25 25 26 26 29 \
29 32 32 

