#    Name: 6f76_6_GNP
#    Modification time : Fri May 22 19:30:22 2020

@<TRIPOS>MOLECULE
6f76_6_GNP
   32    34     1     0     1
SMALL
NO_CHARGES


@<TRIPOS>ATOM
      1 PG         61.2480  131.4650   56.1220 P.3       1 GNP202      0.0000 
      2 O1G        61.3500  131.4200   54.5330 O.co2     1 GNP202      0.0000 
      3 O2G        59.9550  132.0530   56.5020 O.co2     1 GNP202      0.0000 
      4 O3G        62.4460  132.2960   56.6010 O.co2     1 GNP202      0.0000 
      5 N3B        61.5110  129.9240   56.6130 N.3       1 GNP202      0.0000 
      6 PB         60.7620  128.5840   56.0060 P.3       1 GNP202      0.0000 
      7 O1B        60.8060  128.6150   54.5490 O.co2     1 GNP202      0.0000 
      8 O2B        59.2550  128.4180   56.5490 O.co2     1 GNP202      0.0000 
      9 O3A        61.6530  127.3800   56.4980 O.3       1 GNP202      0.0000 
     10 PA         62.6310  126.5530   55.5410 P.3       1 GNP202      0.0000 
     11 O1A        61.7960  126.0180   54.4520 O.co2     1 GNP202      0.0000 
     12 O2A        63.8340  127.4010   55.2040 O.co2     1 GNP202      0.0000 
     13 O5'        63.1540  125.3760   56.5000 O.3       1 GNP202      0.0000 
     14 C5'        63.6730  125.8380   57.7410 C.3       1 GNP202      0.0000 
     15 C4'        64.6620  124.8640   58.3680 C.3       1 GNP202      0.0000 
     16 O4'        64.0370  123.6980   58.9200 O.3       1 GNP202      0.0000 
     17 C3'        65.6560  124.3460   57.3560 C.3       1 GNP202      0.0000 
     18 O3'        66.8330  124.1250   58.1000 O.3       1 GNP202      0.0000 
     19 C2'        65.0840  123.0280   56.9380 C.3       1 GNP202      0.0000 
     20 O2'        66.0550  122.0860   56.5730 O.3       1 GNP202      0.0000 
     21 C1'        64.4340  122.5480   58.2060 C.3       1 GNP202      0.0000 
     22 N9         63.2230  121.8070   57.9330 N.pl3     1 GNP202      0.0000 
     23 C8         62.0720  122.1860   57.1120 C.2       1 GNP202      0.0000 
     24 N7         61.1580  121.1590   57.1150 N.2       1 GNP202      0.0000 
     25 C5         61.6600  120.1840   57.8570 C.2       1 GNP202      0.0000 
     26 C6         61.0920  118.8810   58.2570 C.2       1 GNP202      0.0000 
     27 O6         59.9670  118.6470   57.8190 O.2       1 GNP202      0.0000 
     28 N1         61.8140  118.0920   59.0590 N.am      1 GNP202      0.0000 
     29 C2         63.1070  118.4860   59.5220 C.2       1 GNP202      0.0000 
     30 N2         63.8070  117.6400   60.3390 N.pl3     1 GNP202      0.0000 
     31 N3         63.6330  119.6820   59.2170 N.2       1 GNP202      0.0000 
     32 C4         62.9700  120.5070   58.4210 C.2       1 GNP202      0.0000 
@<TRIPOS>BOND
     1    1    2 ar   
     2    1    3 ar   
     3    1    4 ar   
     4    1    5 1    
     5    5    6 1    
     6    6    7 ar   
     7    6    8 ar   
     8    6    9 1    
     9    9   10 1    
    10   10   11 ar   
    11   10   12 ar   
    12   10   13 1    
    13   13   14 1    
    14   14   15 1    
    15   15   16 1    
    16   15   17 1    
    17   16   21 1    
    18   17   18 1    
    19   17   19 1    
    20   19   20 1    
    21   19   21 1    
    22   21   22 1    
    23   22   23 1    
    24   22   32 1    
    25   23   24 2    
    26   24   25 1    
    27   25   26 1    
    28   25   32 2    
    29   26   27 2    
    30   26   28 am   
    31   28   29 1    
    32   29   30 1    
    33   29   31 2    
    34   31   32 1    
@<TRIPOS>SUBSTRUCTURE
     1 GNP202      1 GROUP   
@<TRIPOS>SET
ATOM$ORANGE STATIC     ATOMS   COLORGROUP SYSTEM 
20 14 14 15 15 17 17 19 19 21 21 23 23 25 25 26 26 29 \
29 32 32 

