#    Name: 6nkm_3_NAP
#    Modification time : Fri May 22 19:27:55 2020

@<TRIPOS>MOLECULE
6nkm_3_NAP
   48    52     1     0     1
SMALL
NO_CHARGES


@<TRIPOS>ATOM
      1 PA         42.4100   52.1370   25.8800 P.3       1 NAP801      0.0000 
      2 O1A        42.2620   52.3010   24.3720 O.co2     1 NAP801      0.0000 
      3 O2A        43.8430   52.1170   26.2540 O.co2     1 NAP801      0.0000 
      4 O5B        41.6330   53.4080   26.6770 O.3       1 NAP801      0.0000 
      5 C5B        42.1580   53.8450   27.9140 C.3       1 NAP801      0.0000 
      6 C4B        42.0050   55.4030   27.9830 C.3       1 NAP801      0.0000 
      7 O4B        42.4160   55.8490   29.1540 O.3       1 NAP801      0.0000 
      8 C3B        42.9080   56.0130   26.9250 C.3       1 NAP801      0.0000 
      9 O3B        42.2620   57.0500   26.3100 O.3       1 NAP801      0.0000 
     10 C2B        44.1410   56.4900   27.7420 C.3       1 NAP801      0.0000 
     11 O2B        44.8020   57.6420   27.0340 O.3       1 NAP801      0.0000 
     12 C1B        43.6530   56.8540   28.8930 C.3       1 NAP801      0.0000 
     13 N9A        44.6490   56.7850   29.9470 N.pl3     1 NAP801      0.0000 
     14 C8A        45.5190   55.8290   30.2740 C.2       1 NAP801      0.0000 
     15 N7A        46.2540   56.2500   31.3260 N.2       1 NAP801      0.0000 
     16 C5A        45.8500   57.4550   31.6440 C.ar      1 NAP801      0.0000 
     17 C6A        46.2480   58.3400   32.6280 C.ar      1 NAP801      0.0000 
     18 N6A        47.2610   58.2740   33.6690 N.pl3     1 NAP801      0.0000 
     19 N1A        45.6550   59.5250   32.7230 N.ar      1 NAP801      0.0000 
     20 C2A        44.6560   59.8650   31.8660 C.ar      1 NAP801      0.0000 
     21 N3A        44.2600   58.9930   30.9000 N.ar      1 NAP801      0.0000 
     22 C4A        44.8490   57.7940   30.7860 C.ar      1 NAP801      0.0000 
     23 O3         41.7370   50.7110   26.3850 O.3       1 NAP801      0.0000 
     24 PN         40.1600   50.1560   26.1540 P.3       1 NAP801      0.0000 
     25 O1N        40.1970   48.8000   25.4630 O.co2     1 NAP801      0.0000 
     26 O2N        39.3690   51.1420   25.3350 O.co2     1 NAP801      0.0000 
     27 O5D        39.4720   50.0110   27.6690 O.3       1 NAP801      0.0000 
     28 C5D        38.8320   51.1810   28.1930 C.3       1 NAP801      0.0000 
     29 C4D        38.0420   50.8140   29.4940 C.3       1 NAP801      0.0000 
     30 O4D        37.3370   49.7430   29.2740 O.3       1 NAP801      0.0000 
     31 C3D        39.0310   50.4510   30.6300 C.3       1 NAP801      0.0000 
     32 O3D        38.5640   50.8750   31.8020 O.3       1 NAP801      0.0000 
     33 C2D        39.0100   48.9140   30.6150 C.3       1 NAP801      0.0000 
     34 O2D        39.5700   48.4900   31.9540 O.3       1 NAP801      0.0000 
     35 C1D        37.7330   48.6600   30.4120 C.3       1 NAP801      0.0000 
     36 N1N        37.4830   47.3470   29.8790 N.pl3     1 NAP801      0.0000 
     37 C2N        38.0080   46.9670   28.6860 C.ar      1 NAP801      0.0000 
     38 C3N        37.7770   45.6930   28.2000 C.ar      1 NAP801      0.0000 
     39 C7N        38.3920   45.2090   26.8120 C.2       1 NAP801      0.0000 
     40 O7N        38.2770   44.0850   26.4680 O.2       1 NAP801      0.0000 
     41 N7N        39.1000   46.1550   25.9500 N.am      1 NAP801      0.0000 
     42 C4N        37.0070   44.8320   28.9100 C.ar      1 NAP801      0.0000 
     43 C5N        36.4620   45.2210   30.0800 C.ar      1 NAP801      0.0000 
     44 C6N        36.7120   46.4860   30.5720 C.ar      1 NAP801      0.0000 
     45 P2B        46.4370   57.7260   26.9820 P.3       1 NAP801      0.0000 
     46 O1X        47.0730   56.4620   26.4110 O.co2     1 NAP801      0.0000 
     47 O2X        46.8160   58.9300   26.1230 O.co2     1 NAP801      0.0000 
     48 O3X        46.8890   57.9060   28.3820 O.co2     1 NAP801      0.0000 
@<TRIPOS>BOND
     1    1    2 ar   
     2    1    3 ar   
     3    1    4 1    
     4    1   23 1    
     5    4    5 1    
     6    5    6 1    
     7    6    7 1    
     8    6    8 1    
     9    7   12 1    
    10    8    9 1    
    11    8   10 1    
    12   10   11 1    
    13   10   12 1    
    14   11   45 1    
    15   12   13 1    
    16   13   14 1    
    17   13   22 1    
    18   14   15 2    
    19   15   16 1    
    20   16   17 ar   
    21   16   22 ar   
    22   17   18 1    
    23   17   19 ar   
    24   19   20 ar   
    25   20   21 ar   
    26   21   22 ar   
    27   23   24 1    
    28   24   25 ar   
    29   24   26 ar   
    30   24   27 1    
    31   27   28 1    
    32   28   29 1    
    33   29   30 1    
    34   29   31 1    
    35   30   35 1    
    36   31   32 1    
    37   31   33 1    
    38   33   34 1    
    39   33   35 1    
    40   35   36 1    
    41   36   37 ar   
    42   36   44 ar   
    43   37   38 ar   
    44   38   39 1    
    45   38   42 ar   
    46   39   40 2    
    47   39   41 am   
    48   42   43 ar   
    49   43   44 ar   
    50   45   46 ar   
    51   45   47 ar   
    52   45   48 ar   
@<TRIPOS>SUBSTRUCTURE
     1 NAP801      1 GROUP   
@<TRIPOS>SET
ATOM$ORANGE STATIC     ATOMS   COLORGROUP SYSTEM 
42 5 5 6 6 8 8 10 10 12 12 14 14 16 16 17 17 20 \
20 22 22 28 28 29 29 31 31 33 33 35 35 37 37 38 38 39 \
39 42 42 43 43 44 44 

