#    Name: 6nkm_1_NAP
#    Modification time : Fri May 22 19:27:43 2020

@<TRIPOS>MOLECULE
6nkm_1_NAP
   48    52     1     0     1
SMALL
NO_CHARGES


@<TRIPOS>ATOM
      1 PA          0.2820   47.7320   27.9590 P.3       1 NAP801      0.0000 
      2 O1A         0.1440   49.1460   27.4130 O.co2     1 NAP801      0.0000 
      3 O2A        -1.0080   47.1550   28.3800 O.co2     1 NAP801      0.0000 
      4 O5B         0.9980   46.8070   26.7660 O.3       1 NAP801      0.0000 
      5 C5B         0.6600   45.4590   26.7380 C.3       1 NAP801      0.0000 
      6 C4B         0.6510   45.0460   25.2490 C.3       1 NAP801      0.0000 
      7 O4B         0.4670   43.7580   25.2190 O.3       1 NAP801      0.0000 
      8 C3B        -0.5720   45.6870   24.5980 C.3       1 NAP801      0.0000 
      9 O3B        -0.1980   46.1960   23.3860 O.3       1 NAP801      0.0000 
     10 C2B        -1.5750   44.5160   24.4370 C.3       1 NAP801      0.0000 
     11 O2B        -2.3780   44.7730   23.1920 O.3       1 NAP801      0.0000 
     12 C1B        -0.8370   43.4460   24.3360 C.3       1 NAP801      0.0000 
     13 N9A        -1.5570   42.3210   24.8800 N.pl3     1 NAP801      0.0000 
     14 C8A        -2.0810   42.1210   26.0910 C.2       1 NAP801      0.0000 
     15 N7A        -2.6910   40.9020   26.0760 N.2       1 NAP801      0.0000 
     16 C5A        -2.5500   40.3800   24.8800 C.ar      1 NAP801      0.0000 
     17 C6A        -2.9770   39.1910   24.3300 C.ar      1 NAP801      0.0000 
     18 N6A        -3.7260   38.0770   24.8660 N.pl3     1 NAP801      0.0000 
     19 N1A        -2.6840   38.8920   23.0710 N.ar      1 NAP801      0.0000 
     20 C2A        -1.9770   39.7820   22.3230 C.ar      1 NAP801      0.0000 
     21 N3A        -1.5540   40.9540   22.8660 N.ar      1 NAP801      0.0000 
     22 C4A        -1.8370   41.2520   24.1360 C.ar      1 NAP801      0.0000 
     23 O3          1.1920   47.7380   29.3340 O.3       1 NAP801      0.0000 
     24 PN          2.7410   48.3570   29.4860 P.3       1 NAP801      0.0000 
     25 O1N         2.7010   49.3950   30.5880 O.co2     1 NAP801      0.0000 
     26 O2N         3.2200   48.9450   28.1990 O.co2     1 NAP801      0.0000 
     27 O5D         3.7670   47.0840   29.8920 O.3       1 NAP801      0.0000 
     28 C5D         4.3740   46.3330   28.8340 C.3       1 NAP801      0.0000 
     29 C4D         5.4240   45.3420   29.4300 C.3       1 NAP801      0.0000 
     30 O4D         6.2320   45.9780   30.2420 O.3       1 NAP801      0.0000 
     31 C3D         4.6320   44.3220   30.2890 C.3       1 NAP801      0.0000 
     32 O3D         5.2350   43.1360   30.2300 O.3       1 NAP801      0.0000 
     33 C2D         4.7490   44.9350   31.6970 C.3       1 NAP801      0.0000 
     34 O2D         4.4170   43.9300   32.7740 O.3       1 NAP801      0.0000 
     35 C1D         5.9980   45.2880   31.6950 C.3       1 NAP801      0.0000 
     36 N1N         6.2890   46.2630   32.6840 N.pl3     1 NAP801      0.0000 
     37 C2N         5.6130   47.4320   32.7120 C.ar      1 NAP801      0.0000 
     38 C3N         5.9170   48.3610   33.6740 C.ar      1 NAP801      0.0000 
     39 C7N         5.1350   49.7380   33.7360 C.2       1 NAP801      0.0000 
     40 O7N         5.3420   50.4820   34.6240 O.2       1 NAP801      0.0000 
     41 N7N         4.1680   50.0650   32.6810 N.am      1 NAP801      0.0000 
     42 C4N         6.8920   48.1080   34.5770 C.ar      1 NAP801      0.0000 
     43 C5N         7.5700   46.9420   34.5330 C.ar      1 NAP801      0.0000 
     44 C6N         7.2680   46.0070   33.5690 C.ar      1 NAP801      0.0000 
     45 P2B        -4.0000   44.5700   23.2420 P.3       1 NAP801      0.0000 
     46 O1X        -4.5800   45.3930   24.3720 O.co2     1 NAP801      0.0000 
     47 O2X        -4.5460   45.0210   21.8910 O.co2     1 NAP801      0.0000 
     48 O3X        -4.3050   43.1360   23.4880 O.co2     1 NAP801      0.0000 
@<TRIPOS>BOND
     1    1    2 ar   
     2    1    3 ar   
     3    1    4 1    
     4    1   23 1    
     5    4    5 1    
     6    5    6 1    
     7    6    7 1    
     8    6    8 1    
     9    7   12 1    
    10    8    9 1    
    11    8   10 1    
    12   10   11 1    
    13   10   12 1    
    14   11   45 1    
    15   12   13 1    
    16   13   14 1    
    17   13   22 1    
    18   14   15 2    
    19   15   16 1    
    20   16   17 ar   
    21   16   22 ar   
    22   17   18 1    
    23   17   19 ar   
    24   19   20 ar   
    25   20   21 ar   
    26   21   22 ar   
    27   23   24 1    
    28   24   25 ar   
    29   24   26 ar   
    30   24   27 1    
    31   27   28 1    
    32   28   29 1    
    33   29   30 1    
    34   29   31 1    
    35   30   35 1    
    36   31   32 1    
    37   31   33 1    
    38   33   34 1    
    39   33   35 1    
    40   35   36 1    
    41   36   37 ar   
    42   36   44 ar   
    43   37   38 ar   
    44   38   39 1    
    45   38   42 ar   
    46   39   40 2    
    47   39   41 am   
    48   42   43 ar   
    49   43   44 ar   
    50   45   46 ar   
    51   45   47 ar   
    52   45   48 ar   
@<TRIPOS>SUBSTRUCTURE
     1 NAP801      1 GROUP   
@<TRIPOS>SET
ATOM$ORANGE STATIC     ATOMS   COLORGROUP SYSTEM 
42 5 5 6 6 8 8 10 10 12 12 14 14 16 16 17 17 20 \
20 22 22 28 28 29 29 31 31 33 33 35 35 37 37 38 38 39 \
39 42 42 43 43 44 44 

