#    Name: 6nkm_2_NAP
#    Modification time : Fri May 22 19:27:49 2020

@<TRIPOS>MOLECULE
6nkm_2_NAP
   48    52     1     0     1
SMALL
NO_CHARGES


@<TRIPOS>ATOM
      1 PA         15.3950   14.3540   43.4930 P.3       1 NAP801      0.0000 
      2 O1A        16.2290   13.3590   44.2770 O.co2     1 NAP801      0.0000 
      3 O2A        14.5540   13.6750   42.4770 O.co2     1 NAP801      0.0000 
      4 O5B        14.4110   15.1700   44.5860 O.3       1 NAP801      0.0000 
      5 C5B        13.1550   15.5810   44.0870 C.3       1 NAP801      0.0000 
      6 C4B        12.1600   15.3630   45.2750 C.3       1 NAP801      0.0000 
      7 O4B        10.9970   15.8290   44.8960 O.3       1 NAP801      0.0000 
      8 C3B        11.9900   13.8750   45.5580 C.3       1 NAP801      0.0000 
      9 O3B        12.0280   13.6010   46.8990 O.3       1 NAP801      0.0000 
     10 C2B        10.5750   13.5760   44.9930 C.3       1 NAP801      0.0000 
     11 O2B         9.9510   12.5200   45.8470 O.3       1 NAP801      0.0000 
     12 C1B         9.9070   14.6840   45.1100 C.3       1 NAP801      0.0000 
     13 N9A         8.9300   14.7340   44.0600 N.pl3     1 NAP801      0.0000 
     14 C8A         9.0750   14.6040   42.7420 C.2       1 NAP801      0.0000 
     15 N7A         7.8520   14.6980   42.1830 N.2       1 NAP801      0.0000 
     16 C5A         6.9840   14.8650   43.1490 C.ar      1 NAP801      0.0000 
     17 C6A         5.6260   15.0050   43.1140 C.ar      1 NAP801      0.0000 
     18 N6A         4.7310   14.9930   41.9830 N.pl3     1 NAP801      0.0000 
     19 N1A         4.9450   15.1630   44.2420 N.ar      1 NAP801      0.0000 
     20 C2A         5.6120   15.1940   45.4330 C.ar      1 NAP801      0.0000 
     21 N3A         6.9650   15.0650   45.4630 N.ar      1 NAP801      0.0000 
     22 C4A         7.6450   14.9050   44.3230 C.ar      1 NAP801      0.0000 
     23 O3         16.3530   15.4260   42.6890 O.3       1 NAP801      0.0000 
     24 PN         17.5240   16.4090   43.3840 P.3       1 NAP801      0.0000 
     25 O1N        18.8510   16.1390   42.6830 O.co2     1 NAP801      0.0000 
     26 O2N        17.6110   16.2270   44.8730 O.co2     1 NAP801      0.0000 
     27 O5D        16.9860   17.9630   43.0930 O.3       1 NAP801      0.0000 
     28 C5D        16.1020   18.5580   44.0520 C.3       1 NAP801      0.0000 
     29 C4D        15.9080   20.0650   43.6720 C.3       1 NAP801      0.0000 
     30 O4D        17.0820   20.6180   43.5590 O.3       1 NAP801      0.0000 
     31 C3D        15.2480   20.1930   42.2750 C.3       1 NAP801      0.0000 
     32 O3D        14.5600   21.3310   42.2180 O.3       1 NAP801      0.0000 
     33 C2D        16.4530   20.3470   41.3450 C.3       1 NAP801      0.0000 
     34 O2D        15.9850   20.8660   40.0080 O.3       1 NAP801      0.0000 
     35 C1D        17.1980   21.1760   42.0370 C.3       1 NAP801      0.0000 
     36 N1N        18.5620   21.1410   41.6190 N.pl3     1 NAP801      0.0000 
     37 C2N        19.2460   19.9790   41.6150 C.ar      1 NAP801      0.0000 
     38 C3N        20.5500   19.9840   41.1870 C.ar      1 NAP801      0.0000 
     39 C7N        21.4400   18.6780   41.1450 C.2       1 NAP801      0.0000 
     40 O7N        22.5040   18.7730   40.6620 O.2       1 NAP801      0.0000 
     41 N7N        20.9580   17.4020   41.6870 N.am      1 NAP801      0.0000 
     42 C4N        21.1380   21.1310   40.7780 C.ar      1 NAP801      0.0000 
     43 C5N        20.4610   22.2840   40.7850 C.ar      1 NAP801      0.0000 
     44 C6N        19.1480   22.2850   41.2070 C.ar      1 NAP801      0.0000 
     45 P2B         9.0750   11.4190   45.0440 P.3       1 NAP801      0.0000 
     46 O1X         9.9450   10.8170   43.9770 O.co2     1 NAP801      0.0000 
     47 O2X         8.6770   10.3810   46.0510 O.co2     1 NAP801      0.0000 
     48 O3X         7.8650   12.0090   44.3950 O.co2     1 NAP801      0.0000 
@<TRIPOS>BOND
     1    1    2 ar   
     2    1    3 ar   
     3    1    4 1    
     4    1   23 1    
     5    4    5 1    
     6    5    6 1    
     7    6    7 1    
     8    6    8 1    
     9    7   12 1    
    10    8    9 1    
    11    8   10 1    
    12   10   11 1    
    13   10   12 1    
    14   11   45 1    
    15   12   13 1    
    16   13   14 1    
    17   13   22 1    
    18   14   15 2    
    19   15   16 1    
    20   16   17 ar   
    21   16   22 ar   
    22   17   18 1    
    23   17   19 ar   
    24   19   20 ar   
    25   20   21 ar   
    26   21   22 ar   
    27   23   24 1    
    28   24   25 ar   
    29   24   26 ar   
    30   24   27 1    
    31   27   28 1    
    32   28   29 1    
    33   29   30 1    
    34   29   31 1    
    35   30   35 1    
    36   31   32 1    
    37   31   33 1    
    38   33   34 1    
    39   33   35 1    
    40   35   36 1    
    41   36   37 ar   
    42   36   44 ar   
    43   37   38 ar   
    44   38   39 1    
    45   38   42 ar   
    46   39   40 2    
    47   39   41 am   
    48   42   43 ar   
    49   43   44 ar   
    50   45   46 ar   
    51   45   47 ar   
    52   45   48 ar   
@<TRIPOS>SUBSTRUCTURE
     1 NAP801      1 GROUP   
@<TRIPOS>SET
ATOM$ORANGE STATIC     ATOMS   COLORGROUP SYSTEM 
42 5 5 6 6 8 8 10 10 12 12 14 14 16 16 17 17 20 \
20 22 22 28 28 29 29 31 31 33 33 35 35 37 37 38 38 39 \
39 42 42 43 43 44 44 

