#    Name: 6nkm_6_NAP
#    Modification time : Fri May 22 19:28:13 2020

@<TRIPOS>MOLECULE
6nkm_6_NAP
   48    52     1     0     1
SMALL
NO_CHARGES


@<TRIPOS>ATOM
      1 PA          1.3070   80.6810   11.4350 P.3       1 NAP801      0.0000 
      2 O1A         2.0600   81.1670   10.2040 O.co2     1 NAP801      0.0000 
      3 O2A         0.7570   79.3260   11.2130 O.co2     1 NAP801      0.0000 
      4 O5B         2.3610   80.5900   12.7580 O.3       1 NAP801      0.0000 
      5 C5B         2.0730   79.5870   13.7180 C.3       1 NAP801      0.0000 
      6 C4B         3.4340   78.9480   14.1690 C.3       1 NAP801      0.0000 
      7 O4B         3.2870   77.9310   14.9990 O.3       1 NAP801      0.0000 
      8 C3B         4.0520   78.3800   12.9030 C.3       1 NAP801      0.0000 
      9 O3B         5.3530   78.7680   12.8400 O.3       1 NAP801      0.0000 
     10 C2B         3.9230   76.8410   13.0490 C.3       1 NAP801      0.0000 
     11 O2B         5.0760   76.1790   12.3510 O.3       1 NAP801      0.0000 
     12 C1B         3.9900   76.6400   14.3290 C.3       1 NAP801      0.0000 
     13 N9A         3.2650   75.4570   14.7300 N.pl3     1 NAP801      0.0000 
     14 C8A         2.0910   74.9830   14.3180 C.2       1 NAP801      0.0000 
     15 N7A         1.8390   73.8510   15.0020 N.2       1 NAP801      0.0000 
     16 C5A         2.8380   73.6380   15.8220 C.ar      1 NAP801      0.0000 
     17 C6A         3.0770   72.6320   16.7260 C.ar      1 NAP801      0.0000 
     18 N6A         2.2870   71.4690   17.0790 N.pl3     1 NAP801      0.0000 
     19 N1A         4.1910   72.6450   17.4510 N.ar      1 NAP801      0.0000 
     20 C2A         5.0980   73.6440   17.2980 C.ar      1 NAP801      0.0000 
     21 N3A         4.8620   74.6400   16.3970 N.ar      1 NAP801      0.0000 
     22 C4A         3.7360   74.6360   15.6610 C.ar      1 NAP801      0.0000 
     23 O3          0.0800   81.7100   11.8070 O.3       1 NAP801      0.0000 
     24 PN          0.2260   83.3720   12.0270 P.3       1 NAP801      0.0000 
     25 O1N        -0.7620   84.0870   11.1130 O.co2     1 NAP801      0.0000 
     26 O2N         1.6110   83.8590   11.7290 O.co2     1 NAP801      0.0000 
     27 O5D        -0.1480   83.6110   13.6360 O.3       1 NAP801      0.0000 
     28 C5D         0.9190   83.5250   14.5970 C.3       1 NAP801      0.0000 
     29 C4D         0.3210   83.9950   15.9610 C.3       1 NAP801      0.0000 
     30 O4D        -0.2840   85.1400   15.7750 O.3       1 NAP801      0.0000 
     31 C3D        -0.7680   82.9720   16.4050 C.3       1 NAP801      0.0000 
     32 O3D        -0.6200   82.6370   17.6860 O.3       1 NAP801      0.0000 
     33 C2D        -2.1000   83.7130   16.2020 C.3       1 NAP801      0.0000 
     34 O2D        -3.1030   83.1920   17.2070 O.3       1 NAP801      0.0000 
     35 C1D        -1.7810   84.9710   16.3960 C.3       1 NAP801      0.0000 
     36 N1N        -2.6590   85.8870   15.7260 N.pl3     1 NAP801      0.0000 
     37 C2N        -2.6230   86.0350   14.3790 C.ar      1 NAP801      0.0000 
     38 C3N        -3.4780   86.9330   13.7660 C.ar      1 NAP801      0.0000 
     39 C7N        -3.4840   87.1420   12.1840 C.2       1 NAP801      0.0000 
     40 O7N        -4.2900   87.8460   11.6900 O.2       1 NAP801      0.0000 
     41 N7N        -2.4940   86.4640   11.3440 N.am      1 NAP801      0.0000 
     42 C4N        -4.3420   87.6610   14.5160 C.ar      1 NAP801      0.0000 
     43 C5N        -4.3710   87.5160   15.8540 C.ar      1 NAP801      0.0000 
     44 C6N        -3.5140   86.6180   16.4620 C.ar      1 NAP801      0.0000 
     45 P2B         4.7690   74.7680   11.5940 P.3       1 NAP801      0.0000 
     46 O1X         3.6120   74.9700   10.6230 O.co2     1 NAP801      0.0000 
     47 O2X         6.0130   74.2910   10.8530 O.co2     1 NAP801      0.0000 
     48 O3X         4.3870   73.7760   12.6320 O.co2     1 NAP801      0.0000 
@<TRIPOS>BOND
     1    1    2 ar   
     2    1    3 ar   
     3    1    4 1    
     4    1   23 1    
     5    4    5 1    
     6    5    6 1    
     7    6    7 1    
     8    6    8 1    
     9    7   12 1    
    10    8    9 1    
    11    8   10 1    
    12   10   11 1    
    13   10   12 1    
    14   11   45 1    
    15   12   13 1    
    16   13   14 1    
    17   13   22 1    
    18   14   15 2    
    19   15   16 1    
    20   16   17 ar   
    21   16   22 ar   
    22   17   18 1    
    23   17   19 ar   
    24   19   20 ar   
    25   20   21 ar   
    26   21   22 ar   
    27   23   24 1    
    28   24   25 ar   
    29   24   26 ar   
    30   24   27 1    
    31   27   28 1    
    32   28   29 1    
    33   29   30 1    
    34   29   31 1    
    35   30   35 1    
    36   31   32 1    
    37   31   33 1    
    38   33   34 1    
    39   33   35 1    
    40   35   36 1    
    41   36   37 ar   
    42   36   44 ar   
    43   37   38 ar   
    44   38   39 1    
    45   38   42 ar   
    46   39   40 2    
    47   39   41 am   
    48   42   43 ar   
    49   43   44 ar   
    50   45   46 ar   
    51   45   47 ar   
    52   45   48 ar   
@<TRIPOS>SUBSTRUCTURE
     1 NAP801      1 GROUP   
@<TRIPOS>SET
ATOM$ORANGE STATIC     ATOMS   COLORGROUP SYSTEM 
42 5 5 6 6 8 8 10 10 12 12 14 14 16 16 17 17 20 \
20 22 22 28 28 29 29 31 31 33 33 35 35 37 37 38 38 39 \
39 42 42 43 43 44 44 

