#    Name: 6nkm_5_NAP
#    Modification time : Fri May 22 19:28:07 2020

@<TRIPOS>MOLECULE
6nkm_5_NAP
   48    52     1     0     1
SMALL
NO_CHARGES


@<TRIPOS>ATOM
      1 PA         10.7740   -0.0440   30.4330 P.3       1 NAP801      0.0000 
      2 O1A        12.2470   -0.4210   30.2000 O.co2     1 NAP801      0.0000 
      3 O2A        10.6860    1.2810   31.0780 O.co2     1 NAP801      0.0000 
      4 O5B        10.0050   -0.0640   28.9350 O.3       1 NAP801      0.0000 
      5 C5B         8.9400    0.8140   28.7420 C.3       1 NAP801      0.0000 
      6 C4B         9.1290    1.3420   27.2910 C.3       1 NAP801      0.0000 
      7 O4B         8.1410    2.1760   27.0410 O.3       1 NAP801      0.0000 
      8 C3B        10.4270    2.1450   27.3080 C.3       1 NAP801      0.0000 
      9 O3B        11.1460    1.9770   26.1610 O.3       1 NAP801      0.0000 
     10 C2B         9.9310    3.6050   27.4160 C.3       1 NAP801      0.0000 
     11 O2B        10.9420    4.5060   26.7670 O.3       1 NAP801      0.0000 
     12 C1B         8.8080    3.6050   26.7540 C.3       1 NAP801      0.0000 
     13 N9A         7.9400    4.6490   27.2310 N.pl3     1 NAP801      0.0000 
     14 C8A         7.4640    4.9100   28.4440 C.2       1 NAP801      0.0000 
     15 N7A         6.7150    6.0260   28.3580 N.2       1 NAP801      0.0000 
     16 C5A         6.7330    6.4380   27.1130 C.ar      1 NAP801      0.0000 
     17 C6A         6.1480    7.5120   26.4840 C.ar      1 NAP801      0.0000 
     18 N6A         5.2960    8.5770   26.9780 N.pl3     1 NAP801      0.0000 
     19 N1A         6.3370    7.6990   25.1820 N.ar      1 NAP801      0.0000 
     20 C2A         7.1100    6.8290   24.4800 C.ar      1 NAP801      0.0000 
     21 N3A         7.6900    5.7710   25.0990 N.ar      1 NAP801      0.0000 
     22 C4A         7.4950    5.5780   26.4060 C.ar      1 NAP801      0.0000 
     23 O3          9.9720   -1.1290   31.3890 O.3       1 NAP801      0.0000 
     24 PN          9.9360   -2.7550   30.9900 P.3       1 NAP801      0.0000 
     25 O1N        10.5000   -3.5630   32.1510 O.co2     1 NAP801      0.0000 
     26 O2N        10.7460   -2.9420   29.7350 O.co2     1 NAP801      0.0000 
     27 O5D         8.3470   -3.2180   30.7190 O.3       1 NAP801      0.0000 
     28 C5D         7.8540   -3.0360   29.3830 C.3       1 NAP801      0.0000 
     29 C4D         6.4270   -3.6680   29.2020 C.3       1 NAP801      0.0000 
     30 O4D         6.3480   -4.8490   29.7200 O.3       1 NAP801      0.0000 
     31 C3D         5.3830   -2.7900   29.9450 C.3       1 NAP801      0.0000 
     32 O3D         4.3860   -2.5130   29.1130 O.3       1 NAP801      0.0000 
     33 C2D         4.9280   -3.6670   31.1310 C.3       1 NAP801      0.0000 
     34 O2D         3.5100   -3.3700   31.5610 O.3       1 NAP801      0.0000 
     35 C1D         5.0470   -4.8910   30.6960 C.3       1 NAP801      0.0000 
     36 N1N         5.3270   -5.7360   31.8130 N.pl3     1 NAP801      0.0000 
     37 C2N         6.5910   -5.7950   32.2910 C.ar      1 NAP801      0.0000 
     38 C3N         6.8830   -6.5920   33.3730 C.ar      1 NAP801      0.0000 
     39 C7N         8.3620   -6.6880   33.9570 C.2       1 NAP801      0.0000 
     40 O7N         8.5360   -7.3030   34.9360 O.2       1 NAP801      0.0000 
     41 N7N         9.4910   -6.0290   33.2950 N.am      1 NAP801      0.0000 
     42 C4N         5.8960   -7.3110   33.9590 C.ar      1 NAP801      0.0000 
     43 C5N         4.6360   -7.2500   33.4830 C.ar      1 NAP801      0.0000 
     44 C6N         4.3450   -6.4490   32.3960 C.ar      1 NAP801      0.0000 
     45 P2B        11.2250    5.9540   27.4600 P.3       1 NAP801      0.0000 
     46 O1X        11.6070    5.7710   28.9250 O.co2     1 NAP801      0.0000 
     47 O2X        12.3400    6.6720   26.7080 O.co2     1 NAP801      0.0000 
     48 O3X         9.9600    6.7460   27.3590 O.co2     1 NAP801      0.0000 
@<TRIPOS>BOND
     1    1    2 ar   
     2    1    3 ar   
     3    1    4 1    
     4    1   23 1    
     5    4    5 1    
     6    5    6 1    
     7    6    7 1    
     8    6    8 1    
     9    7   12 1    
    10    8    9 1    
    11    8   10 1    
    12   10   11 1    
    13   10   12 1    
    14   11   45 1    
    15   12   13 1    
    16   13   14 1    
    17   13   22 1    
    18   14   15 2    
    19   15   16 1    
    20   16   17 ar   
    21   16   22 ar   
    22   17   18 1    
    23   17   19 ar   
    24   19   20 ar   
    25   20   21 ar   
    26   21   22 ar   
    27   23   24 1    
    28   24   25 ar   
    29   24   26 ar   
    30   24   27 1    
    31   27   28 1    
    32   28   29 1    
    33   29   30 1    
    34   29   31 1    
    35   30   35 1    
    36   31   32 1    
    37   31   33 1    
    38   33   34 1    
    39   33   35 1    
    40   35   36 1    
    41   36   37 ar   
    42   36   44 ar   
    43   37   38 ar   
    44   38   39 1    
    45   38   42 ar   
    46   39   40 2    
    47   39   41 am   
    48   42   43 ar   
    49   43   44 ar   
    50   45   46 ar   
    51   45   47 ar   
    52   45   48 ar   
@<TRIPOS>SUBSTRUCTURE
     1 NAP801      1 GROUP   
@<TRIPOS>SET
ATOM$ORANGE STATIC     ATOMS   COLORGROUP SYSTEM 
42 5 5 6 6 8 8 10 10 12 12 14 14 16 16 17 17 20 \
20 22 22 28 28 29 29 31 31 33 33 35 35 37 37 38 38 39 \
39 42 42 43 43 44 44 

