#    Name: 6nkm_4_NAP
#    Modification time : Fri May 22 19:28:01 2020

@<TRIPOS>MOLECULE
6nkm_4_NAP
   48    52     1     0     1
SMALL
NO_CHARGES


@<TRIPOS>ATOM
      1 PA         33.7490   45.8070   64.9720 P.3       1 NAP801      0.0000 
      2 O1A        33.0990   45.2710   66.2370 O.co2     1 NAP801      0.0000 
      3 O2A        34.4310   47.0850   65.2360 O.co2     1 NAP801      0.0000 
      4 O5B        34.7980   44.6570   64.3590 O.3       1 NAP801      0.0000 
      5 C5B        35.9360   45.0940   63.6550 C.3       1 NAP801      0.0000 
      6 C4B        37.1020   44.1140   64.0440 C.3       1 NAP801      0.0000 
      7 O4B        38.1590   44.3580   63.2990 O.3       1 NAP801      0.0000 
      8 C3B        37.4940   44.3450   65.4960 C.3       1 NAP801      0.0000 
      9 O3B        37.8590   43.1840   66.1190 O.3       1 NAP801      0.0000 
     10 C2B        38.7170   45.2860   65.3690 C.3       1 NAP801      0.0000 
     11 O2B        39.6240   45.0270   66.5280 O.3       1 NAP801      0.0000 
     12 C1B        39.3190   44.9170   64.2780 C.3       1 NAP801      0.0000 
     13 N9A        40.0210   46.0460   63.7090 N.pl3     1 NAP801      0.0000 
     14 C8A        39.5960   47.2760   63.4400 C.2       1 NAP801      0.0000 
     15 N7A        40.6340   47.9760   62.9350 N.2       1 NAP801      0.0000 
     16 C5A        41.6810   47.1870   62.8980 C.ar      1 NAP801      0.0000 
     17 C6A        42.9760   47.3930   62.4810 C.ar      1 NAP801      0.0000 
     18 N6A        43.6370   48.5620   61.9300 N.pl3     1 NAP801      0.0000 
     19 N1A        43.8650   46.4070   62.5480 N.ar      1 NAP801      0.0000 
     20 C2A        43.4970   45.1950   63.0370 C.ar      1 NAP801      0.0000 
     21 N3A        42.2140   44.9900   63.4510 N.ar      1 NAP801      0.0000 
     22 C4A        41.3080   45.9800   63.3810 C.ar      1 NAP801      0.0000 
     23 O3         32.6230   46.1430   63.8240 O.3       1 NAP801      0.0000 
     24 PN         31.4730   45.0970   63.2000 P.3       1 NAP801      0.0000 
     25 O1N        30.1220   45.7690   63.4170 O.co2     1 NAP801      0.0000 
     26 O2N        31.5170   43.7440   63.8530 O.co2     1 NAP801      0.0000 
     27 O5D        31.8130   44.9350   61.5770 O.3       1 NAP801      0.0000 
     28 C5D        32.7010   43.8990   61.1430 C.3       1 NAP801      0.0000 
     29 C4D        32.6450   43.8890   59.5760 C.3       1 NAP801      0.0000 
     30 O4D        31.4140   43.8070   59.1550 O.3       1 NAP801      0.0000 
     31 C3D        33.1760   45.2560   59.0740 C.3       1 NAP801      0.0000 
     32 O3D        33.9140   45.0780   57.9810 O.3       1 NAP801      0.0000 
     33 C2D        31.9040   46.0410   58.7200 C.3       1 NAP801      0.0000 
     34 O2D        32.2860   47.0930   57.7120 O.3       1 NAP801      0.0000 
     35 C1D        31.1220   45.1120   58.2240 C.3       1 NAP801      0.0000 
     36 N1N        29.7170   45.4440   58.2930 N.pl3     1 NAP801      0.0000 
     37 C2N        29.1050   45.6940   59.4810 C.ar      1 NAP801      0.0000 
     38 C3N        27.7620   46.0150   59.5190 C.ar      1 NAP801      0.0000 
     39 C7N        27.0230   46.3030   60.8990 C.2       1 NAP801      0.0000 
     40 O7N        25.9030   46.6590   60.8980 O.2       1 NAP801      0.0000 
     41 N7N        27.7410   46.1110   62.1660 N.am      1 NAP801      0.0000 
     42 C4N        27.0520   46.0770   58.3660 C.ar      1 NAP801      0.0000 
     43 C5N        27.6550   45.8230   57.1850 C.ar      1 NAP801      0.0000 
     44 C6N        29.0070   45.5090   57.1520 C.ar      1 NAP801      0.0000 
     45 P2B        40.3850   46.3010   67.2130 P.3       1 NAP801      0.0000 
     46 O1X        39.4170   47.3960   67.6410 O.co2     1 NAP801      0.0000 
     47 O2X        41.1550   45.7310   68.4020 O.co2     1 NAP801      0.0000 
     48 O3X        41.3060   46.8640   66.1930 O.co2     1 NAP801      0.0000 
@<TRIPOS>BOND
     1    1    2 ar   
     2    1    3 ar   
     3    1    4 1    
     4    1   23 1    
     5    4    5 1    
     6    5    6 1    
     7    6    7 1    
     8    6    8 1    
     9    7   12 1    
    10    8    9 1    
    11    8   10 1    
    12   10   11 1    
    13   10   12 1    
    14   11   45 1    
    15   12   13 1    
    16   13   14 1    
    17   13   22 1    
    18   14   15 2    
    19   15   16 1    
    20   16   17 ar   
    21   16   22 ar   
    22   17   18 1    
    23   17   19 ar   
    24   19   20 ar   
    25   20   21 ar   
    26   21   22 ar   
    27   23   24 1    
    28   24   25 ar   
    29   24   26 ar   
    30   24   27 1    
    31   27   28 1    
    32   28   29 1    
    33   29   30 1    
    34   29   31 1    
    35   30   35 1    
    36   31   32 1    
    37   31   33 1    
    38   33   34 1    
    39   33   35 1    
    40   35   36 1    
    41   36   37 ar   
    42   36   44 ar   
    43   37   38 ar   
    44   38   39 1    
    45   38   42 ar   
    46   39   40 2    
    47   39   41 am   
    48   42   43 ar   
    49   43   44 ar   
    50   45   46 ar   
    51   45   47 ar   
    52   45   48 ar   
@<TRIPOS>SUBSTRUCTURE
     1 NAP801      1 GROUP   
@<TRIPOS>SET
ATOM$ORANGE STATIC     ATOMS   COLORGROUP SYSTEM 
42 5 5 6 6 8 8 10 10 12 12 14 14 16 16 17 17 20 \
20 22 22 28 28 29 29 31 31 33 33 35 35 37 37 38 38 39 \
39 42 42 43 43 44 44 

