#    Name: 6im3_3_AZM
#    Modification time : Fri May 22 19:25:15 2020

@<TRIPOS>MOLECULE
6im3_3_AZM
   13    13     1     0     0
SMALL
NO_CHARGES


@<TRIPOS>ATOM
      1 C1        -20.4390  -16.2180  -17.8700 C.2       1 AZM302      0.0000 
      2 C2        -22.1530  -17.9450  -18.6190 C.2       1 AZM302      0.0000 
      3 C3        -23.4290  -18.9030  -20.4950 C.2       1 AZM302      0.0000 
      4 C4        -24.4480  -19.9610  -20.8360 C.3       1 AZM302      0.0000 
      5 N1        -19.2950  -14.2740  -16.3820 N.pl3     1 AZM302      0.0000 
      6 N2        -21.8420  -17.9780  -17.2830 N.2       1 AZM302      0.0000 
      7 N3        -20.8730  -16.9950  -16.8240 N.2       1 AZM302      0.0000 
      8 N4        -23.0690  -18.8090  -19.1920 N.am      1 AZM302      0.0000 
      9 O1        -18.0300  -15.7960  -17.4480 O.2       1 AZM302      0.0000 
     10 O2        -19.2320  -14.2170  -18.8280 O.2       1 AZM302      0.0000 
     11 O3        -22.9400  -18.2500  -21.3970 O.2       1 AZM302      0.0000 
     12 S1        -19.2500  -15.0740  -17.7010 S.o2      1 AZM302      0.0000 
     13 S2        -21.2440  -16.6720  -19.3510 S.3       1 AZM302      0.0000 
@<TRIPOS>BOND
     1    1    7 2    
     2    1   12 1    
     3    1   13 1    
     4    2    6 2    
     5    2    8 1    
     6    2   13 1    
     7    3    4 1    
     8    3    8 am   
     9    3   11 2    
    10    5   12 1    
    11    6    7 1    
    12    9   12 2    
    13   10   12 2    
@<TRIPOS>SUBSTRUCTURE
     1 AZM302      1 GROUP   
@<TRIPOS>SET

