#    Name: 6im3_3_AZM_CAVITY_N1_ALL
#    Modification time : Fri May 22 19:25:16 2020

@<TRIPOS>MOLECULE
6im3_3_AZM_CAVITY_N1_ALL
   71     0     6     0     0
SMALL
NO_CHARGES


@<TRIPOS>ATOM
      1 OG        -21.8100  -17.5000  -17.8100 O.3       1 SER1        0.0000 
      2 OG        -22.0800  -19.2100  -16.5900 O.3       1 SER1        0.0000 
      3 OG        -22.9000  -18.0000  -16.9200 O.3       1 SER1        0.0000 
      4 OG        -23.7300  -16.8000  -17.2400 O.3       1 SER1        0.0000 
      5 OG        -23.9900  -18.5100  -16.0200 O.3       1 SER1        0.0000 
      6 OG        -24.8200  -17.3000  -16.3400 O.3       1 SER1        0.0000 
      7 OG        -25.9100  -17.8000  -15.4400 O.3       1 SER1        0.0000 
      8 OG        -20.3700  -17.9700  -16.3300 O.3       1 SER1        0.0000 
      9 OG        -21.2000  -16.7700  -16.6600 O.3       1 SER1        0.0000 
     10 OG        -23.1200  -16.0600  -16.0900 O.3       1 SER1        0.0000 
     11 OG        -24.2100  -16.5600  -15.1900 O.3       1 SER1        0.0000 
     12 OG        -19.5000  -15.5300  -16.4000 O.3       1 SER1        0.0000 
     13 OG        -20.5900  -16.0300  -15.5000 O.3       1 SER1        0.0000 
     14 OG        -22.2400  -13.6200  -16.1600 O.3       1 SER1        0.0000 
     15 OG        -23.8100  -13.8900  -13.2000 O.3       1 SER1        0.0000 
     16 O         -22.7800  -17.2600  -21.3500 O.2       2 ALA2        0.0000 
     17 O         -23.8700  -17.7600  -20.4500 O.2       2 ALA2        0.0000 
     18 O         -22.1600  -16.5200  -20.2000 O.2       2 ALA2        0.0000 
     19 O         -23.2500  -17.0300  -19.3000 O.2       2 ALA2        0.0000 
     20 O         -25.1700  -16.3200  -18.7200 O.2       2 ALA2        0.0000 
     21 O         -26.0000  -15.1100  -19.0500 O.2       2 ALA2        0.0000 
     22 O         -27.0900  -15.6200  -18.1500 O.2       2 ALA2        0.0000 
     23 O         -28.1800  -16.1200  -17.2500 O.2       2 ALA2        0.0000 
     24 O         -23.4700  -15.0800  -18.4700 O.2       2 ALA2        0.0000 
     25 O         -24.5600  -15.5900  -17.5700 O.2       2 ALA2        0.0000 
     26 O         -25.3900  -14.3800  -17.9000 O.2       2 ALA2        0.0000 
     27 O         -26.4800  -14.8800  -17.0000 O.2       2 ALA2        0.0000 
     28 O         -26.7400  -16.5900  -15.7700 O.2       2 ALA2        0.0000 
     29 O         -26.1300  -15.8600  -14.6200 O.2       2 ALA2        0.0000 
     30 OD1       -27.7000  -16.3500  -19.3100 O.co2     3 ASP3        0.0000 
     31 OD1       -21.4100  -14.8200  -15.8300 O.co2     3 ASP3        0.0000 
     32 CZ        -21.5500  -15.7900  -19.0400 C.ar      4 PHE5        0.0000 
     33 CZ        -22.6400  -16.2900  -18.1400 C.ar      4 PHE5        0.0000 
     34 CZ        -19.8500  -14.5500  -18.7800 C.ar      4 PHE5        0.0000 
     35 CZ        -20.9400  -15.0500  -17.8900 C.ar      4 PHE5        0.0000 
     36 CZ        -22.0300  -15.5600  -16.9900 C.ar      4 PHE5        0.0000 
     37 CZ        -22.8500  -14.3500  -17.3100 C.ar      4 PHE5        0.0000 
     38 CZ        -22.7200  -13.3900  -14.1000 C.ar      4 PHE5        0.0000 
     39 CA        -21.1200  -19.6700  -20.7000 C.3       5 GLY6        0.0000 
     40 CA        -21.9500  -18.4600  -21.0200 C.3       5 GLY6        0.0000 
     41 CA        -22.2100  -20.1700  -19.8000 C.3       5 GLY6        0.0000 
     42 CA        -20.2500  -17.2300  -20.7700 C.3       5 GLY6        0.0000 
     43 CA        -21.3400  -17.7300  -19.8700 C.3       5 GLY6        0.0000 
     44 CA        -21.6000  -19.4400  -18.6400 C.3       5 GLY6        0.0000 
     45 CA        -21.8600  -21.1500  -17.4200 C.3       5 GLY6        0.0000 
     46 CA        -22.6900  -19.9400  -17.7400 C.3       5 GLY6        0.0000 
     47 CA        -22.9500  -21.6500  -16.5200 C.3       5 GLY6        0.0000 
     48 CA        -19.6300  -16.4900  -19.6100 C.3       5 GLY6        0.0000 
     49 CA        -20.7200  -17.0000  -18.7100 C.3       5 GLY6        0.0000 
     50 CA        -20.9900  -18.7100  -17.4900 C.3       5 GLY6        0.0000 
     51 CA        -19.0200  -15.7600  -18.4600 C.3       5 GLY6        0.0000 
     52 CA        -19.2800  -17.4700  -17.2300 C.3       5 GLY6        0.0000 
     53 CA        -20.1100  -16.2600  -17.5600 C.3       5 GLY6        0.0000 
     54 CA        -24.7700  -13.6500  -16.7400 C.3       5 GLY6        0.0000 
     55 CA        -25.8600  -14.1500  -15.8400 C.3       5 GLY6        0.0000 
     56 CA        -23.3300  -14.1200  -15.2600 C.3       5 GLY6        0.0000 
     57 CA        -24.1600  -12.9100  -15.5900 C.3       5 GLY6        0.0000 
     58 CA        -24.4200  -14.6200  -14.3600 C.3       5 GLY6        0.0000 
     59 CA        -25.2500  -13.4200  -14.6900 C.3       5 GLY6        0.0000 
     60 CA        -25.5100  -15.1300  -13.4600 C.3       5 GLY6        0.0000 
     61 CA        -23.5400  -12.1800  -14.4300 C.3       5 GLY6        0.0000 
     62 CA        -24.6400  -12.6800  -13.5300 C.3       5 GLY6        0.0000 
     63 DU        -23.0400  -18.9700  -20.1200 H         6 CUB7        0.0000 
     64 DU        -22.4300  -18.2300  -18.9700 H         6 CUB7        0.0000 
     65 DU        -23.5200  -18.7400  -18.0700 H         6 CUB7        0.0000 
     66 DU        -24.3400  -17.5300  -18.4000 H         6 CUB7        0.0000 
     67 DU        -25.4300  -18.0300  -17.5000 H         6 CUB7        0.0000 
     68 DU        -26.2600  -16.8300  -17.8300 H         6 CUB7        0.0000 
     69 DU        -25.6500  -16.0900  -16.6700 H         6 CUB7        0.0000 
     70 DU        -23.9400  -14.8500  -16.4100 H         6 CUB7        0.0000 
     71 DU        -25.0300  -15.3600  -15.5200 H         6 CUB7        0.0000 
@<TRIPOS>BOND
@<TRIPOS>SUBSTRUCTURE
     1 SER1        1 GROUP   
     2 ALA2       16 GROUP   
     3 ASP3       30 GROUP   
     4 PHE5       32 GROUP   
     5 GLY6       39 GROUP   
     6 CUB7       63 GROUP   
@<TRIPOS>SET

