#    Name: 6im3_4_AZM
#    Modification time : Fri May 22 19:25:19 2020

@<TRIPOS>MOLECULE
6im3_4_AZM
   13    13     1     0     0
SMALL
NO_CHARGES


@<TRIPOS>ATOM
      1 C1        -19.4270   15.2810   17.7610 C.2       1 AZM302      0.0000 
      2 C2        -21.3450   16.6700   18.4600 C.2       1 AZM302      0.0000 
      3 C3        -22.8690   17.3670   20.2300 C.2       1 AZM302      0.0000 
      4 C4        -23.9950   18.3100   20.5990 C.3       1 AZM302      0.0000 
      5 N1        -18.3880   13.4490   16.2330 N.pl3     1 AZM302      0.0000 
      6 N2        -20.9770   16.8660   17.1690 N.2       1 AZM302      0.0000 
      7 N3        -19.8810   16.0570   16.7290 N.2       1 AZM302      0.0000 
      8 N4        -22.3950   17.3950   18.9720 N.am      1 AZM302      0.0000 
      9 O1        -17.0230   15.0770   17.2660 O.2       1 AZM302      0.0000 
     10 O2        -18.0090   13.4880   18.7680 O.2       1 AZM302      0.0000 
     11 O3        -22.4040   16.6520   21.0790 O.2       1 AZM302      0.0000 
     12 S1        -18.1350   14.2760   17.6030 S.o2      1 AZM302      0.0000 
     13 S2        -20.3210   15.4770   19.2300 S.3       1 AZM302      0.0000 
@<TRIPOS>BOND
     1    1    7 2    
     2    1   12 1    
     3    1   13 1    
     4    2    6 2    
     5    2    8 1    
     6    2   13 1    
     7    3    4 1    
     8    3    8 am   
     9    3   11 2    
    10    5   12 1    
    11    6    7 1    
    12    9   12 2    
    13   10   12 2    
@<TRIPOS>SUBSTRUCTURE
     1 AZM302      1 GROUP   
@<TRIPOS>SET

