#    Name: 6im3_4_AZM_CAVITY_N1_4
#    Modification time : Fri May 22 19:25:20 2020

@<TRIPOS>MOLECULE
6im3_4_AZM_CAVITY_N1_4
   57     0     6     0     0
SMALL
NO_CHARGES


@<TRIPOS>ATOM
      1 OG        -21.9800   12.0700   16.0700 O.3       1 SER1        0.0000 
      2 OG        -23.6300   14.4900   15.4200 O.3       1 SER1        0.0000 
      3 OG        -21.1000   14.5200   16.0000 O.3       1 SER1        0.0000 
      4 OG        -23.0200   15.2200   16.5700 O.3       1 SER1        0.0000 
      5 OG        -23.8400   16.4300   16.2500 O.3       1 SER1        0.0000 
      6 OG        -23.2800   13.5100   17.8000 O.3       1 SER1        0.0000 
      7 OG        -18.5700   14.5500   16.5800 O.3       1 SER1        0.0000 
      8 OG        -19.4000   15.7500   16.2600 O.3       1 SER1        0.0000 
      9 OG        -20.4900   15.2500   17.1600 O.3       1 SER1        0.0000 
     10 OG        -21.3100   16.4600   16.8300 O.3       1 SER1        0.0000 
     11 OG        -22.1400   17.6700   16.5000 O.3       1 SER1        0.0000 
     12 OG        -22.9700   18.8700   16.1700 O.3       1 SER1        0.0000 
     13 OG        -22.4000   15.9500   17.7300 O.3       1 SER1        0.0000 
     14 OG        -23.2300   17.1600   17.4000 O.3       1 SER1        0.0000 
     15 O         -23.4900   15.4500   18.6300 O.2       2 ALA2        0.0000 
     16 O         -24.5800   14.9500   19.5300 O.2       2 ALA2        0.0000 
     17 O         -20.9600   15.4800   19.2100 O.2       2 ALA2        0.0000 
     18 O         -22.8800   16.1900   19.7800 O.2       2 ALA2        0.0000 
     19 O         -22.2700   16.9200   20.9400 O.2       2 ALA2        0.0000 
     20 O         -23.3600   16.4200   21.8400 O.2       2 ALA2        0.0000 
     21 OD1       -20.2700   13.3100   16.3300 O.co2     3 ASP3        0.0000 
     22 OD1       -19.6600   14.0400   17.4800 O.co2     3 ASP3        0.0000 
     23 OD1       -17.1300   14.0700   18.0700 O.co2     3 ASP3        0.0000 
     24 CZ        -20.8900   12.5800   15.1700 C.ar      4 PHE5        0.0000 
     25 CZ        -22.1900   14.0100   16.9000 C.ar      4 PHE5        0.0000 
     26 CZ        -21.5800   14.7500   18.0600 C.ar      4 PHE5        0.0000 
     27 CZ        -18.2200   13.5700   18.9700 C.ar      4 PHE5        0.0000 
     28 CZ        -19.0400   14.7800   18.6400 C.ar      4 PHE5        0.0000 
     29 CZ        -20.1300   14.2700   19.5400 C.ar      4 PHE5        0.0000 
     30 CA        -21.7100   13.7800   14.8500 C.3       5 GLY6        0.0000 
     31 CA        -17.9500   15.2800   17.7400 C.3       5 GLY6        0.0000 
     32 CA        -18.7800   16.4900   17.4100 C.3       5 GLY6        0.0000 
     33 CA        -19.6100   17.7000   17.0900 C.3       5 GLY6        0.0000 
     34 CA        -20.4400   18.9000   16.7600 C.3       5 GLY6        0.0000 
     35 CA        -19.8700   15.9800   18.3100 C.3       5 GLY6        0.0000 
     36 CA        -20.7000   17.1900   17.9800 C.3       5 GLY6        0.0000 
     37 CA        -21.5300   18.4000   17.6600 C.3       5 GLY6        0.0000 
     38 CA        -22.3500   19.6100   17.3300 C.3       5 GLY6        0.0000 
     39 CA        -18.4300   15.5100   19.7900 C.3       5 GLY6        0.0000 
     40 CA        -20.0900   17.9300   19.1400 C.3       5 GLY6        0.0000 
     41 CA        -20.3500   16.2200   20.3700 C.3       5 GLY6        0.0000 
     42 CA        -21.1800   17.4200   20.0400 C.3       5 GLY6        0.0000 
     43 CA        -22.0000   18.6300   19.7100 C.3       5 GLY6        0.0000 
     44 CA        -21.4400   15.7100   21.2600 C.3       5 GLY6        0.0000 
     45 CA        -20.5600   18.1600   21.1900 C.3       5 GLY6        0.0000 
     46 CA        -21.3900   19.3600   20.8700 C.3       5 GLY6        0.0000 
     47 CA        -21.6500   17.6500   22.0900 C.3       5 GLY6        0.0000 
     48 CA        -22.7400   17.1500   22.9900 C.3       5 GLY6        0.0000 
     49 CA        -21.8700   19.5900   22.9200 C.3       5 GLY6        0.0000 
     50 DU        -24.1100   14.7200   17.4700 H         6 CUB7        0.0000 
     51 DU        -24.9300   15.9300   17.1400 H         6 CUB7        0.0000 
     52 DU        -24.3200   16.6600   18.3000 H         6 CUB7        0.0000 
     53 DU        -21.7900   16.6900   18.8800 H         6 CUB7        0.0000 
     54 DU        -22.6200   17.9000   18.5600 H         6 CUB7        0.0000 
     55 DU        -23.7100   17.3900   19.4600 H         6 CUB7        0.0000 
     56 DU        -23.0900   18.1300   20.6100 H         6 CUB7        0.0000 
     57 DU        -22.4800   18.8600   21.7700 H         6 CUB7        0.0000 
@<TRIPOS>BOND
@<TRIPOS>SUBSTRUCTURE
     1 SER1        1 GROUP   
     2 ALA2       15 GROUP   
     3 ASP3       21 GROUP   
     4 PHE5       24 GROUP   
     5 GLY6       30 GROUP   
     6 CUB7       50 GROUP   
@<TRIPOS>SET

