#    Name: 6gqx_4_GNP
#    Modification time : Fri May 22 19:26:09 2020

@<TRIPOS>MOLECULE
6gqx_4_GNP
   32    34     1     0     1
SMALL
NO_CHARGES


@<TRIPOS>ATOM
      1 PG         39.9340  134.3420   11.7350 P.3       1 GNP201      0.0000 
      2 O1G        40.8250  135.4840   11.2740 O.co2     1 GNP201      0.0000 
      3 O2G        40.5480  133.9920   13.0910 O.co2     1 GNP201      0.0000 
      4 O3G        38.5090  134.8470   11.9460 O.co2     1 GNP201      0.0000 
      5 N3B        39.8930  133.0260   10.7240 N.3       1 GNP201      0.0000 
      6 PB         40.7650  131.7170   11.0930 P.3       1 GNP201      0.0000 
      7 O1B        42.1760  131.8810   10.6240 O.co2     1 GNP201      0.0000 
      8 O2B        40.5460  131.4170   12.5570 O.co2     1 GNP201      0.0000 
      9 O3A        40.0930  130.5080   10.3450 O.3       1 GNP201      0.0000 
     10 PA         39.3640  129.2480   10.9830 P.3       1 GNP201      0.0000 
     11 O1A        38.1360  129.7170   11.6700 O.co2     1 GNP201      0.0000 
     12 O2A        40.3300  128.4930   11.8290 O.co2     1 GNP201      0.0000 
     13 O5'        39.0300  128.4150    9.6540 O.3       1 GNP201      0.0000 
     14 C5'        38.2740  129.0040    8.5710 C.3       1 GNP201      0.0000 
     15 C4'        37.6030  127.9010    7.7810 C.3       1 GNP201      0.0000 
     16 O4'        38.5910  127.0600    7.1250 O.3       1 GNP201      0.0000 
     17 C3'        36.7310  126.9460    8.6010 C.3       1 GNP201      0.0000 
     18 O3'        35.5120  126.6470    7.9220 O.3       1 GNP201      0.0000 
     19 C2'        37.6090  125.7040    8.7540 C.3       1 GNP201      0.0000 
     20 O2'        36.8720  124.5070    8.8900 O.3       1 GNP201      0.0000 
     21 C1'        38.3670  125.7000    7.4380 C.3       1 GNP201      0.0000 
     22 N9         39.6610  125.0350    7.5190 N.pl3     1 GNP201      0.0000 
     23 C8         40.6650  125.3890    8.3820 C.2       1 GNP201      0.0000 
     24 N7         41.7680  124.6950    8.2160 N.2       1 GNP201      0.0000 
     25 C5         41.4650  123.8020    7.1980 C.2       1 GNP201      0.0000 
     26 C6         42.2640  122.7900    6.6060 C.2       1 GNP201      0.0000 
     27 O6         43.4600  122.5250    6.8000 O.2       1 GNP201      0.0000 
     28 N1         41.5690  122.1240    5.5980 N.am      1 GNP201      0.0000 
     29 C2         40.2740  122.3780    5.2290 C.2       1 GNP201      0.0000 
     30 N2         39.7760  121.6030    4.2600 N.pl3     1 GNP201      0.0000 
     31 N3         39.5260  123.3330    5.7770 N.2       1 GNP201      0.0000 
     32 C4         40.1740  124.0080    6.7530 C.2       1 GNP201      0.0000 
@<TRIPOS>BOND
     1    1    2 ar   
     2    1    3 ar   
     3    1    4 ar   
     4    1    5 1    
     5    5    6 1    
     6    6    7 ar   
     7    6    8 ar   
     8    6    9 1    
     9    9   10 1    
    10   10   11 ar   
    11   10   12 ar   
    12   10   13 1    
    13   13   14 1    
    14   14   15 1    
    15   15   16 1    
    16   15   17 1    
    17   16   21 1    
    18   17   18 1    
    19   17   19 1    
    20   19   20 1    
    21   19   21 1    
    22   21   22 1    
    23   22   23 1    
    24   22   32 1    
    25   23   24 2    
    26   24   25 1    
    27   25   26 1    
    28   25   32 2    
    29   26   27 2    
    30   26   28 am   
    31   28   29 1    
    32   29   30 1    
    33   29   31 2    
    34   31   32 1    
@<TRIPOS>SUBSTRUCTURE
     1 GNP201      1 GROUP   
@<TRIPOS>SET
ATOM$ORANGE STATIC     ATOMS   COLORGROUP SYSTEM 
20 14 14 15 15 17 17 19 19 21 21 23 23 25 25 26 26 29 \
29 32 32 

