#    Name: 6gqx_4_GNP_CAVITY_N1_ALL
#    Modification time : Fri May 22 19:26:11 2020

@<TRIPOS>MOLECULE
6gqx_4_GNP_CAVITY_N1_ALL
   75     0     7     0     0
SMALL
NO_CHARGES


@<TRIPOS>ATOM
      1 OG         39.4100  130.5500   12.3300 O.3       1 SER1        0.0000 
      2 N          35.4100  125.8400    7.5900 N.am      2 ALA2        0.0000 
      3 O          42.0700  122.0700    7.6100 O.2       2 ALA2        0.0000 
      4 N          37.8800  125.4300    8.2700 N.am      2 ALA2        0.0000 
      5 N          36.0900  126.4500    8.7800 N.am      2 ALA2        0.0000 
      6 O          41.5500  125.3500    8.1000 O.2       2 ALA2        0.0000 
      7 N          37.3700  125.7300   10.3100 N.am      2 ALA2        0.0000 
      8 N          36.7700  127.0600    9.9700 N.am      2 ALA2        0.0000 
      9 N          39.1600  127.7000    8.2700 N.am      2 ALA2        0.0000 
     10 N          40.3500  128.0100    7.4100 N.am      2 ALA2        0.0000 
     11 N          38.5600  129.0300    7.9200 N.am      2 ALA2        0.0000 
     12 N          37.4500  127.6800   11.1500 N.am      2 ALA2        0.0000 
     13 O          39.3300  128.6100   11.4900 O.2       2 ALA2        0.0000 
     14 O          39.9200  130.2600   10.2900 O.2       2 ALA2        0.0000 
     15 O          40.6100  130.8700   11.4800 O.2       2 ALA2        0.0000 
     16 O          40.0100  132.2000   11.1300 O.2       2 ALA2        0.0000 
     17 OD1        37.5400  120.6300    3.3700 O.co2     3 ASP3        0.0000 
     18 OD1        37.0300  120.9300    5.4100 O.co2     3 ASP3        0.0000 
     19 OD1        38.3900  125.1400    6.2400 O.co2     3 ASP3        0.0000 
     20 OD1        37.7900  126.4700    5.8900 O.co2     3 ASP3        0.0000 
     21 OD1        38.4800  127.0800    7.0800 O.co2     3 ASP3        0.0000 
     22 NZ         39.4200  121.5600    3.7000 N.4       4 LYS4        0.0000 
     23 NZ         40.1000  122.1800    4.8900 N.4       4 LYS4        0.0000 
     24 NZ         41.3000  122.4900    4.0400 N.4       4 LYS4        0.0000 
     25 NZ         35.3200  123.8900    6.7500 N.4       4 LYS4        0.0000 
     26 NZ         40.7800  122.7900    6.0800 N.4       4 LYS4        0.0000 
     27 CZ         38.9100  121.8600    5.7400 C.ar      5 PHE5        0.0000 
     28 CZ         37.1100  122.8700    6.2500 C.ar      5 PHE5        0.0000 
     29 CZ         38.3100  123.1900    5.4000 C.ar      5 PHE5        0.0000 
     30 CZ         39.5900  122.4700    6.9300 C.ar      5 PHE5        0.0000 
     31 CZ         37.8000  123.4900    7.4300 C.ar      5 PHE5        0.0000 
     32 CZ         38.9900  123.8100    6.5800 C.ar      5 PHE5        0.0000 
     33 CZ         37.2000  124.8200    7.0900 C.ar      5 PHE5        0.0000 
     34 CZ         41.4700  123.4100    7.2600 C.ar      5 PHE5        0.0000 
     35 CZ         38.4800  124.1000    8.6200 C.ar      5 PHE5        0.0000 
     36 CZ         39.6700  124.4200    7.7700 C.ar      5 PHE5        0.0000 
     37 CZ         40.9500  123.7000    9.3000 C.ar      5 PHE5        0.0000 
     38 CA         38.2200  121.2500    4.5600 C.3       6 GLY6        0.0000 
     39 CA         38.8200  122.8900    3.3600 C.3       6 GLY6        0.0000 
     40 CA         38.2200  124.2300    3.0100 C.3       6 GLY6        0.0000 
     41 CA         39.5000  123.5100    4.5500 C.3       6 GLY6        0.0000 
     42 CA         40.7000  123.8200    3.6900 C.3       6 GLY6        0.0000 
     43 CA         38.9000  124.8400    4.2000 C.3       6 GLY6        0.0000 
     44 CA         41.3800  121.4600    6.4200 C.3       6 GLY6        0.0000 
     45 CA         41.9800  123.1100    5.2300 C.3       6 GLY6        0.0000 
     46 CA         40.1800  124.1200    5.7300 C.3       6 GLY6        0.0000 
     47 CA         39.5900  125.4500    5.3900 C.3       6 GLY6        0.0000 
     48 CA         42.6600  123.7200    6.4100 C.3       6 GLY6        0.0000 
     49 CA         40.8700  124.7400    6.9200 C.3       6 GLY6        0.0000 
     50 CA         39.0700  125.7500    7.4200 C.3       6 GLY6        0.0000 
     51 CA         39.1600  124.7200    9.8100 C.3       6 GLY6        0.0000 
     52 CA         40.3600  125.0300    8.9500 C.3       6 GLY6        0.0000 
     53 CA         38.5600  126.0500    9.4600 C.3       6 GLY6        0.0000 
     54 CA         39.7600  126.3700    8.6100 C.3       6 GLY6        0.0000 
     55 CA         40.9500  126.6800    7.7600 C.3       6 GLY6        0.0000 
     56 CA         38.0500  126.3500   11.5000 C.3       6 GLY6        0.0000 
     57 CA         39.2500  126.6600   10.6500 C.3       6 GLY6        0.0000 
     58 CA         40.4400  126.9800    9.8000 C.3       6 GLY6        0.0000 
     59 CA         39.8400  128.3100    9.4500 C.3       6 GLY6        0.0000 
     60 CA         39.2400  129.6400    9.1100 C.3       6 GLY6        0.0000 
     61 CA         38.6400  130.9700    8.7600 C.3       6 GLY6        0.0000 
     62 CA         38.7300  126.9600   12.6800 C.3       6 GLY6        0.0000 
     63 CA         38.1300  128.2900   12.3400 C.3       6 GLY6        0.0000 
     64 CA         40.5200  128.9300   10.6400 C.3       6 GLY6        0.0000 
     65 CA         39.3200  131.5900    9.9500 C.3       6 GLY6        0.0000 
     66 DU         37.6300  122.5800    4.2100 H         7 CUB7        0.0000 
     67 DU         36.5200  124.2100    5.9000 H         7 CUB7        0.0000 
     68 DU         37.7100  124.5200    5.0500 H         7 CUB7        0.0000 
     69 DU         36.6000  126.1500    6.7400 H         7 CUB7        0.0000 
     70 DU         37.2800  126.7700    7.9300 H         7 CUB7        0.0000 
     71 DU         37.9600  127.3800    9.1200 H         7 CUB7        0.0000 
     72 DU         37.3600  128.7100    8.7700 H         7 CUB7        0.0000 
     73 DU         38.6500  127.9900   10.3000 H         7 CUB7        0.0000 
     74 DU         38.0500  129.3300    9.9600 H         7 CUB7        0.0000 
     75 DU         38.7300  129.9400   11.1400 H         7 CUB7        0.0000 
@<TRIPOS>BOND
@<TRIPOS>SUBSTRUCTURE
     1 SER1        1 GROUP   
     2 ALA2        2 GROUP   
     3 ASP3       17 GROUP   
     4 LYS4       22 GROUP   
     5 PHE5       27 GROUP   
     6 GLY6       38 GROUP   
     7 CUB7       66 GROUP   
@<TRIPOS>SET

