#    Name: 6gqx_3_GNP
#    Modification time : Fri May 22 19:26:03 2020

@<TRIPOS>MOLECULE
6gqx_3_GNP
   32    34     1     0     1
SMALL
NO_CHARGES


@<TRIPOS>ATOM
      1 PG         76.6710   93.7060   48.6820 P.3       1 GNP202      0.0000 
      2 O1G        76.1190   93.3320   47.3140 O.co2     1 GNP202      0.0000 
      3 O2G        77.7660   94.7560   48.3980 O.co2     1 GNP202      0.0000 
      4 O3G        77.2880   92.4170   49.2690 O.co2     1 GNP202      0.0000 
      5 N3B        75.4140   94.1380   49.6730 N.3       1 GNP202      0.0000 
      6 PB         74.4220   95.4330   49.4890 P.3       1 GNP202      0.0000 
      7 O1B        73.8550   95.3920   48.0930 O.co2     1 GNP202      0.0000 
      8 O2B        75.1010   96.7090   49.9180 O.co2     1 GNP202      0.0000 
      9 O3A        73.1900   95.0900   50.4500 O.3       1 GNP202      0.0000 
     10 PA         71.7140   94.5700   50.1880 P.3       1 GNP202      0.0000 
     11 O1A        71.1150   95.5930   49.3000 O.co2     1 GNP202      0.0000 
     12 O2A        71.6970   93.1330   49.7590 O.co2     1 GNP202      0.0000 
     13 O5'        71.0840   94.7190   51.6590 O.3       1 GNP202      0.0000 
     14 C5'        71.7080   94.1140   52.8170 C.3       1 GNP202      0.0000 
     15 C4'        70.6470   93.7990   53.8440 C.3       1 GNP202      0.0000 
     16 O4'        70.2490   95.0420   54.4620 O.3       1 GNP202      0.0000 
     17 C3'        69.3590   93.1600   53.3120 C.3       1 GNP202      0.0000 
     18 O3'        68.7710   92.1780   54.1690 O.3       1 GNP202      0.0000 
     19 C2'        68.4110   94.3580   53.1790 C.3       1 GNP202      0.0000 
     20 O2'        67.0630   93.9730   53.3670 O.3       1 GNP202      0.0000 
     21 C1'        68.8640   95.2450   54.3190 C.3       1 GNP202      0.0000 
     22 N9         68.6430   96.6600   54.0600 N.pl3     1 GNP202      0.0000 
     23 C8         69.1310   97.3860   53.0040 C.2       1 GNP202      0.0000 
     24 N7         68.7630   98.6430   53.0250 N.2       1 GNP202      0.0000 
     25 C5         67.9670   98.7460   54.1590 C.2       1 GNP202      0.0000 
     26 C6         67.2760   99.8600   54.6910 C.2       1 GNP202      0.0000 
     27 O6         67.2450  101.0230   54.2680 O.2       1 GNP202      0.0000 
     28 N1         66.5900   99.5220   55.8510 N.am      1 GNP202      0.0000 
     29 C2         66.5600   98.2750   56.4190 C.2       1 GNP202      0.0000 
     30 N2         65.8160   98.1260   57.5260 N.pl3     1 GNP202      0.0000 
     31 N3         67.1950   97.2230   55.9110 N.2       1 GNP202      0.0000 
     32 C4         67.8870   97.5320   54.7990 C.2       1 GNP202      0.0000 
@<TRIPOS>BOND
     1    1    2 ar   
     2    1    3 ar   
     3    1    4 ar   
     4    1    5 1    
     5    5    6 1    
     6    6    7 ar   
     7    6    8 ar   
     8    6    9 1    
     9    9   10 1    
    10   10   11 ar   
    11   10   12 ar   
    12   10   13 1    
    13   13   14 1    
    14   14   15 1    
    15   15   16 1    
    16   15   17 1    
    17   16   21 1    
    18   17   18 1    
    19   17   19 1    
    20   19   20 1    
    21   19   21 1    
    22   21   22 1    
    23   22   23 1    
    24   22   32 1    
    25   23   24 2    
    26   24   25 1    
    27   25   26 1    
    28   25   32 2    
    29   26   27 2    
    30   26   28 am   
    31   28   29 1    
    32   29   30 1    
    33   29   31 2    
    34   31   32 1    
@<TRIPOS>SUBSTRUCTURE
     1 GNP202      1 GROUP   
@<TRIPOS>SET
ATOM$ORANGE STATIC     ATOMS   COLORGROUP SYSTEM 
20 14 14 15 15 17 17 19 19 21 21 23 23 25 25 26 26 29 \
29 32 32 

