#    Name: 6cie_1_H4B
#    Modification time : Fri May 22 19:35:59 2020

@<TRIPOS>MOLECULE
6cie_1_H4B
   17    18     1     0     1
SMALL
NO_CHARGES


@<TRIPOS>ATOM
      1 N1         64.8420   22.9350 -178.1980 N.2       1 H4B502      0.0000 
      2 C2         64.6260   23.4500 -179.4300 C.2       1 H4B502      0.0000 
      3 N2         65.6770   24.0090 -180.0720 N.pl3     1 H4B502      0.0000 
      4 N3         63.3940   23.4100 -180.0040 N.am      1 H4B502      0.0000 
      5 C4         62.3530   22.8420 -179.3450 C.2       1 H4B502      0.0000 
      6 O4         61.2120   22.8030 -179.8710 O.2       1 H4B502      0.0000 
      7 C4A        62.5690   22.3090 -178.0720 C.2       1 H4B502      0.0000 
      8 C8A        63.8350   22.3640 -177.5130 C.2       1 H4B502      0.0000 
      9 N5         61.5750   21.7360 -177.3650 N.3       1 H4B502      0.0000 
     10 N8         64.0890   21.8620 -176.2760 N.pl3     1 H4B502      0.0000 
     11 C6         61.7150   21.6960 -175.9150 C.3       1 H4B502      0.0000 
     12 C7         63.0790   21.1490 -175.5060 C.3       1 H4B502      0.0000 
     13 C9         60.5680   20.9170 -175.2710 C.3       1 H4B502      0.0000 
     14 O9         60.4410   19.6350 -175.8850 O.3       1 H4B502      0.0000 
     15 C10        60.7820   20.7210 -173.7760 C.3       1 H4B502      0.0000 
     16 C11        59.5230   20.1450 -173.1330 C.3       1 H4B502      0.0000 
     17 O10        61.1300   21.9700 -173.1590 O.3       1 H4B502      0.0000 
@<TRIPOS>BOND
     1    1    2 2    
     2    1    8 1    
     3    2    3 1    
     4    2    4 1    
     5    4    5 am   
     6    5    6 2    
     7    5    7 1    
     8    7    8 2    
     9    7    9 1    
    10    8   10 1    
    11    9   11 1    
    12   10   12 1    
    13   11   12 1    
    14   11   13 1    
    15   13   14 1    
    16   13   15 1    
    17   15   16 1    
    18   15   17 1    
@<TRIPOS>SUBSTRUCTURE
     1 H4B502      1 GROUP   
@<TRIPOS>SET
ATOM$ORANGE STATIC     ATOMS   COLORGROUP SYSTEM 
18 2 2 5 5 7 7 8 8 11 11 12 12 13 13 15 15 16 \
16 

