#    Name: 6cie_1_H4B_CAVITY_N1_6
#    Modification time : Fri May 22 19:36:00 2020

@<TRIPOS>MOLECULE
6cie_1_H4B_CAVITY_N1_6
   48     0     6     0     0
SMALL
NO_CHARGES


@<TRIPOS>ATOM
      1 N          67.0100   24.1700 -181.3600 N.am      1 ALA2        0.0000 
      2 N          66.8300   23.1800 -180.2500 N.am      1 ALA2        0.0000 
      3 N          68.4100   23.6700 -181.5800 N.am      1 ALA2        0.0000 
      4 N          66.4900   27.6600 -182.3800 N.am      1 ALA2        0.0000 
      5 N          66.3100   26.6700 -181.2700 N.am      1 ALA2        0.0000 
      6 N          67.8900   27.1700 -182.6000 N.am      1 ALA2        0.0000 
      7 N          67.7100   26.1700 -181.4900 N.am      1 ALA2        0.0000 
      8 N          69.1000   25.6800 -181.7000 N.am      1 ALA2        0.0000 
      9 N          65.6000   29.1700 -181.1800 N.am      1 ALA2        0.0000 
     10 OD1        63.2000   23.1500 -182.9100 O.co2     2 ASP3        0.0000 
     11 NZ         63.3800   24.1400 -184.0200 N.4       3 LYS4        0.0000 
     12 NZ         65.4700   25.6400 -184.3500 N.4       3 LYS4        0.0000 
     13 NZ         65.2900   24.6500 -183.2500 N.4       3 LYS4        0.0000 
     14 NZ         66.1600   27.6500 -184.4800 N.4       3 LYS4        0.0000 
     15 NZ         65.9800   26.6500 -183.3700 N.4       3 LYS4        0.0000 
     16 NZ         67.5600   27.1500 -184.6900 N.4       3 LYS4        0.0000 
     17 NZ         67.3800   26.1600 -183.5800 N.4       3 LYS4        0.0000 
     18 CZ         63.7100   24.1600 -181.9200 C.ar      4 PHE5        0.0000 
     19 CZ         64.4000   26.1600 -182.0400 C.ar      4 PHE5        0.0000 
     20 CZ         64.2200   25.1600 -180.9300 C.ar      4 PHE5        0.0000 
     21 CZ         64.0300   24.1700 -179.8300 C.ar      4 PHE5        0.0000 
     22 CZ         65.6100   24.6700 -181.1500 C.ar      4 PHE5        0.0000 
     23 CZ         65.4300   23.6700 -180.0400 C.ar      4 PHE5        0.0000 
     24 CZ         63.6900   28.6600 -181.9500 C.ar      4 PHE5        0.0000 
     25 CZ         64.9100   27.1700 -181.0600 C.ar      4 PHE5        0.0000 
     26 CZ         66.1200   25.6800 -180.1600 C.ar      4 PHE5        0.0000 
     27 CA         62.6900   22.1400 -183.8900 C.3       5 GLY6        0.0000 
     28 CA         64.2700   22.6300 -185.2200 C.3       5 GLY6        0.0000 
     29 CA         64.7800   23.6400 -184.2300 C.3       5 GLY6        0.0000 
     30 CA         64.6000   22.6500 -183.1200 C.3       5 GLY6        0.0000 
     31 CA         66.0000   22.1500 -183.3400 C.3       5 GLY6        0.0000 
     32 CA         66.6900   24.1600 -183.4600 C.3       5 GLY6        0.0000 
     33 CA         68.2700   24.6500 -184.7800 C.3       5 GLY6        0.0000 
     34 CA         68.0900   23.6600 -183.6700 C.3       5 GLY6        0.0000 
     35 CA         67.9000   22.6700 -182.5600 C.3       5 GLY6        0.0000 
     36 CA         68.7800   25.6600 -183.8000 C.3       5 GLY6        0.0000 
     37 CA         68.6000   24.6700 -182.6900 C.3       5 GLY6        0.0000 
     38 CA         65.9400   24.6800 -179.0500 C.3       5 GLY6        0.0000 
     39 CA         69.2900   26.6700 -182.8100 C.3       5 GLY6        0.0000 
     40 CA         64.2000   29.6600 -180.9700 C.3       5 GLY6        0.0000 
     41 DU         63.8900   25.1500 -183.0300 H         6 CUB7        0.0000 
     42 DU         65.1100   23.6600 -182.1400 H         6 CUB7        0.0000 
     43 DU         66.5000   23.1600 -182.3500 H         6 CUB7        0.0000 
     44 DU         64.5800   27.1500 -183.1500 H         6 CUB7        0.0000 
     45 DU         65.8000   25.6600 -182.2600 H         6 CUB7        0.0000 
     46 DU         67.2000   25.1600 -182.4700 H         6 CUB7        0.0000 
     47 DU         65.0900   28.1600 -182.1700 H         6 CUB7        0.0000 
     48 DU         66.6700   28.6600 -183.4900 H         6 CUB7        0.0000 
@<TRIPOS>BOND
@<TRIPOS>SUBSTRUCTURE
     1 ALA2        1 GROUP   
     2 ASP3       10 GROUP   
     3 LYS4       11 GROUP   
     4 PHE5       18 GROUP   
     5 GLY6       27 GROUP   
     6 CUB7       41 GROUP   
@<TRIPOS>SET

