#    Name: 6cie_3_H4B_CAVITY_N1_6
#    Modification time : Fri May 22 19:36:09 2020

@<TRIPOS>MOLECULE
6cie_3_H4B_CAVITY_N1_6
   24     0     5     0     0
SMALL
NO_CHARGES


@<TRIPOS>ATOM
      1 N          94.2700  -31.3600 -200.2200 N.am      1 ALA2        0.0000 
      2 N          94.7800  -30.3600 -199.2300 N.am      1 ALA2        0.0000 
      3 N          94.6000  -31.3500 -198.1300 N.am      1 ALA2        0.0000 
      4 N          95.2900  -29.3500 -198.2500 N.am      1 ALA2        0.0000 
      5 NZ         93.7100  -29.8400 -196.9200 N.4       2 LYS4        0.0000 
      6 NZ         94.4000  -27.8400 -197.0500 N.4       2 LYS4        0.0000 
      7 NZ         95.8000  -28.3400 -197.2600 N.4       2 LYS4        0.0000 
      8 NZ         95.6200  -29.3300 -196.1500 N.4       2 LYS4        0.0000 
      9 CZ         92.8700  -30.8700 -200.0100 C.ar      3 PHE5        0.0000 
     10 CZ         91.9800  -29.3600 -198.8100 C.ar      3 PHE5        0.0000 
     11 CZ         93.3800  -29.8600 -199.0200 C.ar      3 PHE5        0.0000 
     12 CZ         92.6700  -27.3600 -198.9300 C.ar      3 PHE5        0.0000 
     13 CZ         92.4900  -28.3500 -197.8200 C.ar      3 PHE5        0.0000 
     14 CZ         94.0700  -27.8600 -199.1400 C.ar      3 PHE5        0.0000 
     15 CA         97.2000  -28.8300 -197.4800 C.3       4 GLY6        0.0000 
     16 CA         95.0900  -25.8400 -197.1700 C.3       4 GLY6        0.0000 
     17 CA         96.4900  -26.3400 -197.3800 C.3       4 GLY6        0.0000 
     18 CA         96.3100  -27.3300 -196.2800 C.3       4 GLY6        0.0000 
     19 CA         97.7100  -27.8300 -196.4900 C.3       4 GLY6        0.0000 
     20 DU         93.2000  -30.8500 -197.9100 H         5 CUB7        0.0000 
     21 DU         93.8900  -28.8500 -198.0300 H         5 CUB7        0.0000 
     22 DU         95.1100  -30.3400 -197.1400 H         5 CUB7        0.0000 
     23 DU         94.5800  -26.8500 -198.1600 H         5 CUB7        0.0000 
     24 DU         95.9800  -27.3500 -198.3700 H         5 CUB7        0.0000 
@<TRIPOS>BOND
@<TRIPOS>SUBSTRUCTURE
     1 ALA2        1 GROUP   
     2 LYS4        5 GROUP   
     3 PHE5        9 GROUP   
     4 GLY6       15 GROUP   
     5 CUB7       20 GROUP   
@<TRIPOS>SET

