#    Name: 6cie_1_H4B_CAVITY_N1_4
#    Modification time : Fri May 22 19:36:00 2020

@<TRIPOS>MOLECULE
6cie_1_H4B_CAVITY_N1_4
   26     0     6     0     0
SMALL
NO_CHARGES


@<TRIPOS>ATOM
      1 N          67.0100   24.1700 -181.3600 N.am      1 ALA2        0.0000 
      2 N          66.8300   23.1800 -180.2500 N.am      1 ALA2        0.0000 
      3 N          68.4100   23.6700 -181.5800 N.am      1 ALA2        0.0000 
      4 N          66.3100   26.6700 -181.2700 N.am      1 ALA2        0.0000 
      5 N          67.7100   26.1700 -181.4900 N.am      1 ALA2        0.0000 
      6 OD1        63.2000   23.1500 -182.9100 O.co2     2 ASP3        0.0000 
      7 NZ         65.2900   24.6500 -183.2500 N.4       3 LYS4        0.0000 
      8 CZ         63.7100   24.1600 -181.9200 C.ar      4 PHE5        0.0000 
      9 CZ         64.4000   26.1600 -182.0400 C.ar      4 PHE5        0.0000 
     10 CZ         64.2200   25.1600 -180.9300 C.ar      4 PHE5        0.0000 
     11 CZ         64.0300   24.1700 -179.8300 C.ar      4 PHE5        0.0000 
     12 CZ         65.6100   24.6700 -181.1500 C.ar      4 PHE5        0.0000 
     13 CZ         65.4300   23.6700 -180.0400 C.ar      4 PHE5        0.0000 
     14 CZ         64.9100   27.1700 -181.0600 C.ar      4 PHE5        0.0000 
     15 CZ         66.1200   25.6800 -180.1600 C.ar      4 PHE5        0.0000 
     16 CA         64.6000   22.6500 -183.1200 C.3       5 GLY6        0.0000 
     17 CA         66.0000   22.1500 -183.3400 C.3       5 GLY6        0.0000 
     18 CA         66.6900   24.1600 -183.4600 C.3       5 GLY6        0.0000 
     19 CA         67.9000   22.6700 -182.5600 C.3       5 GLY6        0.0000 
     20 CA         68.6000   24.6700 -182.6900 C.3       5 GLY6        0.0000 
     21 CA         65.9400   24.6800 -179.0500 C.3       5 GLY6        0.0000 
     22 DU         63.8900   25.1500 -183.0300 H         6 CUB7        0.0000 
     23 DU         65.1100   23.6600 -182.1400 H         6 CUB7        0.0000 
     24 DU         66.5000   23.1600 -182.3500 H         6 CUB7        0.0000 
     25 DU         65.8000   25.6600 -182.2600 H         6 CUB7        0.0000 
     26 DU         67.2000   25.1600 -182.4700 H         6 CUB7        0.0000 
@<TRIPOS>BOND
@<TRIPOS>SUBSTRUCTURE
     1 ALA2        1 GROUP   
     2 ASP3        6 GROUP   
     3 LYS4        7 GROUP   
     4 PHE5        8 GROUP   
     5 GLY6       16 GROUP   
     6 CUB7       22 GROUP   
@<TRIPOS>SET

