#    Name: 6cie_1_H4B_CAVITY_N1_8
#    Modification time : Fri May 22 19:36:00 2020

@<TRIPOS>MOLECULE
6cie_1_H4B_CAVITY_N1_8
   68     0     7     0     0
SMALL
NO_CHARGES


@<TRIPOS>ATOM
      1 OG         62.8000   30.1600 -180.7500 O.3       1 SER1        0.0000 
      2 OG         63.3100   31.1700 -179.7700 O.3       1 SER1        0.0000 
      3 N          67.0100   24.1700 -181.3600 N.am      2 ALA2        0.0000 
      4 N          66.8300   23.1800 -180.2500 N.am      2 ALA2        0.0000 
      5 N          68.4100   23.6700 -181.5800 N.am      2 ALA2        0.0000 
      6 N          66.4900   27.6600 -182.3800 N.am      2 ALA2        0.0000 
      7 N          66.3100   26.6700 -181.2700 N.am      2 ALA2        0.0000 
      8 N          68.2500   29.1500 -184.8200 N.am      2 ALA2        0.0000 
      9 O          68.0700   28.1600 -183.7100 O.2       2 ALA2        0.0000 
     10 N          67.8900   27.1700 -182.6000 N.am      2 ALA2        0.0000 
     11 N          67.7100   26.1700 -181.4900 N.am      2 ALA2        0.0000 
     12 N          69.1000   25.6800 -181.7000 N.am      2 ALA2        0.0000 
     13 N          65.9600   31.1500 -183.4000 N.am      2 ALA2        0.0000 
     14 N          65.6000   29.1700 -181.1800 N.am      2 ALA2        0.0000 
     15 N          67.3600   30.6600 -183.6100 N.am      2 ALA2        0.0000 
     16 N          68.7600   30.1600 -183.8300 N.am      2 ALA2        0.0000 
     17 O          66.2900   31.1700 -181.3000 O.2       2 ALA2        0.0000 
     18 OD1        63.2000   23.1500 -182.9100 O.co2     3 ASP3        0.0000 
     19 NZ         63.3800   24.1400 -184.0200 N.4       4 LYS4        0.0000 
     20 NZ         65.4700   25.6400 -184.3500 N.4       4 LYS4        0.0000 
     21 NZ         65.2900   24.6500 -183.2500 N.4       4 LYS4        0.0000 
     22 NZ         66.1600   27.6500 -184.4800 N.4       4 LYS4        0.0000 
     23 NZ         65.9800   26.6500 -183.3700 N.4       4 LYS4        0.0000 
     24 NZ         67.5600   27.1500 -184.6900 N.4       4 LYS4        0.0000 
     25 NZ         67.3800   26.1600 -183.5800 N.4       4 LYS4        0.0000 
     26 NZ         69.1400   27.6500 -186.0200 N.4       4 LYS4        0.0000 
     27 NZ         68.9600   26.6500 -184.9100 N.4       4 LYS4        0.0000 
     28 CZ         63.7100   24.1600 -181.9200 C.ar      5 PHE5        0.0000 
     29 CZ         64.4000   26.1600 -182.0400 C.ar      5 PHE5        0.0000 
     30 CZ         64.2200   25.1600 -180.9300 C.ar      5 PHE5        0.0000 
     31 CZ         64.0300   24.1700 -179.8300 C.ar      5 PHE5        0.0000 
     32 CZ         65.6100   24.6700 -181.1500 C.ar      5 PHE5        0.0000 
     33 CZ         65.4300   23.6700 -180.0400 C.ar      5 PHE5        0.0000 
     34 CZ         63.6900   28.6600 -181.9500 C.ar      5 PHE5        0.0000 
     35 CZ         64.9100   27.1700 -181.0600 C.ar      5 PHE5        0.0000 
     36 CZ         66.1200   25.6800 -180.1600 C.ar      5 PHE5        0.0000 
     37 CA         62.6900   22.1400 -183.8900 C.3       6 GLY6        0.0000 
     38 CA         64.2700   22.6300 -185.2200 C.3       6 GLY6        0.0000 
     39 CA         64.7800   23.6400 -184.2300 C.3       6 GLY6        0.0000 
     40 CA         64.6000   22.6500 -183.1200 C.3       6 GLY6        0.0000 
     41 CA         66.0000   22.1500 -183.3400 C.3       6 GLY6        0.0000 
     42 CA         66.6900   24.1600 -183.4600 C.3       6 GLY6        0.0000 
     43 CA         68.2700   24.6500 -184.7800 C.3       6 GLY6        0.0000 
     44 CA         68.0900   23.6600 -183.6700 C.3       6 GLY6        0.0000 
     45 CA         67.9000   22.6700 -182.5600 C.3       6 GLY6        0.0000 
     46 CA         68.7800   25.6600 -183.8000 C.3       6 GLY6        0.0000 
     47 CA         68.6000   24.6700 -182.6900 C.3       6 GLY6        0.0000 
     48 CA         70.3600   26.1600 -185.1200 C.3       6 GLY6        0.0000 
     49 CA         65.9400   24.6800 -179.0500 C.3       6 GLY6        0.0000 
     50 CA         69.6500   28.6600 -185.0300 C.3       6 GLY6        0.0000 
     51 CA         69.4700   27.6600 -183.9200 C.3       6 GLY6        0.0000 
     52 CA         69.2900   26.6700 -182.8100 C.3       6 GLY6        0.0000 
     53 CA         64.2000   29.6600 -180.9700 C.3       6 GLY6        0.0000 
     54 CA         65.7800   30.1600 -182.2900 C.3       6 GLY6        0.0000 
     55 CA         67.1800   29.6600 -182.5000 C.3       6 GLY6        0.0000 
     56 CA         68.5800   29.1700 -182.7200 C.3       6 GLY6        0.0000 
     57 CA         64.7100   30.6700 -179.9800 C.3       6 GLY6        0.0000 
     58 DU         63.8900   25.1500 -183.0300 H         7 CUB7        0.0000 
     59 DU         65.1100   23.6600 -182.1400 H         7 CUB7        0.0000 
     60 DU         66.5000   23.1600 -182.3500 H         7 CUB7        0.0000 
     61 DU         64.5800   27.1500 -183.1500 H         7 CUB7        0.0000 
     62 DU         65.8000   25.6600 -182.2600 H         7 CUB7        0.0000 
     63 DU         67.2000   25.1600 -182.4700 H         7 CUB7        0.0000 
     64 DU         65.2700   29.1500 -183.2800 H         7 CUB7        0.0000 
     65 DU         65.0900   28.1600 -182.1700 H         7 CUB7        0.0000 
     66 DU         66.8500   29.6500 -184.6000 H         7 CUB7        0.0000 
     67 DU         66.6700   28.6600 -183.4900 H         7 CUB7        0.0000 
     68 DU         64.8900   31.6700 -181.0900 H         7 CUB7        0.0000 
@<TRIPOS>BOND
@<TRIPOS>SUBSTRUCTURE
     1 SER1        1 GROUP   
     2 ALA2        3 GROUP   
     3 ASP3       18 GROUP   
     4 LYS4       19 GROUP   
     5 PHE5       28 GROUP   
     6 GLY6       37 GROUP   
     7 CUB7       58 GROUP   
@<TRIPOS>SET

