#    Name: 6cie_3_H4B_CAVITY_N1_8
#    Modification time : Fri May 22 19:36:09 2020

@<TRIPOS>MOLECULE
6cie_3_H4B_CAVITY_N1_8
   42     0     6     0     0
SMALL
NO_CHARGES


@<TRIPOS>ATOM
      1 OG         92.1800  -32.8700 -199.8800 O.3       1 SER1        0.0000 
      2 N          94.2700  -31.3600 -200.2200 N.am      2 ALA2        0.0000 
      3 N          94.0900  -32.3600 -199.1100 N.am      2 ALA2        0.0000 
      4 N          94.7800  -30.3600 -199.2300 N.am      2 ALA2        0.0000 
      5 N          94.6000  -31.3500 -198.1300 N.am      2 ALA2        0.0000 
      6 N          95.8100  -32.8400 -197.2300 N.am      2 ALA2        0.0000 
      7 N          95.2900  -29.3500 -198.2500 N.am      2 ALA2        0.0000 
      8 N          96.3200  -31.8300 -196.2400 N.am      2 ALA2        0.0000 
      9 O          97.9000  -31.3300 -197.5700 O.2       2 ALA2        0.0000 
     10 NZ         93.7100  -29.8400 -196.9200 N.4       3 LYS4        0.0000 
     11 NZ         94.4000  -27.8400 -197.0500 N.4       3 LYS4        0.0000 
     12 NZ         95.8000  -28.3400 -197.2600 N.4       3 LYS4        0.0000 
     13 NZ         95.6200  -29.3300 -196.1500 N.4       3 LYS4        0.0000 
     14 NZ         97.0100  -29.8300 -196.3700 N.4       3 LYS4        0.0000 
     15 NZ         96.8300  -30.8200 -195.2600 N.4       3 LYS4        0.0000 
     16 NZ         97.5200  -28.8200 -195.3800 N.4       3 LYS4        0.0000 
     17 CZ         92.8700  -30.8700 -200.0100 C.ar      4 PHE5        0.0000 
     18 CZ         91.9800  -29.3600 -198.8100 C.ar      4 PHE5        0.0000 
     19 CZ         93.3800  -29.8600 -199.0200 C.ar      4 PHE5        0.0000 
     20 CZ         92.6700  -27.3600 -198.9300 C.ar      4 PHE5        0.0000 
     21 CZ         92.4900  -28.3500 -197.8200 C.ar      4 PHE5        0.0000 
     22 CZ         94.0700  -27.8600 -199.1400 C.ar      4 PHE5        0.0000 
     23 CA         93.5800  -33.3700 -200.1000 C.3       5 GLY6        0.0000 
     24 CA         95.4900  -32.8500 -199.3300 C.3       5 GLY6        0.0000 
     25 CA         96.0000  -31.8500 -198.3400 C.3       5 GLY6        0.0000 
     26 CA         96.5100  -30.8400 -197.3500 C.3       5 GLY6        0.0000 
     27 CA         97.2000  -28.8300 -197.4800 C.3       5 GLY6        0.0000 
     28 CA         98.4100  -30.3200 -196.5800 C.3       5 GLY6        0.0000 
     29 CA         95.0900  -25.8400 -197.1700 C.3       5 GLY6        0.0000 
     30 CA         96.4900  -26.3400 -197.3800 C.3       5 GLY6        0.0000 
     31 CA         96.3100  -27.3300 -196.2800 C.3       5 GLY6        0.0000 
     32 CA         97.7100  -27.8300 -196.4900 C.3       5 GLY6        0.0000 
     33 CA         98.9200  -29.3200 -195.5900 C.3       5 GLY6        0.0000 
     34 DU         92.6900  -31.8600 -198.9000 H         6 CUB7        0.0000 
     35 DU         93.9100  -33.3500 -198.0000 H         6 CUB7        0.0000 
     36 DU         93.2000  -30.8500 -197.9100 H         6 CUB7        0.0000 
     37 DU         94.4100  -32.3400 -197.0200 H         6 CUB7        0.0000 
     38 DU         93.8900  -28.8500 -198.0300 H         6 CUB7        0.0000 
     39 DU         95.1100  -30.3400 -197.1400 H         6 CUB7        0.0000 
     40 DU         94.9200  -31.3300 -196.0300 H         6 CUB7        0.0000 
     41 DU         94.5800  -26.8500 -198.1600 H         6 CUB7        0.0000 
     42 DU         95.9800  -27.3500 -198.3700 H         6 CUB7        0.0000 
@<TRIPOS>BOND
@<TRIPOS>SUBSTRUCTURE
     1 SER1        1 GROUP   
     2 ALA2        2 GROUP   
     3 LYS4       10 GROUP   
     4 PHE5       17 GROUP   
     5 GLY6       23 GROUP   
     6 CUB7       34 GROUP   
@<TRIPOS>SET

