#    Name: 6cie_3_H4B_CAVITY_N1_4
#    Modification time : Fri May 22 19:36:09 2020

@<TRIPOS>MOLECULE
6cie_3_H4B_CAVITY_N1_4
    8     0     4     0     0
SMALL
NO_CHARGES


@<TRIPOS>ATOM
      1 NZ         94.4000  -27.8400 -197.0500 N.4       1 LYS4        0.0000 
      2 CZ         92.6700  -27.3600 -198.9300 C.ar      2 PHE5        0.0000 
      3 CZ         94.0700  -27.8600 -199.1400 C.ar      2 PHE5        0.0000 
      4 CA         95.0900  -25.8400 -197.1700 C.3       3 GLY6        0.0000 
      5 CA         96.4900  -26.3400 -197.3800 C.3       3 GLY6        0.0000 
      6 DU         93.8900  -28.8500 -198.0300 H         4 CUB7        0.0000 
      7 DU         94.5800  -26.8500 -198.1600 H         4 CUB7        0.0000 
      8 DU         95.9800  -27.3500 -198.3700 H         4 CUB7        0.0000 
@<TRIPOS>BOND
@<TRIPOS>SUBSTRUCTURE
     1 LYS4        1 GROUP   
     2 PHE5        2 GROUP   
     3 GLY6        4 GROUP   
     4 CUB7        6 GROUP   
@<TRIPOS>SET

