#    Name: 6cie_3_H4B_CAVITY_N1_12
#    Modification time : Fri May 22 19:36:09 2020

@<TRIPOS>MOLECULE
6cie_3_H4B_CAVITY_N1_12
   67     0     7     0     0
SMALL
NO_CHARGES


@<TRIPOS>ATOM
      1 OG         91.6700  -33.8800 -200.8700 O.3       1 SER1        0.0000 
      2 OG         92.1800  -32.8700 -199.8800 O.3       1 SER1        0.0000 
      3 N          90.6500  -35.9000 -202.8400 N.am      2 ALA2        0.0000 
      4 N          90.4700  -36.8900 -201.7300 N.am      2 ALA2        0.0000 
      5 N          94.2700  -31.3600 -200.2200 N.am      2 ALA2        0.0000 
      6 N          94.0900  -32.3600 -199.1100 N.am      2 ALA2        0.0000 
      7 N          94.7800  -30.3600 -199.2300 N.am      2 ALA2        0.0000 
      8 N          94.6000  -31.3500 -198.1300 N.am      2 ALA2        0.0000 
      9 N          95.8100  -32.8400 -197.2300 N.am      2 ALA2        0.0000 
     10 N          95.2900  -29.3500 -198.2500 N.am      2 ALA2        0.0000 
     11 N          96.3200  -31.8300 -196.2400 N.am      2 ALA2        0.0000 
     12 O          97.9000  -31.3300 -197.5700 O.2       2 ALA2        0.0000 
     13 N          97.7200  -32.3300 -196.4600 N.am      2 ALA2        0.0000 
     14 O          98.2300  -31.3200 -195.4700 O.2       2 ALA2        0.0000 
     15 OD1        89.2900  -33.4300 -206.9400 O.co2     3 ASP3        0.0000 
     16 NZ         93.7100  -29.8400 -196.9200 N.4       4 LYS4        0.0000 
     17 NZ         94.4000  -27.8400 -197.0500 N.4       4 LYS4        0.0000 
     18 NZ         95.8000  -28.3400 -197.2600 N.4       4 LYS4        0.0000 
     19 NZ         95.6200  -29.3300 -196.1500 N.4       4 LYS4        0.0000 
     20 NZ         97.0100  -29.8300 -196.3700 N.4       4 LYS4        0.0000 
     21 NZ         96.8300  -30.8200 -195.2600 N.4       4 LYS4        0.0000 
     22 NZ         97.5200  -28.8200 -195.3800 N.4       4 LYS4        0.0000 
     23 NZ         98.7400  -30.3100 -194.4900 N.4       4 LYS4        0.0000 
     24 CZ         87.7100  -33.9300 -205.6200 C.ar      5 PHE5        0.0000 
     25 CZ         89.1100  -34.4200 -205.8300 C.ar      5 PHE5        0.0000 
     26 CZ         88.9300  -35.4200 -204.7200 C.ar      5 PHE5        0.0000 
     27 CZ         92.8700  -30.8700 -200.0100 C.ar      5 PHE5        0.0000 
     28 CZ         91.9800  -29.3600 -198.8100 C.ar      5 PHE5        0.0000 
     29 CZ         93.3800  -29.8600 -199.0200 C.ar      5 PHE5        0.0000 
     30 CZ         92.6700  -27.3600 -198.9300 C.ar      5 PHE5        0.0000 
     31 CZ         92.4900  -28.3500 -197.8200 C.ar      5 PHE5        0.0000 
     32 CZ         94.0700  -27.8600 -199.1400 C.ar      5 PHE5        0.0000 
     33 CA         87.2000  -34.9400 -206.6100 C.3       6 GLY6        0.0000 
     34 CA         88.7800  -34.4400 -207.9300 C.3       6 GLY6        0.0000 
     35 CA         92.0500  -36.3900 -203.0600 C.3       6 GLY6        0.0000 
     36 CA         91.1600  -34.8900 -201.8600 C.3       6 GLY6        0.0000 
     37 CA         90.9800  -35.8800 -200.7500 C.3       6 GLY6        0.0000 
     38 CA         92.5600  -35.3800 -202.0700 C.3       6 GLY6        0.0000 
     39 CA         92.3800  -36.3800 -200.9600 C.3       6 GLY6        0.0000 
     40 CA         91.4900  -34.8700 -199.7600 C.3       6 GLY6        0.0000 
     41 CA         93.0700  -34.3800 -201.0800 C.3       6 GLY6        0.0000 
     42 CA         93.5800  -33.3700 -200.1000 C.3       6 GLY6        0.0000 
     43 CA         94.8000  -34.8600 -199.2000 C.3       6 GLY6        0.0000 
     44 CA         95.4900  -32.8500 -199.3300 C.3       6 GLY6        0.0000 
     45 CA         95.3000  -33.8500 -198.2200 C.3       6 GLY6        0.0000 
     46 CA         96.0000  -31.8500 -198.3400 C.3       6 GLY6        0.0000 
     47 CA         96.5100  -30.8400 -197.3500 C.3       6 GLY6        0.0000 
     48 CA         97.2000  -28.8300 -197.4800 C.3       6 GLY6        0.0000 
     49 CA         98.4100  -30.3200 -196.5800 C.3       6 GLY6        0.0000 
     50 CA         95.0900  -25.8400 -197.1700 C.3       6 GLY6        0.0000 
     51 CA         96.4900  -26.3400 -197.3800 C.3       6 GLY6        0.0000 
     52 CA         96.3100  -27.3300 -196.2800 C.3       6 GLY6        0.0000 
     53 CA         97.7100  -27.8300 -196.4900 C.3       6 GLY6        0.0000 
     54 CA         98.9200  -29.3200 -195.5900 C.3       6 GLY6        0.0000 
     55 CA        100.1400  -30.8000 -194.7000 C.3       6 GLY6        0.0000 
     56 DU         88.6000  -35.4300 -206.8200 H         7 CUB7        0.0000 
     57 DU         90.1800  -34.9400 -208.1400 H         7 CUB7        0.0000 
     58 DU         93.4000  -34.3600 -198.9900 H         7 CUB7        0.0000 
     59 DU         92.6900  -31.8600 -198.9000 H         7 CUB7        0.0000 
     60 DU         93.9100  -33.3500 -198.0000 H         7 CUB7        0.0000 
     61 DU         93.2000  -30.8500 -197.9100 H         7 CUB7        0.0000 
     62 DU         94.4100  -32.3400 -197.0200 H         7 CUB7        0.0000 
     63 DU         93.8900  -28.8500 -198.0300 H         7 CUB7        0.0000 
     64 DU         95.1100  -30.3400 -197.1400 H         7 CUB7        0.0000 
     65 DU         94.9200  -31.3300 -196.0300 H         7 CUB7        0.0000 
     66 DU         94.5800  -26.8500 -198.1600 H         7 CUB7        0.0000 
     67 DU         95.9800  -27.3500 -198.3700 H         7 CUB7        0.0000 
@<TRIPOS>BOND
@<TRIPOS>SUBSTRUCTURE
     1 SER1        1 GROUP   
     2 ALA2        3 GROUP   
     3 ASP3       15 GROUP   
     4 LYS4       16 GROUP   
     5 PHE5       24 GROUP   
     6 GLY6       33 GROUP   
     7 CUB7       56 GROUP   
@<TRIPOS>SET

