#    Name: 6cie_3_H4B
#    Modification time : Fri May 22 19:36:08 2020

@<TRIPOS>MOLECULE
6cie_3_H4B
   17    18     1     0     1
SMALL
NO_CHARGES


@<TRIPOS>ATOM
      1 N1         94.0740  -24.8530 -202.3260 N.2       1 H4B502      0.0000 
      2 C2         93.8790  -25.3930 -201.0920 C.2       1 H4B502      0.0000 
      3 N2         94.9270  -25.9420 -200.4390 N.pl3     1 H4B502      0.0000 
      4 N3         92.6540  -25.3930 -200.5210 N.am      1 H4B502      0.0000 
      5 C4         91.6000  -24.8470 -201.1680 C.2       1 H4B502      0.0000 
      6 O4         90.4660  -24.8410 -200.6330 O.2       1 H4B502      0.0000 
      7 C4A        91.7860  -24.2930 -202.4280 C.2       1 H4B502      0.0000 
      8 C8A        93.0460  -24.3020 -203.0000 C.2       1 H4B502      0.0000 
      9 N5         90.7600  -23.7410 -203.0990 N.3       1 H4B502      0.0000 
     10 N8         93.2620  -23.7760 -204.2300 N.pl3     1 H4B502      0.0000 
     11 C6         90.8610  -23.6950 -204.5460 C.3       1 H4B502      0.0000 
     12 C7         92.2040  -23.1270 -204.9950 C.3       1 H4B502      0.0000 
     13 C9         89.6930  -22.9470 -205.1850 C.3       1 H4B502      0.0000 
     14 O9         89.5940  -21.5840 -204.7530 O.3       1 H4B502      0.0000 
     15 C10        89.8880  -22.9380 -206.6860 C.3       1 H4B502      0.0000 
     16 C11        88.6270  -22.4170 -207.3480 C.3       1 H4B502      0.0000 
     17 O10        90.1720  -24.2710 -207.1170 O.3       1 H4B502      0.0000 
@<TRIPOS>BOND
     1    1    2 2    
     2    1    8 1    
     3    2    3 1    
     4    2    4 1    
     5    4    5 am   
     6    5    6 2    
     7    5    7 1    
     8    7    8 2    
     9    7    9 1    
    10    8   10 1    
    11    9   11 1    
    12   10   12 1    
    13   11   12 1    
    14   11   13 1    
    15   13   14 1    
    16   13   15 1    
    17   15   16 1    
    18   15   17 1    
@<TRIPOS>SUBSTRUCTURE
     1 H4B502      1 GROUP   
@<TRIPOS>SET
ATOM$ORANGE STATIC     ATOMS   COLORGROUP SYSTEM 
18 2 2 5 5 7 7 8 8 11 11 12 12 13 13 15 15 16 \
16 

