#    Name: 6dux_1_NAD_CAVITY_N1_8
#    Modification time : Fri May 22 19:26:03 2020

@<TRIPOS>MOLECULE
6dux_1_NAD_CAVITY_N1_8
  103     0     7     0     0
SMALL
NO_CHARGES


@<TRIPOS>ATOM
      1 OG         23.5200   28.1400   30.1000 O.3       1 SER1        0.0000 
      2 OG         25.4200   28.4600   24.2300 O.3       1 SER1        0.0000 
      3 OG         25.1100   29.1700   29.1400 O.3       1 SER1        0.0000 
      4 OG         26.3900   29.7900   29.5900 O.3       1 SER1        0.0000 
      5 OG         27.1000   28.4900   29.3700 O.3       1 SER1        0.0000 
      6 OG         27.6800   30.4200   30.0400 O.3       1 SER1        0.0000 
      7 O          21.1300   29.4000   25.1900 O.2       2 ALA2        0.0000 
      8 O          21.8400   28.1000   24.9700 O.2       2 ALA2        0.0000 
      9 N          22.5500   26.8000   24.7400 N.am      2 ALA2        0.0000 
     10 N          23.5400   27.0200   26.6000 N.am      2 ALA2        0.0000 
     11 O          22.4100   30.0300   25.6400 O.2       2 ALA2        0.0000 
     12 O          23.1200   28.7300   25.4100 O.2       2 ALA2        0.0000 
     13 O          23.8400   27.4300   25.1900 O.2       2 ALA2        0.0000 
     14 O          23.4200   29.1300   24.0000 O.2       2 ALA2        0.0000 
     15 N          25.5400   26.3400   26.8300 N.am      2 ALA2        0.0000 
     16 N          25.8300   26.7500   25.4100 N.am      2 ALA2        0.0000 
     17 N          25.8200   27.8700   28.9200 N.am      2 ALA2        0.0000 
     18 N          27.8200   27.1900   29.1400 N.am      2 ALA2        0.0000 
     19 O          32.3600   20.9000   29.8800 O.2       2 ALA2        0.0000 
     20 O          29.8100   26.5100   29.3700 O.2       2 ALA2        0.0000 
     21 O          30.5200   25.2100   29.1400 O.2       2 ALA2        0.0000 
     22 N          32.6600   21.3100   28.4700 N.am      2 ALA2        0.0000 
     23 O          31.5300   24.3200   27.5000 O.2       2 ALA2        0.0000 
     24 N          32.9500   21.7100   27.0500 N.am      2 ALA2        0.0000 
     25 O          30.8000   26.7300   31.2300 O.2       2 ALA2        0.0000 
     26 N          33.2300   23.2300   29.1400 N.am      2 ALA2        0.0000 
     27 N          32.1100   26.2400   28.1800 N.am      2 ALA2        0.0000 
     28 N          32.8200   24.9400   27.9500 N.am      2 ALA2        0.0000 
     29 OD1        23.4000   30.2500   27.5000 O.co2     3 ASP3        0.0000 
     30 OD1        24.1200   28.9500   27.2800 O.co2     3 ASP3        0.0000 
     31 OD1        23.7000   30.6600   26.0900 O.co2     3 ASP3        0.0000 
     32 OD1        24.4100   29.3500   25.8600 O.co2     3 ASP3        0.0000 
     33 OD1        25.1200   28.0500   25.6400 O.co2     3 ASP3        0.0000 
     34 OD1        24.6900   30.8700   27.9500 O.co2     3 ASP3        0.0000 
     35 OD1        25.4000   29.5700   27.7300 O.co2     3 ASP3        0.0000 
     36 OD1        26.1100   28.2700   27.5000 O.co2     3 ASP3        0.0000 
     37 OD1        26.4100   28.6800   26.0900 O.co2     3 ASP3        0.0000 
     38 OD1        26.6900   30.2000   28.1800 O.co2     3 ASP3        0.0000 
     39 OD1        27.4000   28.9000   27.9500 O.co2     3 ASP3        0.0000 
     40 OD1        28.6900   29.5200   28.4000 O.co2     3 ASP3        0.0000 
     41 OD1        30.3900   28.4400   30.0400 O.co2     3 ASP3        0.0000 
     42 OD1        31.1000   27.1400   29.8100 O.co2     3 ASP3        0.0000 
     43 OD1        32.3900   27.7600   30.2600 O.co2     3 ASP3        0.0000 
     44 NZ         18.4000   32.5000   28.6900 N.4       4 LYS4        0.0000 
     45 NZ         19.1100   31.2000   28.4700 N.4       4 LYS4        0.0000 
     46 NZ         17.9900   34.2100   27.5000 N.4       4 LYS4        0.0000 
     47 NZ         18.7000   32.9000   27.2800 N.4       4 LYS4        0.0000 
     48 NZ         19.4100   31.6000   27.0500 N.4       4 LYS4        0.0000 
     49 NZ         20.1200   30.3000   26.8300 N.4       4 LYS4        0.0000 
     50 NZ         19.7100   32.0100   25.6400 N.4       4 LYS4        0.0000 
     51 NZ         20.4200   30.7100   25.4100 N.4       4 LYS4        0.0000 
     52 NZ         31.6500   22.2000   30.1000 N.4       4 LYS4        0.0000 
     53 NZ         31.5100   25.4300   31.0000 N.4       4 LYS4        0.0000 
     54 NZ         31.8100   25.8400   29.5900 N.4       4 LYS4        0.0000 
     55 NZ         32.5200   24.5300   29.3700 N.4       4 LYS4        0.0000 
     56 NZ         32.8000   26.0600   31.4500 N.4       4 LYS4        0.0000 
     57 NZ         33.8100   25.1600   29.8100 N.4       4 LYS4        0.0000 
     58 CZ         18.9900   33.3100   25.8600 C.ar      5 PHE5        0.0000 
     59 CZ         21.5200   28.8100   29.8800 C.ar      5 PHE5        0.0000 
     60 CZ         18.9800   34.4200   29.3700 C.ar      5 PHE5        0.0000 
     61 CZ         20.4000   31.8200   28.9200 C.ar      5 PHE5        0.0000 
     62 CZ         21.1100   30.5200   28.6900 C.ar      5 PHE5        0.0000 
     63 CZ         19.2700   34.8300   27.9500 C.ar      5 PHE5        0.0000 
     64 CZ         19.9900   33.5300   27.7300 C.ar      5 PHE5        0.0000 
     65 CZ         20.7000   32.2300   27.5000 C.ar      5 PHE5        0.0000 
     66 CZ         20.2800   33.9300   26.3100 C.ar      5 PHE5        0.0000 
     67 CZ         22.8100   29.4400   30.3300 C.ar      5 PHE5        0.0000 
     68 CZ         23.1100   29.8400   28.9200 C.ar      5 PHE5        0.0000 
     69 CZ         23.8200   28.5400   28.6900 C.ar      5 PHE5        0.0000 
     70 CZ         21.9800   32.8500   27.9500 C.ar      5 PHE5        0.0000 
     71 CZ         22.6900   31.5500   27.7300 C.ar      5 PHE5        0.0000 
     72 CA         22.2400   27.5100   29.6500 C.3       6 GLY6        0.0000 
     73 CA         22.5300   27.9200   28.2400 C.3       6 GLY6        0.0000 
     74 CA         23.2400   26.6100   28.0200 C.3       6 GLY6        0.0000 
     75 CA         24.2500   25.7200   26.3800 C.3       6 GLY6        0.0000 
     76 CA         24.5500   26.1200   24.9700 C.3       6 GLY6        0.0000 
     77 CA         24.1300   27.8300   23.7800 C.3       6 GLY6        0.0000 
     78 CA         24.5300   27.2400   28.4700 C.3       6 GLY6        0.0000 
     79 CA         26.8200   26.9700   27.2800 C.3       6 GLY6        0.0000 
     80 CA         27.1200   27.3800   25.8600 C.3       6 GLY6        0.0000 
     81 CA         31.0700   20.2800   29.4300 C.3       6 GLY6        0.0000 
     82 CA         31.3700   20.6800   28.0200 C.3       6 GLY6        0.0000 
     83 CA         32.0800   19.3800   27.7900 C.3       6 GLY6        0.0000 
     84 CA         28.1100   27.6000   27.7300 C.3       6 GLY6        0.0000 
     85 CA         31.6700   21.0900   26.6000 C.3       6 GLY6        0.0000 
     86 CA         29.5200   26.1100   30.7800 C.3       6 GLY6        0.0000 
     87 CA         30.2300   24.8100   30.5500 C.3       6 GLY6        0.0000 
     88 CA         30.9400   23.5000   30.3300 C.3       6 GLY6        0.0000 
     89 CA         28.3900   29.1200   29.8100 C.3       6 GLY6        0.0000 
     90 CA         29.1000   27.8100   29.5900 C.3       6 GLY6        0.0000 
     91 CA         31.2300   23.9100   28.9200 C.3       6 GLY6        0.0000 
     92 CA         31.9500   22.6100   28.6900 C.3       6 GLY6        0.0000 
     93 CA         29.4000   28.2200   28.1800 C.3       6 GLY6        0.0000 
     94 CA         32.2400   23.0100   27.2800 C.3       6 GLY6        0.0000 
     95 CA         31.4000   27.5400   28.4000 C.3       6 GLY6        0.0000 
     96 CA         33.1000   26.4600   30.0400 C.3       6 GLY6        0.0000 
     97 DU         21.8200   29.2200   28.4700 H         7 CUB7        0.0000 
     98 DU         21.4100   30.9300   27.2800 H         7 CUB7        0.0000 
     99 DU         22.1200   29.6200   27.0500 H         7 CUB7        0.0000 
    100 DU         22.8300   28.3200   26.8300 H         7 CUB7        0.0000 
    101 DU         20.9900   32.6300   26.0900 H         7 CUB7        0.0000 
    102 DU         21.7000   31.3300   25.8600 H         7 CUB7        0.0000 
    103 DU         24.8300   27.6500   27.0500 H         7 CUB7        0.0000 
@<TRIPOS>BOND
@<TRIPOS>SUBSTRUCTURE
     1 SER1        1 GROUP   
     2 ALA2        7 GROUP   
     3 ASP3       29 GROUP   
     4 LYS4       44 GROUP   
     5 PHE5       58 GROUP   
     6 GLY6       72 GROUP   
     7 CUB7       97 GROUP   
@<TRIPOS>SET

