#    Name: 6dux_1_NAD
#    Modification time : Fri May 22 19:26:00 2020

@<TRIPOS>MOLECULE
6dux_1_NAD
   44    48     1     0     1
SMALL
NO_CHARGES


@<TRIPOS>ATOM
      1 PA         28.9180   29.5670   29.6630 P.3       1 NAD501      0.0000 
      2 O1A        29.5250   30.0000   28.3610 O.co2     1 NAD501      0.0000 
      3 O2A        28.6940   30.5570   30.7910 O.co2     1 NAD501      0.0000 
      4 O5B        29.8170   28.3410   30.2010 O.3       1 NAD501      0.0000 
      5 C5B        30.0460   27.2210   29.3440 C.3       1 NAD501      0.0000 
      6 C4B        30.7150   26.0830   30.1020 C.3       1 NAD501      0.0000 
      7 O4B        30.7250   24.8900   29.3080 O.3       1 NAD501      0.0000 
      8 C3B        32.1770   26.3880   30.4460 C.3       1 NAD501      0.0000 
      9 O3B        32.3940   26.1820   31.8440 O.3       1 NAD501      0.0000 
     10 C2B        32.9800   25.4090   29.6170 C.3       1 NAD501      0.0000 
     11 O2B        34.2170   25.0200   30.2230 O.3       1 NAD501      0.0000 
     12 C1B        31.9890   24.2530   29.5140 C.3       1 NAD501      0.0000 
     13 N9A        32.3050   23.2700   28.4570 N.pl3     1 NAD501      0.0000 
     14 C8A        32.6710   23.5380   27.1860 C.2       1 NAD501      0.0000 
     15 N7A        32.8920   22.3820   26.4970 N.2       1 NAD501      0.0000 
     16 C5A        32.6500   21.3600   27.3440 C.ar      1 NAD501      0.0000 
     17 C6A        32.6850   19.8950   27.2580 C.ar      1 NAD501      0.0000 
     18 N6A        33.0260   19.3020   26.0880 N.pl3     1 NAD501      0.0000 
     19 N1A        32.3830   19.1770   28.3650 N.ar      1 NAD501      0.0000 
     20 C2A        32.0410   19.7740   29.5280 C.ar      1 NAD501      0.0000 
     21 N3A        31.9840   21.1180   29.6680 N.ar      1 NAD501      0.0000 
     22 C4A        32.2730   21.9460   28.6310 C.ar      1 NAD501      0.0000 
     23 O3         27.5520   28.7760   29.3750 O.3       1 NAD501      0.0000 
     24 PN         26.1890   29.4410   28.8620 P.3       1 NAD501      0.0000 
     25 O1N        26.4600   30.9120   28.5960 O.co2     1 NAD501      0.0000 
     26 O2N        25.1080   29.0070   29.8190 O.co2     1 NAD501      0.0000 
     27 O5D        25.9220   28.6710   27.4590 O.3       1 NAD501      0.0000 
     28 C5D        25.8380   27.2420   27.3660 C.3       1 NAD501      0.0000 
     29 C4D        25.0230   26.8220   26.1380 C.3       1 NAD501      0.0000 
     30 O4D        23.6160   26.9210   26.3900 O.3       1 NAD501      0.0000 
     31 C3D        25.2850   27.7070   24.9320 C.3       1 NAD501      0.0000 
     32 O3D        25.2450   26.9110   23.7410 O.3       1 NAD501      0.0000 
     33 C2D        24.1720   28.7330   24.9700 C.3       1 NAD501      0.0000 
     34 O2D        23.8080   29.1880   23.6670 O.3       1 NAD501      0.0000 
     35 C1D        23.0230   28.0110   25.6640 C.3       1 NAD501      0.0000 
     36 N1N        22.2790   28.8840   26.5840 N.pl3     1 NAD501      0.0000 
     37 C2N        22.0670   28.4440   27.8360 C.ar      1 NAD501      0.0000 
     38 C3N        21.3700   29.2080   28.7710 C.ar      1 NAD501      0.0000 
     39 C7N        21.1800   28.6350   30.1510 C.2       1 NAD501      0.0000 
     40 O7N        20.0950   28.7210   30.7080 O.2       1 NAD501      0.0000 
     41 N7N        22.2200   28.0190   30.7290 N.am      1 NAD501      0.0000 
     42 C4N        20.8800   30.4600   28.3980 C.ar      1 NAD501      0.0000 
     43 C5N        21.1050   30.9070   27.0910 C.ar      1 NAD501      0.0000 
     44 C6N        21.8110   30.0930   26.1960 C.ar      1 NAD501      0.0000 
@<TRIPOS>BOND
     1    1    2 ar   
     2    1    3 ar   
     3    1    4 1    
     4    1   23 1    
     5    4    5 1    
     6    5    6 1    
     7    6    7 1    
     8    6    8 1    
     9    7   12 1    
    10    8    9 1    
    11    8   10 1    
    12   10   11 1    
    13   10   12 1    
    14   12   13 1    
    15   13   14 1    
    16   13   22 1    
    17   14   15 2    
    18   15   16 1    
    19   16   17 ar   
    20   16   22 ar   
    21   17   18 1    
    22   17   19 ar   
    23   19   20 ar   
    24   20   21 ar   
    25   21   22 ar   
    26   23   24 1    
    27   24   25 ar   
    28   24   26 ar   
    29   24   27 1    
    30   27   28 1    
    31   28   29 1    
    32   29   30 1    
    33   29   31 1    
    34   30   35 1    
    35   31   32 1    
    36   31   33 1    
    37   33   34 1    
    38   33   35 1    
    39   35   36 1    
    40   36   37 ar   
    41   36   44 ar   
    42   37   38 ar   
    43   38   39 1    
    44   38   42 ar   
    45   39   40 2    
    46   39   41 am   
    47   42   43 ar   
    48   43   44 ar   
@<TRIPOS>SUBSTRUCTURE
     1 NAD501      1 GROUP   
@<TRIPOS>SET
ATOM$ORANGE STATIC     ATOMS   COLORGROUP SYSTEM 
42 5 5 6 6 8 8 10 10 12 12 14 14 16 16 17 17 20 \
20 22 22 28 28 29 29 31 31 33 33 35 35 37 37 38 38 39 \
39 42 42 43 43 44 44 

