#    Name: 6dux_2_NAD
#    Modification time : Fri May 22 19:26:08 2020

@<TRIPOS>MOLECULE
6dux_2_NAD
   44    48     1     0     1
SMALL
NO_CHARGES


@<TRIPOS>ATOM
      1 PA        -31.8640    2.1530   13.1380 P.3       1 NAD501      0.0000 
      2 O1A       -31.3580    1.1910   12.0930 O.co2     1 NAD501      0.0000 
      3 O2A       -32.7130    1.6500   14.2850 O.co2     1 NAD501      0.0000 
      4 O5B       -32.6690    3.3190   12.3740 O.3       1 NAD501      0.0000 
      5 C5B       -32.0660    4.1000   11.3410 C.3       1 NAD501      0.0000 
      6 C4B       -32.9070    5.3420   11.0640 C.3       1 NAD501      0.0000 
      7 O4B       -32.2710    6.2220   10.1190 O.3       1 NAD501      0.0000 
      8 C3B       -34.2760    4.9840   10.4760 C.3       1 NAD501      0.0000 
      9 O3B       -35.3140    5.5840   11.2600 O.3       1 NAD501      0.0000 
     10 C2B       -34.2650    5.5580    9.0750 C.3       1 NAD501      0.0000 
     11 O2B       -35.5690    5.9840    8.6560 O.3       1 NAD501      0.0000 
     12 C1B       -33.2600    6.7030    9.2000 C.3       1 NAD501      0.0000 
     13 N9A       -32.6630    7.1070    7.9060 N.pl3     1 NAD501      0.0000 
     14 C8A       -32.1660    6.2920    6.9560 C.2       1 NAD501      0.0000 
     15 N7A       -31.7000    7.0160    5.9080 N.2       1 NAD501      0.0000 
     16 C5A       -31.8970    8.3190    6.1810 C.ar      1 NAD501      0.0000 
     17 C6A       -31.6340    9.6110    5.4990 C.ar      1 NAD501      0.0000 
     18 N6A       -31.0460    9.6640    4.2710 N.pl3     1 NAD501      0.0000 
     19 N1A       -32.0020   10.7430    6.1470 N.ar      1 NAD501      0.0000 
     20 C2A       -32.5820   10.7200    7.3690 C.ar      1 NAD501      0.0000 
     21 N3A       -32.8450    9.5770    8.0360 N.ar      1 NAD501      0.0000 
     22 C4A       -32.5320    8.3700    7.5020 C.ar      1 NAD501      0.0000 
     23 O3        -30.6320    2.9730   13.7720 O.3       1 NAD501      0.0000 
     24 PN        -29.2710    2.2950   14.3090 P.3       1 NAD501      0.0000 
     25 O1N       -28.8040    3.1400   15.4770 O.co2     1 NAD501      0.0000 
     26 O2N       -29.4600    0.7990   14.4730 O.co2     1 NAD501      0.0000 
     27 O5D       -28.2470    2.5460   13.0830 O.3       1 NAD501      0.0000 
     28 C5D       -27.8550    3.8630   12.6690 C.3       1 NAD501      0.0000 
     29 C4D       -26.4050    3.8830   12.1840 C.3       1 NAD501      0.0000 
     30 O4D       -25.4940    4.0480   13.2840 O.3       1 NAD501      0.0000 
     31 C3D       -26.0170    2.5810   11.5040 C.3       1 NAD501      0.0000 
     32 O3D       -25.1480    2.8270   10.3990 O.3       1 NAD501      0.0000 
     33 C2D       -25.2960    1.7940   12.5730 C.3       1 NAD501      0.0000 
     34 O2D       -24.2850    0.9760   11.9890 O.3       1 NAD501      0.0000 
     35 C1D       -24.7360    2.8490   13.5270 C.3       1 NAD501      0.0000 
     36 N1N       -24.8580    2.4530   14.9410 N.pl3     1 NAD501      0.0000 
     37 C2N       -25.2940    3.3620   15.8320 C.ar      1 NAD501      0.0000 
     38 C3N       -25.4310    3.0460   17.1810 C.ar      1 NAD501      0.0000 
     39 C7N       -25.9250    4.1050   18.1330 C.2       1 NAD501      0.0000 
     40 O7N       -26.8460    4.8380   17.7950 O.2       1 NAD501      0.0000 
     41 N7N       -25.3390    4.2300   19.3240 N.am      1 NAD501      0.0000 
     42 C4N       -25.1060    1.7620   17.6140 C.ar      1 NAD501      0.0000 
     43 C5N       -24.6530    0.8330   16.6810 C.ar      1 NAD501      0.0000 
     44 C6N       -24.5350    1.2060   15.3420 C.ar      1 NAD501      0.0000 
@<TRIPOS>BOND
     1    1    2 ar   
     2    1    3 ar   
     3    1    4 1    
     4    1   23 1    
     5    4    5 1    
     6    5    6 1    
     7    6    7 1    
     8    6    8 1    
     9    7   12 1    
    10    8    9 1    
    11    8   10 1    
    12   10   11 1    
    13   10   12 1    
    14   12   13 1    
    15   13   14 1    
    16   13   22 1    
    17   14   15 2    
    18   15   16 1    
    19   16   17 ar   
    20   16   22 ar   
    21   17   18 1    
    22   17   19 ar   
    23   19   20 ar   
    24   20   21 ar   
    25   21   22 ar   
    26   23   24 1    
    27   24   25 ar   
    28   24   26 ar   
    29   24   27 1    
    30   27   28 1    
    31   28   29 1    
    32   29   30 1    
    33   29   31 1    
    34   30   35 1    
    35   31   32 1    
    36   31   33 1    
    37   33   34 1    
    38   33   35 1    
    39   35   36 1    
    40   36   37 ar   
    41   36   44 ar   
    42   37   38 ar   
    43   38   39 1    
    44   38   42 ar   
    45   39   40 2    
    46   39   41 am   
    47   42   43 ar   
    48   43   44 ar   
@<TRIPOS>SUBSTRUCTURE
     1 NAD501      1 GROUP   
@<TRIPOS>SET
ATOM$ORANGE STATIC     ATOMS   COLORGROUP SYSTEM 
42 5 5 6 6 8 8 10 10 12 12 14 14 16 16 17 17 20 \
20 22 22 28 28 29 29 31 31 33 33 35 35 37 37 38 38 39 \
39 42 42 43 43 44 44 

