#    Name: 6dux_2_NAD_CAVITY_N1_6
#    Modification time : Fri May 22 19:26:11 2020

@<TRIPOS>MOLECULE
6dux_2_NAD_CAVITY_N1_6
   80     0     7     0     0
SMALL
NO_CHARGES


@<TRIPOS>ATOM
      1 OG        -25.6700    2.8500   10.9300 O.3       1 SER1        0.0000 
      2 OG        -24.0000    4.0000   19.5700 O.3       1 SER1        0.0000 
      3 OG        -23.7100    4.4100   18.1600 O.3       1 SER1        0.0000 
      4 OG        -22.7100    4.6300   20.0200 O.3       1 SER1        0.0000 
      5 N         -28.9700    4.0200   13.7600 N.am      2 ALA2        0.0000 
      6 N         -26.6800    3.7500   12.5700 N.am      2 ALA2        0.0000 
      7 N         -24.9800    2.6700   14.2100 N.am      2 ALA2        0.0000 
      8 O         -24.2700    1.3600   13.9900 O.2       2 ALA2        0.0000 
      9 N         -24.6800    3.0700   12.8000 N.am      2 ALA2        0.0000 
     10 O         -23.9700    1.7700   12.5700 O.2       2 ALA2        0.0000 
     11 N         -23.9900    2.8900   16.0700 N.am      2 ALA2        0.0000 
     12 N         -23.6900    3.2900   14.6600 N.am      2 ALA2        0.0000 
     13 O         -22.9800    1.9900   14.4400 O.2       2 ALA2        0.0000 
     14 N         -22.7000    3.5100   16.5200 N.am      2 ALA2        0.0000 
     15 OD1       -29.5500    2.0900   13.0900 O.co2     3 ASP3        0.0000 
     16 OD1       -27.8500    1.0100   14.7200 O.co2     3 ASP3        0.0000 
     17 OD1       -28.2600    2.7200   13.5400 O.co2     3 ASP3        0.0000 
     18 OD1       -26.5600    1.6400   15.1700 O.co2     3 ASP3        0.0000 
     19 OD1       -25.8500    0.3300   14.9500 O.co2     3 ASP3        0.0000 
     20 OD1       -26.2600    2.0400   13.7600 O.co2     3 ASP3        0.0000 
     21 OD1       -25.5500    0.7400   13.5400 O.co2     3 ASP3        0.0000 
     22 OD1       -25.9700    2.4500   12.3500 O.co2     3 ASP3        0.0000 
     23 NZ        -25.2600    1.1500   12.1200 N.4       4 LYS4        0.0000 
     24 NZ        -25.1700    1.2600   21.7300 N.4       4 LYS4        0.0000 
     25 NZ        -26.3000    4.2700   20.7600 N.4       4 LYS4        0.0000 
     26 NZ        -24.1600    0.3700   20.0900 N.4       4 LYS4        0.0000 
     27 NZ        -23.4500   -0.9300   19.8600 N.4       4 LYS4        0.0000 
     28 NZ        -24.5800    2.0700   18.9000 N.4       4 LYS4        0.0000 
     29 NZ        -23.8700    0.7700   18.6700 N.4       4 LYS4        0.0000 
     30 NZ        -23.1600   -0.5300   18.4500 N.4       4 LYS4        0.0000 
     31 NZ        -24.2800    2.4800   17.4900 N.4       4 LYS4        0.0000 
     32 NZ        -23.5700    1.1800   17.2600 N.4       4 LYS4        0.0000 
     33 NZ        -22.8600   -0.1200   17.0400 N.4       4 LYS4        0.0000 
     34 NZ        -23.5900    2.2900   20.7600 N.4       4 LYS4        0.0000 
     35 NZ        -23.2900    2.7000   19.3500 N.4       4 LYS4        0.0000 
     36 NZ        -22.9900    3.1100   17.9400 N.4       4 LYS4        0.0000 
     37 NZ        -21.9900    2.2100   16.3000 N.4       4 LYS4        0.0000 
     38 CZ        -28.5600    2.3100   14.9500 C.ar      5 PHE5        0.0000 
     39 CZ        -25.7300   -1.7800   17.5500 C.ar      5 PHE5        0.0000 
     40 CZ        -26.8600    1.2300   16.5900 C.ar      5 PHE5        0.0000 
     41 CZ        -26.1500   -0.0700   16.3600 C.ar      5 PHE5        0.0000 
     42 CZ        -27.2700    2.9400   15.4000 C.ar      5 PHE5        0.0000 
     43 CZ        -25.4500   -0.2600   19.6400 C.ar      5 PHE5        0.0000 
     44 CZ        -26.5800    2.7500   18.6700 C.ar      5 PHE5        0.0000 
     45 CZ        -25.8700    1.4500   18.4500 C.ar      5 PHE5        0.0000 
     46 CZ        -25.1500    0.1500   18.2300 C.ar      5 PHE5        0.0000 
     47 CZ        -24.4400   -1.1500   18.0000 C.ar      5 PHE5        0.0000 
     48 CZ        -26.2800    3.1600   17.2600 C.ar      5 PHE5        0.0000 
     49 CZ        -25.5700    1.8500   17.0400 C.ar      5 PHE5        0.0000 
     50 CZ        -24.4600   -0.0400   21.5000 C.ar      5 PHE5        0.0000 
     51 CZ        -25.5900    2.9700   20.5400 C.ar      5 PHE5        0.0000 
     52 CZ        -24.8700    1.6700   20.3100 C.ar      5 PHE5        0.0000 
     53 CZ        -25.2900    3.3800   19.1200 C.ar      5 PHE5        0.0000 
     54 CZ        -25.7000    5.0800   17.9400 C.ar      5 PHE5        0.0000 
     55 CZ        -25.4100    5.4900   16.5200 C.ar      5 PHE5        0.0000 
     56 CZ        -24.7000    4.1900   16.3000 C.ar      5 PHE5        0.0000 
     57 CZ        -24.3000    3.6000   20.9900 C.ar      5 PHE5        0.0000 
     58 CZ        -24.4200    5.7100   18.3900 C.ar      5 PHE5        0.0000 
     59 CZ        -23.4100    4.8100   16.7500 C.ar      5 PHE5        0.0000 
     60 CA        -29.9600    3.8000   11.9000 C.3       6 GLY6        0.0000 
     61 CA        -29.2500    2.5000   11.6700 C.3       6 GLY6        0.0000 
     62 CA        -27.9700    3.1200   12.1200 C.3       6 GLY6        0.0000 
     63 CA        -28.2800    3.8300   17.0400 C.3       6 GLY6        0.0000 
     64 CA        -27.9800    4.2400   15.6200 C.3       6 GLY6        0.0000 
     65 CA        -27.6900    4.6400   14.2100 C.3       6 GLY6        0.0000 
     66 CA        -26.9700    3.3400   13.9900 C.3       6 GLY6        0.0000 
     67 CA        -26.6900    4.8600   16.0700 C.3       6 GLY6        0.0000 
     68 CA        -25.6900    3.9700   14.4400 C.3       6 GLY6        0.0000 
     69 CA        -25.3900    4.3700   13.0200 C.3       6 GLY6        0.0000 
     70 CA        -26.0000    4.6800   19.3500 C.3       6 GLY6        0.0000 
     71 CA        -25.0100    4.9000   21.2100 C.3       6 GLY6        0.0000 
     72 CA        -24.7100    5.3000   19.8000 C.3       6 GLY6        0.0000 
     73 DU        -25.4300   -1.3700   16.1400 H         7 CUB7        0.0000 
     74 DU        -24.8600    0.5500   16.8100 H         7 CUB7        0.0000 
     75 DU        -24.1500   -0.7500   16.5900 H         7 CUB7        0.0000 
     76 DU        -25.9800    3.5600   15.8500 H         7 CUB7        0.0000 
     77 DU        -25.2700    2.2600   15.6200 H         7 CUB7        0.0000 
     78 DU        -24.5600    0.9600   15.4000 H         7 CUB7        0.0000 
     79 DU        -24.9900    3.7800   17.7100 H         7 CUB7        0.0000 
     80 DU        -23.2700    1.5800   15.8500 H         7 CUB7        0.0000 
@<TRIPOS>BOND
@<TRIPOS>SUBSTRUCTURE
     1 SER1        1 GROUP   
     2 ALA2        5 GROUP   
     3 ASP3       15 GROUP   
     4 LYS4       23 GROUP   
     5 PHE5       38 GROUP   
     6 GLY6       60 GROUP   
     7 CUB7       73 GROUP   
@<TRIPOS>SET

