#    Name: 6kjf_3_SIM
#    Modification time : Fri May 22 19:31:08 2020

@<TRIPOS>MOLECULE
6kjf_3_SIM
   31    32     1     0     0
SMALL
NO_CHARGES


@<TRIPOS>ATOM
      1 O1A       -28.5680   59.2490  -22.4670 O.co2     1 SIM403      0.0000 
      2 O1B       -28.4670   61.1530  -21.5270 O.co2     1 SIM403      0.0000 
      3 O3        -29.3280   58.8750  -24.6010 O.3       1 SIM403      0.0000 
      4 O5        -28.4810   59.8680  -28.6420 O.3       1 SIM403      0.0000 
      5 O14       -34.0610   60.5000  -29.5830 O.3       1 SIM403      0.0000 
      6 O18       -33.2130   58.2780  -29.6680 O.2       1 SIM403      0.0000 
      7 C1        -28.6180   60.4420  -22.6230 C.2       1 SIM403      0.0000 
      8 C2        -28.7860   61.0740  -23.9950 C.3       1 SIM403      0.0000 
      9 C3        -29.4190   60.1910  -25.0550 C.3       1 SIM403      0.0000 
     10 C4        -28.6510   60.2600  -26.3550 C.3       1 SIM403      0.0000 
     11 C5        -29.4510   60.0100  -27.6290 C.3       1 SIM403      0.0000 
     12 C6        -30.4180   61.1370  -28.0080 C.3       1 SIM403      0.0000 
     13 C7        -30.8030   61.1460  -29.4880 C.3       1 SIM403      0.0000 
     14 C8        -31.8390   62.1720  -29.9560 C.3       1 SIM403      0.0000 
     15 C9        -31.1760   63.5060  -30.2060 C.3       1 SIM403      0.0000 
     16 C10       -32.1600   64.5310  -30.6520 C.2       1 SIM403      0.0000 
     17 C11       -33.1950   64.1910  -31.3600 C.2       1 SIM403      0.0000 
     18 C12       -33.3110   62.8370  -31.8650 C.2       1 SIM403      0.0000 
     19 C17       -34.0660   62.6260  -32.9280 C.2       1 SIM403      0.0000 
     20 C16       -34.5970   61.2570  -33.1710 C.3       1 SIM403      0.0000 
     21 C15       -34.8710   60.6360  -31.8140 C.3       1 SIM403      0.0000 
     22 C14       -33.6480   60.5840  -30.9220 C.3       1 SIM403      0.0000 
     23 C13       -32.6230   61.6970  -31.1860 C.3       1 SIM403      0.0000 
     24 C9A       -30.1150   63.3710  -31.2700 C.3       1 SIM403      0.0000 
     25 C18       -33.7290   59.1580  -29.0220 C.2       1 SIM403      0.0000 
     26 C19       -34.0780   58.7220  -27.6740 C.3       1 SIM403      0.0000 
     27 C20       -33.2470   59.4950  -26.6580 C.3       1 SIM403      0.0000 
     28 C21       -32.8050   58.7860  -25.3940 C.3       1 SIM403      0.0000 
     29 C22       -35.5980   58.9450  -27.6840 C.3       1 SIM403      0.0000 
     30 C23       -33.6560   57.3270  -27.6290 C.3       1 SIM403      0.0000 
     31 C24       -35.8300   61.3540  -34.0210 C.3       1 SIM403      0.0000 
@<TRIPOS>BOND
     1    1    7 ar   
     2    2    7 ar   
     3    3    9 1    
     4    4   11 1    
     5    5   22 1    
     6    5   25 1    
     7    6   25 2    
     8    7    8 1    
     9    8    9 1    
    10    9   10 1    
    11   10   11 1    
    12   11   12 1    
    13   12   13 1    
    14   13   14 1    
    15   14   15 1    
    16   14   23 1    
    17   15   16 1    
    18   15   24 1    
    19   16   17 2    
    20   17   18 1    
    21   18   19 2    
    22   18   23 1    
    23   19   20 1    
    24   20   21 1    
    25   20   31 1    
    26   21   22 1    
    27   22   23 1    
    28   25   26 1    
    29   26   27 1    
    30   26   29 1    
    31   26   30 1    
    32   27   28 1    
@<TRIPOS>SUBSTRUCTURE
     1 SIM403      1 GROUP   
@<TRIPOS>SET

