#    Name: 6he8_3_ATP
#    Modification time : Fri May 22 19:31:33 2020

@<TRIPOS>MOLECULE
6he8_3_ATP
   31    33     1     0     1
SMALL
NO_CHARGES


@<TRIPOS>ATOM
      1 PG        237.0270  283.5190  367.8370 P.3       1 ATP401      0.0000 
      2 O1G       237.1400  282.5260  366.7030 O.co2     1 ATP401      0.0000 
      3 O2G       236.4590  282.8730  369.1360 O.co2     1 ATP401      0.0000 
      4 O3G       238.3300  284.2460  368.1030 O.co2     1 ATP401      0.0000 
      5 PB        234.2720  285.4180  367.0730 P.3       1 ATP401      0.0000 
      6 O1B       233.8710  285.4900  365.5660 O.co2     1 ATP401      0.0000 
      7 O2B       233.2230  284.8480  368.0320 O.co2     1 ATP401      0.0000 
      8 O3B       235.8330  284.6210  367.2290 O.3       1 ATP401      0.0000 
      9 PA        234.4790  288.5530  368.4080 P.3       1 ATP401      0.0000 
     10 O1A       233.1540  288.9590  368.0210 O.co2     1 ATP401      0.0000 
     11 O2A       234.7920  288.4910  369.8470 O.co2     1 ATP401      0.0000 
     12 O3A       234.6340  287.0150  367.6410 O.3       1 ATP401      0.0000 
     13 O5'       235.5630  289.4470  367.6750 O.3       1 ATP401      0.0000 
     14 C5'       236.4570  290.3520  368.3080 C.3       1 ATP401      0.0000 
     15 C4'       236.0190  291.7810  367.9500 C.3       1 ATP401      0.0000 
     16 O4'       235.3240  291.8240  366.6140 O.3       1 ATP401      0.0000 
     17 C3'       234.9470  292.4220  368.9020 C.3       1 ATP401      0.0000 
     18 O3'       235.3940  293.7360  369.2160 O.3       1 ATP401      0.0000 
     19 C2'       233.6440  292.3660  368.1740 C.3       1 ATP401      0.0000 
     20 O2'       232.7830  293.4350  368.5830 O.3       1 ATP401      0.0000 
     21 C1'       234.0950  292.5460  366.7560 C.3       1 ATP401      0.0000 
     22 N9        233.1180  292.0420  365.7720 N.pl3     1 ATP401      0.0000 
     23 C8        233.0090  290.8190  365.1410 C.2       1 ATP401      0.0000 
     24 N7        232.0470  290.7510  364.2820 N.2       1 ATP401      0.0000 
     25 C5        231.4260  291.9290  364.2960 C.ar      1 ATP401      0.0000 
     26 C6        230.4430  292.4030  363.4140 C.ar      1 ATP401      0.0000 
     27 N6        229.8810  291.5210  362.5930 N.pl3     1 ATP401      0.0000 
     28 N1        230.2040  293.7770  363.5070 N.ar      1 ATP401      0.0000 
     29 C2        230.8160  294.5160  364.4340 C.ar      1 ATP401      0.0000 
     30 N3        231.8830  294.0960  365.2110 N.ar      1 ATP401      0.0000 
     31 C4        232.0840  292.7690  365.1570 C.ar      1 ATP401      0.0000 
@<TRIPOS>BOND
     1    1    2 ar   
     2    1    3 ar   
     3    1    4 ar   
     4    1    8 1    
     5    5    6 ar   
     6    5    7 ar   
     7    5    8 1    
     8    5   12 1    
     9    9   10 ar   
    10    9   11 ar   
    11    9   12 1    
    12    9   13 1    
    13   13   14 1    
    14   14   15 1    
    15   15   16 1    
    16   15   17 1    
    17   16   21 1    
    18   17   18 1    
    19   17   19 1    
    20   19   20 1    
    21   19   21 1    
    22   21   22 1    
    23   22   23 1    
    24   22   31 1    
    25   23   24 2    
    26   24   25 1    
    27   25   26 ar   
    28   25   31 ar   
    29   26   27 1    
    30   26   28 ar   
    31   28   29 ar   
    32   29   30 ar   
    33   30   31 ar   
@<TRIPOS>SUBSTRUCTURE
     1 ATP401      1 GROUP   
@<TRIPOS>SET
ATOM$ORANGE STATIC     ATOMS   COLORGROUP SYSTEM 
20 14 14 15 15 17 17 19 19 21 21 23 23 25 25 26 26 29 \
29 31 31 

