#    Name: 6he8_4_ATP
#    Modification time : Fri May 22 19:31:48 2020

@<TRIPOS>MOLECULE
6he8_4_ATP
   31    33     1     0     1
SMALL
NO_CHARGES


@<TRIPOS>ATOM
      1 PG        262.9230  286.9040  367.7250 P.3       1 ATP401      0.0000 
      2 O1G       262.3670  286.9320  366.3130 O.co2     1 ATP401      0.0000 
      3 O2G       261.7870  286.6640  368.7340 O.co2     1 ATP401      0.0000 
      4 O3G       264.1240  285.9540  367.8980 O.co2     1 ATP401      0.0000 
      5 PB        263.7050  289.9530  369.0450 P.3       1 ATP401      0.0000 
      6 O1B       263.5820  290.9450  367.8610 O.co2     1 ATP401      0.0000 
      7 O2B       262.6240  290.0530  370.1360 O.co2     1 ATP401      0.0000 
      8 O3B       263.6680  288.4100  368.1990 O.3       1 ATP401      0.0000 
      9 PA        266.1240  290.2830  371.1290 P.3       1 ATP401      0.0000 
     10 O1A       265.8700  291.7060  371.4570 O.co2     1 ATP401      0.0000 
     11 O2A       265.8500  289.1990  372.1190 O.co2     1 ATP401      0.0000 
     12 O3A       265.2710  290.0830  369.7720 O.3       1 ATP401      0.0000 
     13 O5'       267.5590  290.1070  370.5570 O.3       1 ATP401      0.0000 
     14 C5'       268.6470  289.7780  371.4400 C.3       1 ATP401      0.0000 
     15 C4'       269.5960  290.9640  371.8030 C.3       1 ATP401      0.0000 
     16 O4'       270.1770  291.6180  370.5960 O.3       1 ATP401      0.0000 
     17 C3'       268.9290  292.1240  372.4920 C.3       1 ATP401      0.0000 
     18 O3'       268.5100  291.9300  373.8530 O.3       1 ATP401      0.0000 
     19 C2'       269.9420  293.2940  372.2560 C.3       1 ATP401      0.0000 
     20 O2'       270.9970  293.3100  373.2040 O.3       1 ATP401      0.0000 
     21 C1'       270.3100  293.0500  370.9010 C.3       1 ATP401      0.0000 
     22 N9        269.4680  293.8410  370.0100 N.pl3     1 ATP401      0.0000 
     23 C8        268.3170  293.5930  369.3730 C.2       1 ATP401      0.0000 
     24 N7        267.8680  294.5370  368.6780 N.2       1 ATP401      0.0000 
     25 C5        268.7280  295.6070  368.8820 C.ar      1 ATP401      0.0000 
     26 C6        268.7080  296.9110  368.4380 C.ar      1 ATP401      0.0000 
     27 N6        267.7680  297.4330  367.6050 N.pl3     1 ATP401      0.0000 
     28 N1        269.7540  297.6910  368.8890 N.ar      1 ATP401      0.0000 
     29 C2        270.6690  297.1710  369.7240 C.ar      1 ATP401      0.0000 
     30 N3        270.7540  295.8970  370.1170 N.ar      1 ATP401      0.0000 
     31 C4        269.7740  295.1790  369.7220 C.ar      1 ATP401      0.0000 
@<TRIPOS>BOND
     1    1    2 ar   
     2    1    3 ar   
     3    1    4 ar   
     4    1    8 1    
     5    5    6 ar   
     6    5    7 ar   
     7    5    8 1    
     8    5   12 1    
     9    9   10 ar   
    10    9   11 ar   
    11    9   12 1    
    12    9   13 1    
    13   13   14 1    
    14   14   15 1    
    15   15   16 1    
    16   15   17 1    
    17   16   21 1    
    18   17   18 1    
    19   17   19 1    
    20   19   20 1    
    21   19   21 1    
    22   21   22 1    
    23   22   23 1    
    24   22   31 1    
    25   23   24 2    
    26   24   25 1    
    27   25   26 ar   
    28   25   31 ar   
    29   26   27 1    
    30   26   28 ar   
    31   28   29 ar   
    32   29   30 ar   
    33   30   31 ar   
@<TRIPOS>SUBSTRUCTURE
     1 ATP401      1 GROUP   
@<TRIPOS>SET
ATOM$ORANGE STATIC     ATOMS   COLORGROUP SYSTEM 
20 14 14 15 15 17 17 19 19 21 21 23 23 25 25 26 26 29 \
29 31 31 

