#    Name: 6he8_2_ATP
#    Modification time : Fri May 22 19:31:17 2020

@<TRIPOS>MOLECULE
6he8_2_ATP
   31    33     1     0     1
SMALL
NO_CHARGES


@<TRIPOS>ATOM
      1 PG        225.8080  260.6610  367.3870 P.3       1 ATP401      0.0000 
      2 O1G       226.7940  260.2450  366.2890 O.co2     1 ATP401      0.0000 
      3 O2G       226.0690  259.9970  368.7140 O.co2     1 ATP401      0.0000 
      4 O3G       225.5760  262.1220  367.4990 O.co2     1 ATP401      0.0000 
      5 PB        222.9530  258.8820  366.6930 P.3       1 ATP401      0.0000 
      6 O1B       222.8950  258.4230  365.2190 O.co2     1 ATP401      0.0000 
      7 O2B       223.0340  257.8100  367.7470 O.co2     1 ATP401      0.0000 
      8 O3B       224.2610  259.9990  366.8430 O.3       1 ATP401      0.0000 
      9 PA        219.9870  260.0910  367.2870 P.3       1 ATP401      0.0000 
     10 O1A       219.4020  258.7590  367.6110 O.co2     1 ATP401      0.0000 
     11 O2A       219.7920  261.0350  368.3560 O.co2     1 ATP401      0.0000 
     12 O3A       221.5930  259.8300  367.0010 O.3       1 ATP401      0.0000 
     13 O5'       219.4920  260.6490  365.8970 O.3       1 ATP401      0.0000 
     14 C5'       219.3990  262.1180  365.6790 C.3       1 ATP401      0.0000 
     15 C4'       218.0770  262.6590  365.2190 C.3       1 ATP401      0.0000 
     16 O4'       217.4720  261.8170  364.2570 O.3       1 ATP401      0.0000 
     17 C3'       216.9850  262.8160  366.3380 C.3       1 ATP401      0.0000 
     18 O3'       216.3110  264.0450  366.2830 O.3       1 ATP401      0.0000 
     19 C2'       216.0440  261.6410  366.0220 C.3       1 ATP401      0.0000 
     20 O2'       214.7110  261.8380  366.5490 O.3       1 ATP401      0.0000 
     21 C1'       216.1140  261.6070  364.5420 C.3       1 ATP401      0.0000 
     22 N9        215.6360  260.3530  363.9080 N.pl3     1 ATP401      0.0000 
     23 C8        216.4310  259.2730  363.5160 C.2       1 ATP401      0.0000 
     24 N7        215.7440  258.3450  362.8470 N.2       1 ATP401      0.0000 
     25 C5        214.4850  258.7820  362.7630 C.ar      1 ATP401      0.0000 
     26 C6        213.3540  258.1430  362.1930 C.ar      1 ATP401      0.0000 
     27 N6        213.4260  257.0060  361.4300 N.pl3     1 ATP401      0.0000 
     28 N1        212.2270  258.8690  362.2990 N.ar      1 ATP401      0.0000 
     29 C2        212.2360  260.0470  362.9690 C.ar      1 ATP401      0.0000 
     30 N3        213.2190  260.7200  363.5810 N.ar      1 ATP401      0.0000 
     31 C4        214.3940  260.0500  363.4560 C.ar      1 ATP401      0.0000 
@<TRIPOS>BOND
     1    1    2 ar   
     2    1    3 ar   
     3    1    4 ar   
     4    1    8 1    
     5    5    6 ar   
     6    5    7 ar   
     7    5    8 1    
     8    5   12 1    
     9    9   10 ar   
    10    9   11 ar   
    11    9   12 1    
    12    9   13 1    
    13   13   14 1    
    14   14   15 1    
    15   15   16 1    
    16   15   17 1    
    17   16   21 1    
    18   17   18 1    
    19   17   19 1    
    20   19   20 1    
    21   19   21 1    
    22   21   22 1    
    23   22   23 1    
    24   22   31 1    
    25   23   24 2    
    26   24   25 1    
    27   25   26 ar   
    28   25   31 ar   
    29   26   27 1    
    30   26   28 ar   
    31   28   29 ar   
    32   29   30 ar   
    33   30   31 ar   
@<TRIPOS>SUBSTRUCTURE
     1 ATP401      1 GROUP   
@<TRIPOS>SET
ATOM$ORANGE STATIC     ATOMS   COLORGROUP SYSTEM 
20 14 14 15 15 17 17 19 19 21 21 23 23 25 25 26 26 29 \
29 31 31 

