#    Name: 6he8_5_ADP
#    Modification time : Fri May 22 19:32:04 2020

@<TRIPOS>MOLECULE
6he8_5_ADP
   27    29     1     0     1
SMALL
NO_CHARGES


@<TRIPOS>ATOM
      1 PB        282.4840  266.0930  368.1010 P.3       1 ADP401      0.0000 
      2 O1B       281.8150  264.9780  367.2280 O.co2     1 ADP401      0.0000 
      3 O2B       283.1400  267.2510  367.2820 O.co2     1 ADP401      0.0000 
      4 O3B       281.6780  266.5660  369.3220 O.co2     1 ADP401      0.0000 
      5 PA        284.8370  264.1500  369.6800 P.3       1 ADP401      0.0000 
      6 O1A       285.9020  264.9790  370.2540 O.co2     1 ADP401      0.0000 
      7 O2A       283.9710  263.4170  370.5960 O.co2     1 ADP401      0.0000 
      8 O3A       283.8610  265.1930  368.8490 O.3       1 ADP401      0.0000 
      9 O5'       285.4240  263.2330  368.5230 O.3       1 ADP401      0.0000 
     10 C5'       285.2110  261.7900  368.5600 C.3       1 ADP401      0.0000 
     11 C4'       286.5370  261.0410  369.0560 C.3       1 ADP401      0.0000 
     12 O4'       287.6800  261.5190  368.3630 O.3       1 ADP401      0.0000 
     13 C3'       286.7730  261.1300  370.5570 C.3       1 ADP401      0.0000 
     14 O3'       287.1870  259.8580  371.0950 O.3       1 ADP401      0.0000 
     15 C2'       287.9350  262.2050  370.6310 C.3       1 ADP401      0.0000 
     16 O2'       288.8530  261.8830  371.6650 O.3       1 ADP401      0.0000 
     17 C1'       288.6190  262.0880  369.2570 C.3       1 ADP401      0.0000 
     18 N9        289.0440  263.3380  368.7920 N.pl3     1 ADP401      0.0000 
     19 C8        288.4040  264.2350  368.0500 C.2       1 ADP401      0.0000 
     20 N7        289.1520  265.2360  367.7030 N.2       1 ADP401      0.0000 
     21 C5        290.3130  265.1050  368.3830 C.ar      1 ADP401      0.0000 
     22 C6        291.3800  265.9600  368.4740 C.ar      1 ADP401      0.0000 
     23 N6        291.4930  267.1250  367.7160 N.pl3     1 ADP401      0.0000 
     24 N1        292.3230  265.5460  369.3670 N.ar      1 ADP401      0.0000 
     25 C2        292.1540  264.4300  370.0510 C.ar      1 ADP401      0.0000 
     26 N3        291.2010  263.5220  369.9930 N.ar      1 ADP401      0.0000 
     27 C4        290.2770  263.8770  369.0680 C.ar      1 ADP401      0.0000 
@<TRIPOS>BOND
     1    1    2 ar   
     2    1    3 ar   
     3    1    4 ar   
     4    1    8 1    
     5    5    6 ar   
     6    5    7 ar   
     7    5    8 1    
     8    5    9 1    
     9    9   10 1    
    10   10   11 1    
    11   11   12 1    
    12   11   13 1    
    13   12   17 1    
    14   13   14 1    
    15   13   15 1    
    16   15   16 1    
    17   15   17 1    
    18   17   18 1    
    19   18   19 1    
    20   18   27 1    
    21   19   20 2    
    22   20   21 1    
    23   21   22 ar   
    24   21   27 ar   
    25   22   23 1    
    26   22   24 ar   
    27   24   25 ar   
    28   25   26 ar   
    29   26   27 ar   
@<TRIPOS>SUBSTRUCTURE
     1 ADP401      1 GROUP   
@<TRIPOS>SET
ATOM$ORANGE STATIC     ATOMS   COLORGROUP SYSTEM 
20 10 10 11 11 13 13 15 15 17 17 19 19 21 21 22 22 25 \
25 27 27 

