#    Name: 6he8_1_ATP
#    Modification time : Fri May 22 19:31:00 2020

@<TRIPOS>MOLECULE
6he8_1_ATP
   31    33     1     0     1
SMALL
NO_CHARGES


@<TRIPOS>ATOM
      1 PG        239.8000  237.3300  371.7120 P.3       1 ATP401      0.0000 
      2 O1G       241.1020  237.3680  370.9100 O.co2     1 ATP401      0.0000 
      3 O2G       240.0570  237.3670  373.2470 O.co2     1 ATP401      0.0000 
      4 O3G       238.8390  238.3060  371.1850 O.co2     1 ATP401      0.0000 
      5 PB        238.6470  234.1420  371.3630 P.3       1 ATP401      0.0000 
      6 O1B       239.2990  233.3750  370.2570 O.co2     1 ATP401      0.0000 
      7 O2B       239.0670  233.6530  372.7390 O.co2     1 ATP401      0.0000 
      8 O3B       239.1370  235.8130  371.2930 O.3       1 ATP401      0.0000 
      9 PA        235.3530  233.8070  371.4830 P.3       1 ATP401      0.0000 
     10 O1A       234.5090  234.5130  370.5390 O.co2     1 ATP401      0.0000 
     11 O2A       235.1370  234.0330  372.9070 O.co2     1 ATP401      0.0000 
     12 O3A       236.8820  234.2190  371.1690 O.3       1 ATP401      0.0000 
     13 O5'       235.3940  232.2580  371.1900 O.3       1 ATP401      0.0000 
     14 C5'       234.2310  231.4220  371.5440 C.3       1 ATP401      0.0000 
     15 C4'       233.0620  231.6420  370.6180 C.3       1 ATP401      0.0000 
     16 O4'       233.4840  231.2350  369.3070 O.3       1 ATP401      0.0000 
     17 C3'       232.1670  230.5030  370.9920 C.3       1 ATP401      0.0000 
     18 O3'       230.8520  230.9380  370.8520 O.3       1 ATP401      0.0000 
     19 C2'       232.5110  229.3390  370.1670 C.3       1 ATP401      0.0000 
     20 O2'       231.4100  228.5700  369.8740 O.3       1 ATP401      0.0000 
     21 C1'       233.0500  229.9600  368.8870 C.3       1 ATP401      0.0000 
     22 N9        234.1340  229.1550  368.3030 N.pl3     1 ATP401      0.0000 
     23 C8        235.3720  229.5380  367.8480 C.2       1 ATP401      0.0000 
     24 N7        236.0920  228.5950  367.3160 N.2       1 ATP401      0.0000 
     25 C5        235.2770  227.4710  367.3670 C.ar      1 ATP401      0.0000 
     26 C6        235.5910  226.1460  366.9650 C.ar      1 ATP401      0.0000 
     27 N6        236.8420  225.8630  366.5100 N.pl3     1 ATP401      0.0000 
     28 N1        234.5570  225.3070  367.0990 N.ar      1 ATP401      0.0000 
     29 C2        233.4110  225.7610  367.5800 C.ar      1 ATP401      0.0000 
     30 N3        233.0130  226.9200  368.0760 N.ar      1 ATP401      0.0000 
     31 C4        234.0650  227.8330  367.9600 C.ar      1 ATP401      0.0000 
@<TRIPOS>BOND
     1    1    2 ar   
     2    1    3 ar   
     3    1    4 ar   
     4    1    8 1    
     5    5    6 ar   
     6    5    7 ar   
     7    5    8 1    
     8    5   12 1    
     9    9   10 ar   
    10    9   11 ar   
    11    9   12 1    
    12    9   13 1    
    13   13   14 1    
    14   14   15 1    
    15   15   16 1    
    16   15   17 1    
    17   16   21 1    
    18   17   18 1    
    19   17   19 1    
    20   19   20 1    
    21   19   21 1    
    22   21   22 1    
    23   22   23 1    
    24   22   31 1    
    25   23   24 2    
    26   24   25 1    
    27   25   26 ar   
    28   25   31 ar   
    29   26   27 1    
    30   26   28 ar   
    31   28   29 ar   
    32   29   30 ar   
    33   30   31 ar   
@<TRIPOS>SUBSTRUCTURE
     1 ATP401      1 GROUP   
@<TRIPOS>SET
ATOM$ORANGE STATIC     ATOMS   COLORGROUP SYSTEM 
20 14 14 15 15 17 17 19 19 21 21 23 23 25 25 26 26 29 \
29 31 31 

