#    Name: 6oo3_1_6EU
#    Modification time : Fri May 22 19:43:07 2020

@<TRIPOS>MOLECULE
6oo3_1_6EU
   46    52     1     0     0
SMALL
NO_CHARGES


@<TRIPOS>ATOM
      1 CBT       153.4510  157.6710  149.4310           1 6EU1001     0.0000 
      2 OAH       153.4120  158.8930  150.1190           1 6EU1001     0.0000 
      3 CBQ       153.1430  158.8030  151.4890           1 6EU1001     0.0000 
      4 CBO       152.3340  157.7540  151.9920           1 6EU1001     0.0000 
      5 CBS       153.6480  159.7720  152.3720           1 6EU1001     0.0000 
      6 OAI       154.4470  160.8390  151.9660           1 6EU1001     0.0000 
      7 CBR       153.3820  159.6890  153.7030           1 6EU1001     0.0000 
      8 CBP       152.5890  158.6530  154.2100           1 6EU1001     0.0000 
      9 CBN       152.0880  157.6870  153.3330           1 6EU1001     0.0000 
     10 CBM       151.2140  156.5770  153.9570           1 6EU1001     0.0000 
     11 CBK       150.0180  157.2750  154.5870           1 6EU1001     0.0000 
     12 OAG       149.0970  157.5720  153.9100           1 6EU1001     0.0000 
     13 OAF       150.0130  157.5950  155.9830           1 6EU1001     0.0000 
     14 CBC       148.9780  156.9610  156.7010           1 6EU1001     0.0000 
     15 CAX       148.3530  158.0610  157.6110           1 6EU1001     0.0000 
     16 CAS       147.0250  158.7140  157.0390           1 6EU1001     0.0000 
     17 CAK       146.7320  160.3430  157.2310           1 6EU1001     0.0000 
     18 CAU       149.3550  158.9930  158.3340           1 6EU1001     0.0000 
     19 CAR       148.8330  159.8630  159.4620           1 6EU1001     0.0000 
     20 OAD       149.3350  161.1240  159.2580           1 6EU1001     0.0000 
     21 CAZ       149.4040  159.3660  160.8100           1 6EU1001     0.0000 
     22 OAE       150.3660  158.7460  160.9690           1 6EU1001     0.0000 
     23 CBA       148.4690  159.8380  161.8660           1 6EU1001     0.0000 
     24 CBF       148.7760  160.0280  163.3550           1 6EU1001     0.0000 
     25 CAW       147.1300  159.9660  161.1930           1 6EU1001     0.0000 
     26 CAO       147.3470  159.8210  159.6680           1 6EU1001     0.0000 
     27 CAJ       146.3990  160.7520  158.6990           1 6EU1001     0.0000 
     28 OAA       144.7180  160.2650  158.9170           1 6EU1001     0.0000 
     29 CAN       146.3470  162.2260  158.8940           1 6EU1001     0.0000 
     30 CAT       145.3260  162.6840  159.9990           1 6EU1001     0.0000 
     31 CAP       145.8010  163.0030  157.6210           1 6EU1001     0.0000 
     32 CAM       144.9100  161.9940  156.6410           1 6EU1001     0.0000 
     33 CAV       144.5650  162.6490  155.3550           1 6EU1001     0.0000 
     34 CBB       145.2210  163.8120  154.9590           1 6EU1001     0.0000 
     35 CBD       143.4790  162.0290  154.4610           1 6EU1001     0.0000 
     36 OAC       143.9320  161.6020  157.1900           1 6EU1001     0.0000 
     37 CAL       145.6850  160.5760  156.3670           1 6EU1001     0.0000 
     38 OAB       144.7620  159.7010  156.6800           1 6EU1001     0.0000 
     39 CAQ       143.9670  160.2720  157.6050           1 6EU1001     0.0000 
     40 CAY       142.5970  159.5430  157.6580           1 6EU1001     0.0000 
     41 CBE       142.0820  159.2240  159.1250           1 6EU1001     0.0000 
     42 CBG       142.6170  158.1860  159.8630           1 6EU1001     0.0000 
     43 CBI       142.1390  157.9330  161.1550           1 6EU1001     0.0000 
     44 CBL       141.1020  158.7090  161.6950           1 6EU1001     0.0000 
     45 CBJ       140.5500  159.7350  160.9560           1 6EU1001     0.0000 
     46 CBH       141.0280  159.9970  159.6710           1 6EU1001     0.0000 
@<TRIPOS>BOND
     1    1    2 du   
     2    2    3 du   
     3    3    4 du   
     4    3    5 du   
     5    4    9 du   
     6    5    6 du   
     7    5    7 du   
     8    7    8 du   
     9    8    9 du   
    10    9   10 du   
    11   10   11 du   
    12   11   12 du   
    13   11   13 du   
    14   13   14 du   
    15   14   15 du   
    16   15   16 du   
    17   15   18 du   
    18   16   17 du   
    19   17   27 du   
    20   17   37 du   
    21   18   19 du   
    22   19   20 du   
    23   19   21 du   
    24   19   26 du   
    25   21   22 du   
    26   21   23 du   
    27   23   24 du   
    28   23   25 du   
    29   25   26 du   
    30   26   27 du   
    31   27   28 du   
    32   27   29 du   
    33   28   39 du   
    34   29   30 du   
    35   29   31 du   
    36   31   32 du   
    37   32   33 du   
    38   32   36 du   
    39   32   37 du   
    40   33   34 du   
    41   33   35 du   
    42   36   39 du   
    43   37   38 du   
    44   38   39 du   
    45   39   40 du   
    46   40   41 du   
    47   41   42 du   
    48   41   46 du   
    49   42   43 du   
    50   43   44 du   
    51   44   45 du   
    52   45   46 du   
@<TRIPOS>SUBSTRUCTURE
     1 6EU1001     1 GROUP   
@<TRIPOS>SET

