#    Name: 6oo3_2_6EU
#    Modification time : Fri May 22 19:43:17 2020

@<TRIPOS>MOLECULE
6oo3_2_6EU
   46    52     1     0     0
SMALL
NO_CHARGES


@<TRIPOS>ATOM
      1 CBT       118.8050  153.4550  149.4340           1 6EU1001     0.0000 
      2 OAH       117.5840  153.4210  150.1240           1 6EU1001     0.0000 
      3 CBQ       117.6750  153.1540  151.4940           1 6EU1001     0.0000 
      4 CBO       118.7260  152.3480  151.9990           1 6EU1001     0.0000 
      5 CBS       116.7040  153.6570  152.3770           1 6EU1001     0.0000 
      6 OAI       115.6360  154.4520  151.9690           1 6EU1001     0.0000 
      7 CBR       116.7870  153.3930  153.7080           1 6EU1001     0.0000 
      8 CBP       117.8250  152.6040  154.2160           1 6EU1001     0.0000 
      9 CBN       118.7930  152.1050  153.3400           1 6EU1001     0.0000 
     10 CBM       119.9060  151.2340  153.9630           1 6EU1001     0.0000 
     11 CBK       119.2100  150.0350  154.5900           1 6EU1001     0.0000 
     12 OAG       118.9310  149.1060  153.9150           1 6EU1001     0.0000 
     13 OAF       118.8690  150.0380  155.9820           1 6EU1001     0.0000 
     14 CBC       119.4980  149.0120  156.7160           1 6EU1001     0.0000 
     15 CAX       118.3900  148.3910  157.6170           1 6EU1001     0.0000 
     16 CAS       117.7430  147.0600  157.0440           1 6EU1001     0.0000 
     17 CAK       116.1150  146.7620  157.2370           1 6EU1001     0.0000 
     18 CAU       117.4500  149.3920  158.3300           1 6EU1001     0.0000 
     19 CAR       116.5930  148.8720  159.4680           1 6EU1001     0.0000 
     20 OAD       115.3290  149.3720  159.2770           1 6EU1001     0.0000 
     21 CAZ       117.1030  149.4450  160.8100           1 6EU1001     0.0000 
     22 OAE       117.7270  150.4050  160.9640           1 6EU1001     0.0000 
     23 CBA       116.6370  148.5100  161.8700           1 6EU1001     0.0000 
     24 CBF       116.4450  148.8200  163.3580           1 6EU1001     0.0000 
     25 CAW       116.4980  147.1720  161.1990           1 6EU1001     0.0000 
     26 CAO       116.6390  147.3870  159.6730           1 6EU1001     0.0000 
     27 CAJ       115.7070  146.4350  158.7060           1 6EU1001     0.0000 
     28 OAA       116.1930  144.7550  158.9310           1 6EU1001     0.0000 
     29 CAN       114.2330  146.3840  158.9000           1 6EU1001     0.0000 
     30 CAT       113.7740  145.3730  160.0110           1 6EU1001     0.0000 
     31 CAP       113.4560  145.8270  157.6300           1 6EU1001     0.0000 
     32 CAM       114.4670  144.9360  156.6530           1 6EU1001     0.0000 
     33 CAV       113.8140  144.5870  155.3670           1 6EU1001     0.0000 
     34 CBB       112.6480  145.2360  154.9710           1 6EU1001     0.0000 
     35 CBD       114.4410  143.5040  154.4730           1 6EU1001     0.0000 
     36 OAC       114.8590  143.9600  157.2060           1 6EU1001     0.0000 
     37 CAL       115.8840  145.7110  156.3780           1 6EU1001     0.0000 
     38 OAB       116.7610  144.7910  156.6960           1 6EU1001     0.0000 
     39 CAQ       116.1900  143.9980  157.6220           1 6EU1001     0.0000 
     40 CAY       116.9200  142.6280  157.6780           1 6EU1001     0.0000 
     41 CBE       117.2240  142.0970  159.1430           1 6EU1001     0.0000 
     42 CBG       118.2380  142.6390  159.9080           1 6EU1001     0.0000 
     43 CBI       118.4790  142.1480  161.1970           1 6EU1001     0.0000 
     44 CBL       117.7150  141.0880  161.7090           1 6EU1001     0.0000 
     45 CBJ       116.7140  140.5280  160.9430           1 6EU1001     0.0000 
     46 CBH       116.4640  141.0190  159.6600           1 6EU1001     0.0000 
@<TRIPOS>BOND
     1    1    2 du   
     2    2    3 du   
     3    3    4 du   
     4    3    5 du   
     5    4    9 du   
     6    5    6 du   
     7    5    7 du   
     8    7    8 du   
     9    8    9 du   
    10    9   10 du   
    11   10   11 du   
    12   11   12 du   
    13   11   13 du   
    14   13   14 du   
    15   14   15 du   
    16   15   16 du   
    17   15   18 du   
    18   16   17 du   
    19   17   27 du   
    20   17   37 du   
    21   18   19 du   
    22   19   20 du   
    23   19   21 du   
    24   19   26 du   
    25   21   22 du   
    26   21   23 du   
    27   23   24 du   
    28   23   25 du   
    29   25   26 du   
    30   26   27 du   
    31   27   28 du   
    32   27   29 du   
    33   28   39 du   
    34   29   30 du   
    35   29   31 du   
    36   31   32 du   
    37   32   33 du   
    38   32   36 du   
    39   32   37 du   
    40   33   34 du   
    41   33   35 du   
    42   36   39 du   
    43   37   38 du   
    44   38   39 du   
    45   39   40 du   
    46   40   41 du   
    47   41   42 du   
    48   41   46 du   
    49   42   43 du   
    50   43   44 du   
    51   44   45 du   
    52   45   46 du   
@<TRIPOS>SUBSTRUCTURE
     1 6EU1001     1 GROUP   
@<TRIPOS>SET

