#    Name: 6oo3_3_6EU
#    Modification time : Fri May 22 19:43:28 2020

@<TRIPOS>MOLECULE
6oo3_3_6EU
   46    52     1     0     0
SMALL
NO_CHARGES


@<TRIPOS>ATOM
      1 CBT       123.0150  118.8170  149.4320           1 6EU1001     0.0000 
      2 OAH       123.0520  117.5970  150.1230           1 6EU1001     0.0000 
      3 CBQ       123.3110  117.6920  151.4940           1 6EU1001     0.0000 
      4 CBO       124.1170  118.7430  151.9980           1 6EU1001     0.0000 
      5 CBS       122.8010  116.7260  152.3790           1 6EU1001     0.0000 
      6 OAI       122.0060  115.6570  151.9730           1 6EU1001     0.0000 
      7 CBR       123.0590  116.8160  153.7110           1 6EU1001     0.0000 
      8 CBP       123.8480  117.8540  154.2180           1 6EU1001     0.0000 
      9 CBN       124.3540  118.8160  153.3390           1 6EU1001     0.0000 
     10 CBM       125.2240  119.9300  153.9600           1 6EU1001     0.0000 
     11 CBK       126.4240  119.2350  154.5850           1 6EU1001     0.0000 
     12 OAG       127.3520  118.9570  153.9090           1 6EU1001     0.0000 
     13 OAF       126.4210  118.8930  155.9750           1 6EU1001     0.0000 
     14 CBC       127.4400  119.5310  156.7110           1 6EU1001     0.0000 
     15 CAX       128.0590  118.4270  157.6170           1 6EU1001     0.0000 
     16 CAS       129.3870  117.7760  157.0420           1 6EU1001     0.0000 
     17 CAK       129.6880  116.1480  157.2300           1 6EU1001     0.0000 
     18 CAU       127.0560  117.4930  158.3340           1 6EU1001     0.0000 
     19 CAR       127.5750  116.6190  159.4600           1 6EU1001     0.0000 
     20 OAD       127.0760  115.3590  159.2450           1 6EU1001     0.0000 
     21 CAZ       127.0000  117.1110  160.8080           1 6EU1001     0.0000 
     22 OAE       126.0400  117.7330  160.9690           1 6EU1001     0.0000 
     23 CBA       127.9330  116.6300  161.8630           1 6EU1001     0.0000 
     24 CBF       127.6340  116.4610  163.3560           1 6EU1001     0.0000 
     25 CAW       129.2740  116.5160  161.1930           1 6EU1001     0.0000 
     26 CAO       129.0600  116.6620  159.6670           1 6EU1001     0.0000 
     27 CAJ       130.0130  115.7340  158.6980           1 6EU1001     0.0000 
     28 OAA       131.6930  116.2190  158.9290           1 6EU1001     0.0000 
     29 CAN       130.0640  114.2590  158.8840           1 6EU1001     0.0000 
     30 CAT       131.0730  113.7960  159.9970           1 6EU1001     0.0000 
     31 CAP       130.6310  113.4900  157.6140           1 6EU1001     0.0000 
     32 CAM       131.5200  114.5080  156.6420           1 6EU1001     0.0000 
     33 CAV       131.8670  113.8600  155.3530           1 6EU1001     0.0000 
     34 CBB       131.1880  112.7190  154.9350           1 6EU1001     0.0000 
     35 CBD       132.9790  114.4650  154.4790           1 6EU1001     0.0000 
     36 OAC       132.4950  114.8990  157.1970           1 6EU1001     0.0000 
     37 CAL       130.7430  115.9250  156.3730           1 6EU1001     0.0000 
     38 OAB       131.6610  116.8020  156.6980           1 6EU1001     0.0000 
     39 CAQ       132.4530  116.2270  157.6230           1 6EU1001     0.0000 
     40 CAY       133.8220  116.9600  157.6850           1 6EU1001     0.0000 
     41 CBE       134.3680  117.2400  159.1500           1 6EU1001     0.0000 
     42 CBG       133.8230  118.2300  159.9430           1 6EU1001     0.0000 
     43 CBI       134.3260  118.4510  161.2310           1 6EU1001     0.0000 
     44 CBL       135.4030  117.6920  161.7140           1 6EU1001     0.0000 
     45 CBJ       135.9660  116.7140  160.9210           1 6EU1001     0.0000 
     46 CBH       135.4630  116.4840  159.6380           1 6EU1001     0.0000 
@<TRIPOS>BOND
     1    1    2 du   
     2    2    3 du   
     3    3    4 du   
     4    3    5 du   
     5    4    9 du   
     6    5    6 du   
     7    5    7 du   
     8    7    8 du   
     9    8    9 du   
    10    9   10 du   
    11   10   11 du   
    12   11   12 du   
    13   11   13 du   
    14   13   14 du   
    15   14   15 du   
    16   15   16 du   
    17   15   18 du   
    18   16   17 du   
    19   17   27 du   
    20   17   37 du   
    21   18   19 du   
    22   19   20 du   
    23   19   21 du   
    24   19   26 du   
    25   21   22 du   
    26   21   23 du   
    27   23   24 du   
    28   23   25 du   
    29   25   26 du   
    30   26   27 du   
    31   27   28 du   
    32   27   29 du   
    33   28   39 du   
    34   29   30 du   
    35   29   31 du   
    36   31   32 du   
    37   32   33 du   
    38   32   36 du   
    39   32   37 du   
    40   33   34 du   
    41   33   35 du   
    42   36   39 du   
    43   37   38 du   
    44   38   39 du   
    45   39   40 du   
    46   40   41 du   
    47   41   42 du   
    48   41   46 du   
    49   42   43 du   
    50   43   44 du   
    51   44   45 du   
    52   45   46 du   
@<TRIPOS>SUBSTRUCTURE
     1 6EU1001     1 GROUP   
@<TRIPOS>SET

