#    Name: 6oo3_4_6EU
#    Modification time : Fri May 22 19:43:37 2020

@<TRIPOS>MOLECULE
6oo3_4_6EU
   46    52     1     0     0
SMALL
NO_CHARGES


@<TRIPOS>ATOM
      1 CBT       157.6550  123.0240  149.4270           1 6EU1001     0.0000 
      2 OAH       158.8760  123.0620  150.1150           1 6EU1001     0.0000 
      3 CBQ       158.7830  123.3230  151.4860           1 6EU1001     0.0000 
      4 CBO       157.7320  124.1290  151.9910           1 6EU1001     0.0000 
      5 CBS       159.7490  122.8130  152.3700           1 6EU1001     0.0000 
      6 OAI       160.8170  122.0170  151.9630           1 6EU1001     0.0000 
      7 CBR       159.6610  123.0720  153.7030           1 6EU1001     0.0000 
      8 CBP       158.6240  123.8630  154.2100           1 6EU1001     0.0000 
      9 CBN       157.6610  124.3690  153.3320           1 6EU1001     0.0000 
     10 CBM       156.5470  125.2390  153.9540           1 6EU1001     0.0000 
     11 CBK       157.2350  126.4440  154.5780           1 6EU1001     0.0000 
     12 OAG       157.5110  127.3720  153.9000           1 6EU1001     0.0000 
     13 OAF       157.5720  126.4480  155.9700           1 6EU1001     0.0000 
     14 CBC       156.9300  127.4710  156.6990           1 6EU1001     0.0000 
     15 CAX       158.0290  128.0930  157.6110           1 6EU1001     0.0000 
     16 CAS       158.6810  129.4220  157.0390           1 6EU1001     0.0000 
     17 CAK       160.3100  129.7190  157.2260           1 6EU1001     0.0000 
     18 CAU       158.9610  127.0920  158.3330           1 6EU1001     0.0000 
     19 CAR       159.8410  127.6130  159.4540           1 6EU1001     0.0000 
     20 OAD       161.1000  127.1140  159.2340           1 6EU1001     0.0000 
     21 CAZ       159.3550  127.0380  160.8050           1 6EU1001     0.0000 
     22 OAE       158.7330  126.0770  160.9670           1 6EU1001     0.0000 
     23 CBA       159.8400  127.9680  161.8590           1 6EU1001     0.0000 
     24 CBF       160.0140  127.6650  163.3510           1 6EU1001     0.0000 
     25 CAW       159.9520  129.3100  161.1900           1 6EU1001     0.0000 
     26 CAO       159.7980  129.0980  159.6640           1 6EU1001     0.0000 
     27 CAJ       160.7230  130.0510  158.6930           1 6EU1001     0.0000 
     28 OAA       160.2320  131.7300  158.9160           1 6EU1001     0.0000 
     29 CAN       162.1980  130.1060  158.8830           1 6EU1001     0.0000 
     30 CAT       162.6570  131.1260  159.9870           1 6EU1001     0.0000 
     31 CAP       162.9680  130.6590  157.6080           1 6EU1001     0.0000 
     32 CAM       161.9520  131.5470  156.6320           1 6EU1001     0.0000 
     33 CAV       162.6030  131.8900  155.3440           1 6EU1001     0.0000 
     34 CBB       163.7450  131.2100  154.9300           1 6EU1001     0.0000 
     35 CBD       162.0010  133.0010  154.4660           1 6EU1001     0.0000 
     36 OAC       161.5600  132.5240  157.1830           1 6EU1001     0.0000 
     37 CAL       160.5350  130.7690  156.3640           1 6EU1001     0.0000 
     38 OAB       159.6590  131.6890  156.6820           1 6EU1001     0.0000 
     39 CAQ       160.2310  132.4840  157.6060           1 6EU1001     0.0000 
     40 CAY       159.4990  133.8530  157.6630           1 6EU1001     0.0000 
     41 CBE       159.2110  134.3910  159.1290           1 6EU1001     0.0000 
     42 CBG       158.2010  133.8570  159.9040           1 6EU1001     0.0000 
     43 CBI       157.9740  134.3530  161.1940           1 6EU1001     0.0000 
     44 CBL       158.7490  135.4100  161.6960           1 6EU1001     0.0000 
     45 CBJ       159.7470  135.9620  160.9210           1 6EU1001     0.0000 
     46 CBH       159.9830  135.4660  159.6370           1 6EU1001     0.0000 
@<TRIPOS>BOND
     1    1    2 du   
     2    2    3 du   
     3    3    4 du   
     4    3    5 du   
     5    4    9 du   
     6    5    6 du   
     7    5    7 du   
     8    7    8 du   
     9    8    9 du   
    10    9   10 du   
    11   10   11 du   
    12   11   12 du   
    13   11   13 du   
    14   13   14 du   
    15   14   15 du   
    16   15   16 du   
    17   15   18 du   
    18   16   17 du   
    19   17   27 du   
    20   17   37 du   
    21   18   19 du   
    22   19   20 du   
    23   19   21 du   
    24   19   26 du   
    25   21   22 du   
    26   21   23 du   
    27   23   24 du   
    28   23   25 du   
    29   25   26 du   
    30   26   27 du   
    31   27   28 du   
    32   27   29 du   
    33   28   39 du   
    34   29   30 du   
    35   29   31 du   
    36   31   32 du   
    37   32   33 du   
    38   32   36 du   
    39   32   37 du   
    40   33   34 du   
    41   33   35 du   
    42   36   39 du   
    43   37   38 du   
    44   38   39 du   
    45   39   40 du   
    46   40   41 du   
    47   41   42 du   
    48   41   46 du   
    49   42   43 du   
    50   43   44 du   
    51   44   45 du   
    52   45   46 du   
@<TRIPOS>SUBSTRUCTURE
     1 6EU1001     1 GROUP   
@<TRIPOS>SET

