#    Name: 6dwm_1_CPS
#    Modification time : Fri May 22 19:34:12 2020

@<TRIPOS>MOLECULE
6dwm_1_CPS
   75    78     1     0     0
SMALL
NO_CHARGES


@<TRIPOS>ATOM
      1 C1        -17.5550  -22.2990    0.8920 C.3       1 CPS603      0.0000 
      2 C2        -16.9160  -21.0430    1.4970 C.3       1 CPS603      0.0000 
      3 C3        -14.7960  -22.2840    2.1840 C.3       1 CPS603      0.0000 
      4 C4        -13.7530  -22.5680    3.2720 C.3       1 CPS603      0.0000 
      5 C5        -13.2550  -21.2450    3.8850 C.3       1 CPS603      0.0000 
      6 C6        -14.4640  -20.5160    4.4030 C.3       1 CPS603      0.0000 
      7 C7        -13.8400  -19.3010    5.1630 C.3       1 CPS603      0.0000 
      8 C8        -12.6330  -19.9540    5.8410 C.3       1 CPS603      0.0000 
      9 C9        -12.5100  -21.3800    5.2460 C.3       1 CPS603      0.0000 
     10 C10       -12.4210  -20.4890    2.8690 C.3       1 CPS603      0.0000 
     11 C11       -16.2250  -20.3060    0.3950 C.3       1 CPS603      0.0000 
     12 C12       -18.4150  -23.0950    1.8350 C.3       1 CPS603      0.0000 
     13 C13       -19.5310  -22.1520    2.3280 C.3       1 CPS603      0.0000 
     14 C14       -18.9530  -20.9430    3.0080 C.3       1 CPS603      0.0000 
     15 C15       -18.1020  -20.1820    1.9870 C.3       1 CPS603      0.0000 
     16 C16       -17.5620  -18.8890    2.5770 C.3       1 CPS603      0.0000 
     17 C17       -16.5290  -19.1360    3.7120 C.3       1 CPS603      0.0000 
     18 C18       -15.3940  -20.0660    3.2320 C.3       1 CPS603      0.0000 
     19 C19       -15.9310  -21.3690    2.6450 C.3       1 CPS603      0.0000 
     20 C20       -11.0420  -21.8240    5.0710 C.3       1 CPS603      0.0000 
     21 C21       -10.9470  -23.3210    4.8470 C.3       1 CPS603      0.0000 
     22 C22       -10.3280  -21.4570    6.3890 C.3       1 CPS603      0.0000 
     23 C23        -9.0910  -22.3070    6.6020 C.3       1 CPS603      0.0000 
     24 C24        -8.4080  -21.6700    7.8060 C.2       1 CPS603      0.0000 
     25 C25        -7.0140  -22.0580    9.7120 C.3       1 CPS603      0.0000 
     26 C26        -6.2830  -23.2330   10.3460 C.3       1 CPS603      0.0000 
     27 N1         -7.7060  -22.6090    8.5310 N.am      1 CPS603      0.0000 
     28 O1         -8.4540  -20.5160    8.1090 O.2       1 CPS603      0.0000 
     29 O2        -20.3740  -22.8270    3.2400 O.3       1 CPS603      0.0000 
     30 O3        -17.1210  -19.7510    4.8430 O.3       1 CPS603      0.0000 
     31 O4        -14.3410  -23.3390    4.3140 O.3       1 CPS603      0.0000 
     32 H1        -16.8530  -22.8610    0.5270 H         1 CPS603      0.0000 
     33 H1A       -18.0680  -22.0420    0.1100 H         1 CPS603      0.0000 
     34 H3        -14.3550  -21.8830    1.4180 H         1 CPS603      0.0000 
     35 H3A       -15.1700  -23.1240    1.8750 H         1 CPS603      0.0000 
     36 H4        -12.9890  -23.0220    2.8860 H         1 CPS603      0.0000 
     37 H6        -14.9350  -21.1250    4.9920 H         1 CPS603      0.0000 
     38 H7        -14.4580  -18.9190    5.8060 H         1 CPS603      0.0000 
     39 H7A       -13.5790  -18.5890    4.5580 H         1 CPS603      0.0000 
     40 H8        -12.7460  -19.9850    6.8040 H         1 CPS603      0.0000 
     41 H8A       -11.8250  -19.4400    5.6880 H         1 CPS603      0.0000 
     42 H9        -12.9400  -22.0270    5.8260 H         1 CPS603      0.0000 
     43 H10       -11.9970  -19.7040    3.2490 H         1 CPS603      0.0000 
     44 H10A      -12.9480  -20.1790    2.1160 H         1 CPS603      0.0000 
     45 H10B      -11.7080  -21.0330    2.4980 H         1 CPS603      0.0000 
     46 H11       -16.8610  -20.0820   -0.3020 H         1 CPS603      0.0000 
     47 H11A      -15.8320  -19.4890    0.7390 H         1 CPS603      0.0000 
     48 H11B      -15.5230  -20.8600    0.0170 H         1 CPS603      0.0000 
     49 H12       -17.9180  -23.4280    2.5980 H         1 CPS603      0.0000 
     50 H12A      -18.8160  -23.8680    1.4080 H         1 CPS603      0.0000 
     51 H13       -20.0630  -21.8480    1.5760 H         1 CPS603      0.0000 
     52 H14       -18.4140  -21.2040    3.7720 H         1 CPS603      0.0000 
     53 H14A      -19.6580  -20.3740    3.3540 H         1 CPS603      0.0000 
     54 H15       -18.6550  -19.9730    1.2180 H         1 CPS603      0.0000 
     55 H16       -18.2970  -18.3500    2.9080 H         1 CPS603      0.0000 
     56 H16A      -17.1610  -18.3530    1.8740 H         1 CPS603      0.0000 
     57 H17       -16.1060  -18.3070    3.9850 H         1 CPS603      0.0000 
     58 H18       -14.9060  -19.5560    2.5680 H         1 CPS603      0.0000 
     59 H19       -16.4460  -21.8290    3.3270 H         1 CPS603      0.0000 
     60 H20       -10.6190  -21.3720    4.3240 H         1 CPS603      0.0000 
     61 H21       -11.1320  -23.8140    5.6610 H         1 CPS603      0.0000 
     62 H21A      -10.0610  -23.5790    4.5460 H         1 CPS603      0.0000 
     63 H21B      -11.5800  -23.6200    4.1750 H         1 CPS603      0.0000 
     64 H22       -10.0820  -20.5190    6.3760 H         1 CPS603      0.0000 
     65 H22A      -10.9380  -21.5740    7.1340 H         1 CPS603      0.0000 
     66 H23        -9.3180  -23.2320    6.7860 H         1 CPS603      0.0000 
     67 H23A       -8.5070  -22.2920    5.8280 H         1 CPS603      0.0000 
     68 H25        -6.4000  -21.3590    9.4360 H         1 CPS603      0.0000 
     69 H25A       -7.6620  -21.6670   10.3190 H         1 CPS603      0.0000 
     70 H261       -6.8880  -23.9760   10.5020 H         1 CPS603      0.0000 
     71 HN1        -7.6510  -23.4470    8.3450 H         1 CPS603      0.0000 
     72 HO2       -21.0680  -23.0360    2.7950 H         1 CPS603      0.0000 
     73 HO3       -17.2770  -19.1480    5.4210 H         1 CPS603      0.0000 
     74 HO4       -14.2890  -24.1560    4.0860 H         1 CPS603      0.0000 
     75 H262       -5.9340  -22.9770   11.2170 H         1 CPS603      0.0000 
@<TRIPOS>BOND
     1    1    2 1    
     2    1   12 1    
     3    1   32 1    
     4    1   33 1    
     5    2   11 1    
     6    2   15 1    
     7    2   19 1    
     8    3    4 1    
     9    3   19 1    
    10    3   34 1    
    11    3   35 1    
    12    4    5 1    
    13    4   31 1    
    14    4   36 1    
    15   31   74 1    
    16    5    6 1    
    17    5    9 1    
    18    5   10 1    
    19    6    7 1    
    20    6   18 1    
    21    6   37 1    
    22    7    8 1    
    23    7   38 1    
    24    7   39 1    
    25    8    9 1    
    26    8   40 1    
    27    8   41 1    
    28    9   20 1    
    29    9   42 1    
    30   10   43 1    
    31   10   44 1    
    32   10   45 1    
    33   11   46 1    
    34   11   47 1    
    35   11   48 1    
    36   12   13 1    
    37   12   49 1    
    38   12   50 1    
    39   13   14 1    
    40   13   29 1    
    41   13   51 1    
    42   29   72 1    
    43   14   15 1    
    44   14   52 1    
    45   14   53 1    
    46   15   16 1    
    47   15   54 1    
    48   16   17 1    
    49   16   55 1    
    50   16   56 1    
    51   17   18 1    
    52   17   30 1    
    53   17   57 1    
    54   30   73 1    
    55   18   19 1    
    56   18   58 1    
    57   19   59 1    
    58   20   21 1    
    59   20   22 1    
    60   20   60 1    
    61   21   61 1    
    62   21   62 1    
    63   21   63 1    
    64   22   23 1    
    65   22   64 1    
    66   22   65 1    
    67   23   24 1    
    68   23   66 1    
    69   23   67 1    
    70   24   27 am   
    71   24   28 2    
    72   25   26 1    
    73   25   27 1    
    74   25   68 1    
    75   25   69 1    
    76   26   70 1    
    77   26   75 1    
    78   27   71 1    
@<TRIPOS>SUBSTRUCTURE
     1 CPS603      1 GROUP   
@<TRIPOS>SET

