#    Name: 5v0x_3_MYA
#    Modification time : Fri May 22 19:14:07 2020

@<TRIPOS>MOLECULE
5v0x_3_MYA
   63    65     1     0     0
SMALL
NO_CHARGES


@<TRIPOS>ATOM
      1 S1         12.3100  -69.8860   -3.7590 S.3       1 MYA501      0.0000 
      2 C2         12.1100  -71.3070   -2.7170 C.3       1 MYA501      0.0000 
      3 C3         13.3730  -71.4950   -1.8940 C.3       1 MYA501      0.0000 
      4 N4         13.3660  -72.7130   -1.1180 N.am      1 MYA501      0.0000 
      5 C5         13.1300  -72.7080    0.1850 C.2       1 MYA501      0.0000 
      6 O5         12.9650  -71.6750    0.8170 O.2       1 MYA501      0.0000 
      7 C6         13.0690  -74.0710    0.8540 C.3       1 MYA501      0.0000 
      8 C7         13.6310  -74.0360    2.2840 C.3       1 MYA501      0.0000 
      9 N8         14.9840  -73.4940    2.3790 N.am      1 MYA501      0.0000 
     10 C9         16.0120  -74.1240    1.8210 C.2       1 MYA501      0.0000 
     11 O9         15.8990  -75.1980    1.2500 O.2       1 MYA501      0.0000 
     12 C10        17.3590  -73.4450    1.9230 C.3       1 MYA501      0.0000 
     13 O10        17.3270  -72.4780    2.9820 O.3       1 MYA501      0.0000 
     14 C11        17.7810  -72.7580    0.6100 C.3       1 MYA501      0.0000 
     15 C12        18.9970  -71.8990    0.9350 C.3       1 MYA501      0.0000 
     16 C13        16.6730  -71.8670    0.0650 C.3       1 MYA501      0.0000 
     17 C14        18.1410  -73.8130   -0.4360 C.3       1 MYA501      0.0000 
     18 N1A        16.9040  -68.1620   -3.6980 N.ar      1 MYA501      0.0000 
     19 O1A        23.3830  -73.1210    1.0470 O.co2     1 MYA501      0.0000 
     20 P1A        23.4250  -71.8120    1.7800 P.3       1 MYA501      0.0000 
     21 C1X        21.2770  -67.4910   -0.9380 C.3       1 MYA501      0.0000 
     22 C2A        18.1370  -67.8070   -4.1130 C.ar      1 MYA501      0.0000 
     23 O2A        24.4660  -71.5660    2.8460 O.co2     1 MYA501      0.0000 
     24 P2A        20.7890  -72.5680    2.7050 P.3       1 MYA501      0.0000 
     25 C2M        12.8850  -70.7010   -5.1200 C.2       1 MYA501      0.0000 
     26 O2M        12.7930  -71.9210   -5.1990 O.2       1 MYA501      0.0000 
     27 C2X        21.6800  -66.6420    0.2520 C.3       1 MYA501      0.0000 
     28 O2X        21.3230  -65.2600    0.0760 O.3       1 MYA501      0.0000 
     29 N3A        19.1830  -67.6660   -3.2800 N.ar      1 MYA501      0.0000 
     30 O3A        21.9500  -71.4860    2.3750 O.3       1 MYA501      0.0000 
     31 C3M        13.5310  -69.9430   -6.2550 C.3       1 MYA501      0.0000 
     32 C3X        23.1830  -66.9120    0.2940 C.3       1 MYA501      0.0000 
     33 O3X        23.8620  -66.1490   -0.7040 O.3       1 MYA501      0.0000 
     34 P3X        24.7070  -64.8450   -0.2750 P.3       1 MYA501      0.0000 
     35 C4A        19.0390  -67.8870   -1.9530 C.ar      1 MYA501      0.0000 
     36 O4A        19.7330  -71.9040    3.5540 O.co2     1 MYA501      0.0000 
     37 C4M        15.0430  -70.0870   -6.1360 C.3       1 MYA501      0.0000 
     38 C4X        23.2810  -68.3690   -0.1130 C.3       1 MYA501      0.0000 
     39 O4X        22.0620  -68.6740   -0.8140 O.3       1 MYA501      0.0000 
     40 C5A        17.7280  -68.2750   -1.4280 C.ar      1 MYA501      0.0000 
     41 O5A        21.3940  -73.8750    3.1470 O.co2     1 MYA501      0.0000 
     42 C5M        15.8030  -69.2580   -7.1780 C.3       1 MYA501      0.0000 
     43 C5X        23.4540  -69.2640    1.1110 C.3       1 MYA501      0.0000 
     44 O5X        23.4880  -70.6250    0.6960 O.3       1 MYA501      0.0000 
     45 C6A        16.6260  -68.4100   -2.3980 C.ar      1 MYA501      0.0000 
     46 N6A        15.3890  -68.7730   -1.9770 N.pl3     1 MYA501      0.0000 
     47 O6A        20.1050  -72.7570    1.2580 O.3       1 MYA501      0.0000 
     48 C6M        17.3030  -69.5510   -7.0820 C.3       1 MYA501      0.0000 
     49 N7A        17.8630  -68.4330   -0.0960 N.2       1 MYA501      0.0000 
     50 O7A        25.1650  -64.2320   -1.5780 O.co2     1 MYA501      0.0000 
     51 C7M        18.1560  -68.5280   -7.8420 C.3       1 MYA501      0.0000 
     52 C8A        19.1510  -68.1690    0.2180 C.2       1 MYA501      0.0000 
     53 O8A        23.7230  -64.0110    0.5080 O.co2     1 MYA501      0.0000 
     54 C8M        18.0770  -68.7980   -9.3360 C.3       1 MYA501      0.0000 
     55 N9A        19.8420  -67.8290   -0.8890 N.pl3     1 MYA501      0.0000 
     56 O9A        25.8350  -65.4010    0.5740 O.co2     1 MYA501      0.0000 
     57 C9M        18.8980  -67.7950  -10.1420 C.3       1 MYA501      0.0000 
     58 CAM        18.7830  -68.0310  -11.6530 C.3       1 MYA501      0.0000 
     59 CBM        19.5970  -69.2470  -12.0870 C.3       1 MYA501      0.0000 
     60 CCM        19.4460  -69.5760  -13.5680 C.3       1 MYA501      0.0000 
     61 CDM        20.0760  -68.5490  -14.4970 C.3       1 MYA501      0.0000 
     62 CEM        20.0490  -69.0320  -15.9510 C.3       1 MYA501      0.0000 
     63 CFM        20.6900  -68.0370  -16.9120 C.3       1 MYA501      0.0000 
@<TRIPOS>BOND
     1    1    2 1    
     2    1   25 1    
     3    2    3 1    
     4    3    4 1    
     5    4    5 am   
     6    5    6 2    
     7    5    7 1    
     8    7    8 1    
     9    8    9 1    
    10    9   10 am   
    11   10   11 2    
    12   10   12 1    
    13   12   13 1    
    14   12   14 1    
    15   14   15 1    
    16   14   16 1    
    17   14   17 1    
    18   15   47 1    
    19   18   22 ar   
    20   18   45 ar   
    21   19   20 ar   
    22   20   23 ar   
    23   20   30 1    
    24   20   44 1    
    25   21   27 1    
    26   21   39 1    
    27   21   55 1    
    28   22   29 ar   
    29   24   30 1    
    30   24   36 ar   
    31   24   41 ar   
    32   24   47 1    
    33   25   26 2    
    34   25   31 1    
    35   27   28 1    
    36   27   32 1    
    37   29   35 ar   
    38   31   37 1    
    39   32   33 1    
    40   32   38 1    
    41   33   34 1    
    42   34   50 ar   
    43   34   53 ar   
    44   34   56 ar   
    45   35   40 ar   
    46   35   55 1    
    47   37   42 1    
    48   38   39 1    
    49   38   43 1    
    50   40   45 ar   
    51   40   49 1    
    52   42   48 1    
    53   43   44 1    
    54   45   46 1    
    55   48   51 1    
    56   49   52 2    
    57   51   54 1    
    58   52   55 1    
    59   54   57 1    
    60   57   58 1    
    61   58   59 1    
    62   59   60 1    
    63   60   61 1    
    64   61   62 1    
    65   62   63 1    
@<TRIPOS>SUBSTRUCTURE
     1 MYA501      1 GROUP   
@<TRIPOS>SET

