#    Name: 5v0x_1_MYA
#    Modification time : Fri May 22 19:13:50 2020

@<TRIPOS>MOLECULE
5v0x_1_MYA
   63    65     1     0     0
SMALL
NO_CHARGES


@<TRIPOS>ATOM
      1 S1         33.2760  -19.2110  -21.4080 S.3       1 MYA501      0.0000 
      2 C2         33.1650  -17.5320  -20.8380 C.3       1 MYA501      0.0000 
      3 C3         34.4250  -16.7670  -21.2670 C.3       1 MYA501      0.0000 
      4 N4         34.4650  -15.4080  -20.7750 N.am      1 MYA501      0.0000 
      5 C5         34.1820  -14.3610  -21.5470 C.2       1 MYA501      0.0000 
      6 O5         34.0460  -14.4540  -22.7580 O.2       1 MYA501      0.0000 
      7 C6         34.0390  -13.0150  -20.8580 C.3       1 MYA501      0.0000 
      8 C7         34.6580  -11.9080  -21.7180 C.3       1 MYA501      0.0000 
      9 N8         36.0620  -12.1230  -22.0630 N.am      1 MYA501      0.0000 
     10 C9         37.0330  -12.2120  -21.1420 C.2       1 MYA501      0.0000 
     11 O9         36.8500  -12.0070  -19.9450 O.2       1 MYA501      0.0000 
     12 C10        38.4070  -12.5380  -21.6710 C.3       1 MYA501      0.0000 
     13 O10        38.4070  -12.2060  -23.0620 O.3       1 MYA501      0.0000 
     14 C11        38.7800  -14.0110  -21.5580 C.3       1 MYA501      0.0000 
     15 C12        40.0470  -14.1660  -22.4090 C.3       1 MYA501      0.0000 
     16 C13        37.6520  -14.8700  -22.1300 C.3       1 MYA501      0.0000 
     17 C14        39.0330  -14.4100  -20.1040 C.3       1 MYA501      0.0000 
     18 N1A        37.9700  -20.2810  -22.9390 N.ar      1 MYA501      0.0000 
     19 O1A        44.3970  -13.6760  -21.3820 O.co2     1 MYA501      0.0000 
     20 P1A        44.4340  -13.7200  -22.8830 P.3       1 MYA501      0.0000 
     21 C1X        42.2860  -18.2610  -25.0200 C.3       1 MYA501      0.0000 
     22 C2A        39.2320  -20.7610  -22.9470 C.ar      1 MYA501      0.0000 
     23 O2A        45.5570  -13.0230  -23.6340 O.co2     1 MYA501      0.0000 
     24 P2A        41.9040  -12.3500  -22.8840 P.3       1 MYA501      0.0000 
     25 C2M        33.9250  -19.9400  -20.0410 C.2       1 MYA501      0.0000 
     26 O2M        33.9210  -19.3410  -18.9690 O.2       1 MYA501      0.0000 
     27 C2X        42.7410  -17.8400  -26.4070 C.3       1 MYA501      0.0000 
     28 O2X        42.4910  -18.8280  -27.3960 O.3       1 MYA501      0.0000 
     29 N3A        40.2520  -20.1090  -23.5440 N.ar      1 MYA501      0.0000 
     30 O3A        43.0190  -13.2990  -23.5470 O.3       1 MYA501      0.0000 
     31 C3M        34.5380  -21.3200  -20.1050 C.3       1 MYA501      0.0000 
     32 C3X        44.2280  -17.6680  -26.1790 C.3       1 MYA501      0.0000 
     33 O3X        44.8710  -18.9470  -26.2300 O.3       1 MYA501      0.0000 
     34 P3X        45.6780  -19.4120  -27.5510 P.3       1 MYA501      0.0000 
     35 C4A        40.0560  -18.9210  -24.1600 C.ar      1 MYA501      0.0000 
     36 O4A        40.9090  -11.9880  -23.9540 O.co2     1 MYA501      0.0000 
     37 C4M        36.0480  -21.1410  -19.9090 C.3       1 MYA501      0.0000 
     38 C4X        44.3160  -17.1460  -24.7530 C.3       1 MYA501      0.0000 
     39 O4X        43.0400  -17.4200  -24.1530 O.3       1 MYA501      0.0000 
     40 C5A        38.7010  -18.3430  -24.1950 C.ar      1 MYA501      0.0000 
     41 O5A        42.4580  -11.2560  -22.0190 O.co2     1 MYA501      0.0000 
     42 C5M        36.8360  -22.4560  -19.9660 C.3       1 MYA501      0.0000 
     43 C5X        44.6050  -15.6530  -24.6760 C.3       1 MYA501      0.0000 
     44 O5X        44.4110  -15.2600  -23.3110 O.3       1 MYA501      0.0000 
     45 C6A        37.6260  -19.1170  -23.5400 C.ar      1 MYA501      0.0000 
     46 N6A        36.3530  -18.6520  -23.5280 N.pl3     1 MYA501      0.0000 
     47 O6A        41.1450  -13.3900  -21.9030 O.3       1 MYA501      0.0000 
     48 C6M        38.3260  -22.2200  -19.7100 C.3       1 MYA501      0.0000 
     49 N7A        38.7860  -17.1810  -24.8700 N.2       1 MYA501      0.0000 
     50 O7A        46.0330  -20.8620  -27.2910 O.co2     1 MYA501      0.0000 
     51 C7M        39.1970  -23.4150  -20.1050 C.3       1 MYA501      0.0000 
     52 C8A        40.0930  -17.0120  -25.2380 C.2       1 MYA501      0.0000 
     53 O8A        44.6950  -19.1610  -28.6540 O.co2     1 MYA501      0.0000 
     54 C8M        38.9620  -24.5690  -19.1300 C.3       1 MYA501      0.0000 
     55 N9A        40.8420  -18.0650  -24.8180 N.pl3     1 MYA501      0.0000 
     56 O9A        46.8680  -18.4860  -27.6280 O.co2     1 MYA501      0.0000 
     57 C9M        39.7340  -25.8310  -19.4870 C.3       1 MYA501      0.0000 
     58 CAM        39.6490  -26.8380  -18.3430 C.3       1 MYA501      0.0000 
     59 CBM        40.5950  -26.4940  -17.2040 C.3       1 MYA501      0.0000 
     60 CCM        40.4040  -27.4220  -16.0060 C.3       1 MYA501      0.0000 
     61 CDM        40.9190  -28.8390  -16.2650 C.3       1 MYA501      0.0000 
     62 CEM        40.9530  -29.6890  -15.0010 C.3       1 MYA501      0.0000 
     63 CFM        41.2900  -31.1300  -15.3370 C.3       1 MYA501      0.0000 
@<TRIPOS>BOND
     1    1    2 1    
     2    1   25 1    
     3    2    3 1    
     4    3    4 1    
     5    4    5 am   
     6    5    6 2    
     7    5    7 1    
     8    7    8 1    
     9    8    9 1    
    10    9   10 am   
    11   10   11 2    
    12   10   12 1    
    13   12   13 1    
    14   12   14 1    
    15   14   15 1    
    16   14   16 1    
    17   14   17 1    
    18   15   47 1    
    19   18   22 ar   
    20   18   45 ar   
    21   19   20 ar   
    22   20   23 ar   
    23   20   30 1    
    24   20   44 1    
    25   21   27 1    
    26   21   39 1    
    27   21   55 1    
    28   22   29 ar   
    29   24   30 1    
    30   24   36 ar   
    31   24   41 ar   
    32   24   47 1    
    33   25   26 2    
    34   25   31 1    
    35   27   28 1    
    36   27   32 1    
    37   29   35 ar   
    38   31   37 1    
    39   32   33 1    
    40   32   38 1    
    41   33   34 1    
    42   34   50 ar   
    43   34   53 ar   
    44   34   56 ar   
    45   35   40 ar   
    46   35   55 1    
    47   37   42 1    
    48   38   39 1    
    49   38   43 1    
    50   40   45 ar   
    51   40   49 1    
    52   42   48 1    
    53   43   44 1    
    54   45   46 1    
    55   48   51 1    
    56   49   52 2    
    57   51   54 1    
    58   52   55 1    
    59   54   57 1    
    60   57   58 1    
    61   58   59 1    
    62   59   60 1    
    63   60   61 1    
    64   61   62 1    
    65   62   63 1    
@<TRIPOS>SUBSTRUCTURE
     1 MYA501      1 GROUP   
@<TRIPOS>SET

