#    Name: 5v0x_2_MYA
#    Modification time : Fri May 22 19:13:58 2020

@<TRIPOS>MOLECULE
5v0x_2_MYA
   63    65     1     0     0
SMALL
NO_CHARGES


@<TRIPOS>ATOM
      1 S1          5.8760  -39.5370  -53.9040 S.3       1 MYA501      0.0000 
      2 C2          6.3140  -39.0550  -55.5520 C.3       1 MYA501      0.0000 
      3 C3          5.1760  -39.2090  -56.5610 C.3       1 MYA501      0.0000 
      4 N4          4.5310  -38.0350  -57.1150 N.am      1 MYA501      0.0000 
      5 C5          5.0110  -37.1430  -57.9860 C.2       1 MYA501      0.0000 
      6 O5          5.4180  -36.0630  -57.5970 O.2       1 MYA501      0.0000 
      7 C6          4.9960  -37.4580  -59.4730 C.3       1 MYA501      0.0000 
      8 C7          4.5420  -36.2430  -60.3000 C.3       1 MYA501      0.0000 
      9 N8          3.1770  -35.8120  -59.9830 N.am      1 MYA501      0.0000 
     10 C9          2.1510  -36.6060  -60.2700 C.2       1 MYA501      0.0000 
     11 O9          2.2870  -37.5970  -60.9760 O.2       1 MYA501      0.0000 
     12 C10         0.8010  -36.2270  -59.7180 C.3       1 MYA501      0.0000 
     13 O10         0.7940  -34.8370  -59.3840 O.3       1 MYA501      0.0000 
     14 C11         0.4020  -37.0590  -58.4970 C.3       1 MYA501      0.0000 
     15 C12        -0.9000  -36.4700  -57.9800 C.3       1 MYA501      0.0000 
     16 C13         1.4400  -36.9770  -57.3670 C.3       1 MYA501      0.0000 
     17 C14         0.2070  -38.5060  -58.9510 C.3       1 MYA501      0.0000 
     18 N1A         1.2210  -38.4550  -52.3240 N.ar      1 MYA501      0.0000 
     19 O1A        -5.1350  -37.0370  -59.0070 O.co2     1 MYA501      0.0000 
     20 P1A        -5.2000  -35.7140  -58.2590 P.3       1 MYA501      0.0000 
     21 C1X        -3.1500  -35.7710  -53.2280 C.3       1 MYA501      0.0000 
     22 C2A        -0.0260  -38.6590  -51.8560 C.ar      1 MYA501      0.0000 
     23 O2A        -6.2230  -34.6530  -58.6040 O.co2     1 MYA501      0.0000 
     24 P2A        -2.6370  -35.1370  -59.3730 P.3       1 MYA501      0.0000 
     25 C2M         5.3580  -41.1200  -54.0520 C.2       1 MYA501      0.0000 
     26 O2M         5.4810  -41.7280  -55.1080 O.2       1 MYA501      0.0000 
     27 C2X        -3.5630  -34.3260  -53.0940 C.3       1 MYA501      0.0000 
     28 O2X        -3.1920  -33.8460  -51.8000 O.3       1 MYA501      0.0000 
     29 N3A        -1.0620  -37.8730  -52.1760 N.ar      1 MYA501      0.0000 
     30 O3A        -3.7380  -35.0310  -58.2130 O.3       1 MYA501      0.0000 
     31 C3M         4.7200  -41.8130  -52.8590 C.3       1 MYA501      0.0000 
     32 C3X        -5.0580  -34.4490  -53.3160 C.3       1 MYA501      0.0000 
     33 O3X        -5.6600  -34.9590  -52.1360 O.3       1 MYA501      0.0000 
     34 P3X        -6.3970  -33.9820  -51.0970 P.3       1 MYA501      0.0000 
     35 C4A        -0.8960  -36.8190  -53.0110 C.ar      1 MYA501      0.0000 
     36 O4A        -1.6420  -34.0230  -59.1650 O.co2     1 MYA501      0.0000 
     37 C4M         3.2000  -41.6610  -52.9380 C.3       1 MYA501      0.0000 
     38 C4X        -5.1850  -35.5450  -54.3550 C.3       1 MYA501      0.0000 
     39 O4X        -3.9600  -36.2850  -54.2920 O.3       1 MYA501      0.0000 
     40 C5A         0.4320  -36.5460  -53.5700 C.ar      1 MYA501      0.0000 
     41 O5A        -3.2890  -35.2940  -60.7350 O.co2     1 MYA501      0.0000 
     42 C5M         2.4830  -42.3400  -51.7700 C.3       1 MYA501      0.0000 
     43 C5X        -5.3630  -34.9700  -55.7520 C.3       1 MYA501      0.0000 
     44 O5X        -5.2750  -36.0410  -56.6920 O.3       1 MYA501      0.0000 
     45 C6A         1.5210  -37.4340  -53.1650 C.ar      1 MYA501      0.0000 
     46 N6A         2.7780  -37.2360  -53.6320 N.pl3     1 MYA501      0.0000 
     47 O6A        -1.8990  -36.5130  -58.9960 O.3       1 MYA501      0.0000 
     48 C6M         0.9660  -42.3290  -51.9820 C.3       1 MYA501      0.0000 
     49 N7A         0.3110  -35.4580  -54.3480 N.2       1 MYA501      0.0000 
     50 O7A        -6.6560  -34.8680  -49.9050 O.co2     1 MYA501      0.0000 
     51 C7M         0.1830  -42.5950  -50.6890 C.3       1 MYA501      0.0000 
     52 C8A        -0.9820  -35.0620  -54.3060 C.2       1 MYA501      0.0000 
     53 O8A        -5.4330  -32.8420  -50.8480 O.co2     1 MYA501      0.0000 
     54 C8M         0.3600  -44.0090  -50.1180 C.3       1 MYA501      0.0000 
     55 N9A        -1.7010  -35.8730  -53.5060 N.pl3     1 MYA501      0.0000 
     56 O9A        -7.6660  -33.5600  -51.8200 O.co2     1 MYA501      0.0000 
     57 C9M        -0.6130  -44.2360  -48.9490 C.3       1 MYA501      0.0000 
     58 CAM        -0.6120  -45.6730  -48.4320 C.3       1 MYA501      0.0000 
     59 CBM        -1.3270  -46.6170  -49.3960 C.3       1 MYA501      0.0000 
     60 CCM        -1.2080  -48.0840  -48.9790 C.3       1 MYA501      0.0000 
     61 CDM        -1.7490  -48.3520  -47.5780 C.3       1 MYA501      0.0000 
     62 CEM        -1.7930  -49.8550  -47.3060 C.3       1 MYA501      0.0000 
     63 CFM        -2.2940  -50.2180  -45.9160 C.3       1 MYA501      0.0000 
@<TRIPOS>BOND
     1    1    2 1    
     2    1   25 1    
     3    2    3 1    
     4    3    4 1    
     5    4    5 am   
     6    5    6 2    
     7    5    7 1    
     8    7    8 1    
     9    8    9 1    
    10    9   10 am   
    11   10   11 2    
    12   10   12 1    
    13   12   13 1    
    14   12   14 1    
    15   14   15 1    
    16   14   16 1    
    17   14   17 1    
    18   15   47 1    
    19   18   22 ar   
    20   18   45 ar   
    21   19   20 ar   
    22   20   23 ar   
    23   20   30 1    
    24   20   44 1    
    25   21   27 1    
    26   21   39 1    
    27   21   55 1    
    28   22   29 ar   
    29   24   30 1    
    30   24   36 ar   
    31   24   41 ar   
    32   24   47 1    
    33   25   26 2    
    34   25   31 1    
    35   27   28 1    
    36   27   32 1    
    37   29   35 ar   
    38   31   37 1    
    39   32   33 1    
    40   32   38 1    
    41   33   34 1    
    42   34   50 ar   
    43   34   53 ar   
    44   34   56 ar   
    45   35   40 ar   
    46   35   55 1    
    47   37   42 1    
    48   38   39 1    
    49   38   43 1    
    50   40   45 ar   
    51   40   49 1    
    52   42   48 1    
    53   43   44 1    
    54   45   46 1    
    55   48   51 1    
    56   49   52 2    
    57   51   54 1    
    58   52   55 1    
    59   54   57 1    
    60   57   58 1    
    61   58   59 1    
    62   59   60 1    
    63   60   61 1    
    64   61   62 1    
    65   62   63 1    
@<TRIPOS>SUBSTRUCTURE
     1 MYA501      1 GROUP   
@<TRIPOS>SET

