#    Name: 6khf_1_3NG
#    Modification time : Fri May 22 19:29:57 2020

@<TRIPOS>MOLECULE
6khf_1_3NG
   25    28     1     0     0
SMALL
NO_CHARGES


@<TRIPOS>ATOM
      1 C1         76.0570   35.9650   12.0690 C.ar      1 3NG1000     0.0000 
      2 C2         75.8700   37.0430   11.2380 C.ar      1 3NG1000     0.0000 
      3 C3         74.5730   37.4090   10.8250 C.ar      1 3NG1000     0.0000 
      4 C4         73.4650   36.6810   11.2430 C.ar      1 3NG1000     0.0000 
      5 C5         73.6540   35.5840   12.0740 C.ar      1 3NG1000     0.0000 
      6 C6         74.9320   35.2280   12.4960 C.ar      1 3NG1000     0.0000 
      7 C7         78.2260   37.4320   11.2120 C.ar      1 3NG1000     0.0000 
      8 C8         76.9940   37.7830   10.8060 C.ar      1 3NG1000     0.0000 
      9 N9         77.3420   35.6070   12.4860 N.ar      1 3NG1000     0.0000 
     10 C10        78.4240   36.3240   12.0520 C.ar      1 3NG1000     0.0000 
     11 C11        79.1920   39.2420    9.9700 C.ar      1 3NG1000     0.0000 
     12 N12        77.9420   39.6020    9.5540 N.ar      1 3NG1000     0.0000 
     13 C13        76.8430   38.9030    9.9650 C.ar      1 3NG1000     0.0000 
     14 C14        79.3430   38.1500   10.8040 C.ar      1 3NG1000     0.0000 
     15 N15        79.4830   35.6520   12.7110 N.pl3     1 3NG1000     0.0000 
     16 C16        79.7220   34.3230   13.1430 C.ar      1 3NG1000     0.0000 
     17 C17        79.0340   33.1830   12.7510 C.ar      1 3NG1000     0.0000 
     18 C18        79.4250   31.9600   13.2930 C.ar      1 3NG1000     0.0000 
     19 C19        80.4800   31.8790   14.1860 C.ar      1 3NG1000     0.0000 
     20 C20        81.1630   33.0100   14.5570 C.ar      1 3NG1000     0.0000 
     21 C21        80.7770   34.2230   14.0300 C.ar      1 3NG1000     0.0000 
     22 CL22       78.6280   30.4640   12.8820 Cl        1 3NG1000     0.0000 
     23 C23        72.3490   34.9160   12.4590 C.2       1 3NG1000     0.0000 
     24 O24        71.3010   35.5810   12.3410 O.co2     1 3NG1000     0.0000 
     25 O25        72.3030   33.7440   12.9400 O.co2     1 3NG1000     0.0000 
@<TRIPOS>BOND
     1    1    2 ar   
     2    1    6 ar   
     3    1    9 ar   
     4    2    3 ar   
     5    2    8 ar   
     6    3    4 ar   
     7    4    5 ar   
     8    5    6 ar   
     9    5   23 1    
    10    7    8 ar   
    11    7   10 ar   
    12    7   14 ar   
    13    8   13 ar   
    14    9   10 ar   
    15   10   15 1    
    16   11   12 ar   
    17   11   14 ar   
    18   12   13 ar   
    19   15   16 1    
    20   16   17 ar   
    21   16   21 ar   
    22   17   18 ar   
    23   18   19 ar   
    24   18   22 1    
    25   19   20 ar   
    26   20   21 ar   
    27   23   24 ar   
    28   23   25 ar   
@<TRIPOS>SUBSTRUCTURE
     1 3NG1000     1 GROUP   
@<TRIPOS>SET

