#    Name: 6kje_1_MJA_CAVITY_N1_6
#    Modification time : Fri May 22 19:30:56 2020

@<TRIPOS>MOLECULE
6kje_1_MJA_CAVITY_N1_6
   98     0     5     0     0
SMALL
NO_CHARGES


@<TRIPOS>ATOM
      1 OG        -32.6700  -60.7900   27.3700 O.3       1 SER1        0.0000 
      2 OG        -33.7200  -59.7400   27.1500 O.3       1 SER1        0.0000 
      3 OG        -33.3800  -61.2400   28.6100 O.3       1 SER1        0.0000 
      4 OG        -34.8100  -62.1300   31.1000 O.3       1 SER1        0.0000 
      5 N         -35.1800  -64.0800   33.8000 N.am      2 ALA2        0.0000 
      6 O         -32.9100  -58.7700   27.9600 O.2       2 ALA2        0.0000 
      7 N         -31.5300  -61.3200   29.6400 N.am      2 ALA2        0.0000 
      8 O         -32.5800  -60.2700   29.4200 O.2       2 ALA2        0.0000 
      9 O         -33.6200  -59.2100   29.2000 O.2       2 ALA2        0.0000 
     10 N         -32.2400  -61.7700   30.8900 N.am      2 ALA2        0.0000 
     11 N         -33.2900  -60.7200   30.6700 N.am      2 ALA2        0.0000 
     12 N         -32.9500  -62.2200   32.1300 N.am      2 ALA2        0.0000 
     13 N         -34.0000  -61.1600   31.9100 N.am      2 ALA2        0.0000 
     14 N         -35.0400  -60.1100   31.6900 N.am      2 ALA2        0.0000 
     15 N         -33.6700  -62.6600   33.3700 N.am      2 ALA2        0.0000 
     16 N         -35.7600  -60.5600   32.9300 N.am      2 ALA2        0.0000 
     17 N         -35.4200  -62.0600   34.3900 N.am      2 ALA2        0.0000 
     18 O         -36.4700  -61.0000   34.1700 O.2       2 ALA2        0.0000 
     19 N         -27.5400  -60.0700   26.9500 N.am      2 ALA2        0.0000 
     20 N         -28.2600  -60.5100   28.1900 N.am      2 ALA2        0.0000 
     21 N         -29.3000  -59.4600   27.9700 N.am      2 ALA2        0.0000 
     22 N         -30.7200  -60.3500   30.4500 N.am      2 ALA2        0.0000 
     23 N         -33.9000  -60.6400   33.9600 N.am      2 ALA2        0.0000 
     24 CZ        -32.7700  -61.3100   25.3200 C.ar      3 PHE5        0.0000 
     25 CZ        -33.4800  -61.7600   26.5600 C.ar      3 PHE5        0.0000 
     26 CZ        -32.1000  -64.3100   28.2400 C.ar      3 PHE5        0.0000 
     27 CZ        -33.1500  -63.2600   28.0200 C.ar      3 PHE5        0.0000 
     28 CZ        -32.8100  -64.7600   29.4800 C.ar      3 PHE5        0.0000 
     29 CZ        -32.4800  -66.2600   30.9500 C.ar      3 PHE5        0.0000 
     30 CZ        -33.5200  -65.2100   30.7300 C.ar      3 PHE5        0.0000 
     31 CZ        -34.2400  -65.6600   31.9700 C.ar      3 PHE5        0.0000 
     32 CZ        -35.2800  -64.6000   31.7500 C.ar      3 PHE5        0.0000 
     33 CZ        -29.1600  -62.0000   25.3200 C.ar      3 PHE5        0.0000 
     34 CZ        -30.2000  -60.9500   25.1000 C.ar      3 PHE5        0.0000 
     35 CZ        -27.7800  -64.5600   27.0100 C.ar      3 PHE5        0.0000 
     36 CZ        -29.8700  -62.4500   26.5700 C.ar      3 PHE5        0.0000 
     37 CZ        -30.9200  -61.4000   26.3500 C.ar      3 PHE5        0.0000 
     38 CZ        -31.9600  -60.3400   26.1300 C.ar      3 PHE5        0.0000 
     39 CZ        -29.5400  -63.9500   28.0300 C.ar      3 PHE5        0.0000 
     40 CZ        -30.5800  -62.9000   27.8100 C.ar      3 PHE5        0.0000 
     41 CZ        -31.6300  -61.8400   27.5900 C.ar      3 PHE5        0.0000 
     42 CZ        -31.2900  -63.3500   29.0500 C.ar      3 PHE5        0.0000 
     43 CZ        -32.3400  -62.2900   28.8300 C.ar      3 PHE5        0.0000 
     44 CZ        -32.0100  -63.7900   30.2900 C.ar      3 PHE5        0.0000 
     45 CZ        -33.0500  -62.7400   30.0700 C.ar      3 PHE5        0.0000 
     46 CZ        -34.1000  -61.6800   29.8600 C.ar      3 PHE5        0.0000 
     47 CZ        -33.7600  -63.1900   31.3200 C.ar      3 PHE5        0.0000 
     48 CZ        -34.4700  -63.6300   32.5600 C.ar      3 PHE5        0.0000 
     49 CZ        -35.5200  -62.5800   32.3400 C.ar      3 PHE5        0.0000 
     50 CZ        -36.2300  -63.0300   33.5800 C.ar      3 PHE5        0.0000 
     51 CZ        -28.0200  -62.5400   27.6000 C.ar      3 PHE5        0.0000 
     52 CZ        -29.0600  -61.4800   27.3800 C.ar      3 PHE5        0.0000 
     53 CZ        -28.4000  -64.4800   30.3000 C.ar      3 PHE5        0.0000 
     54 CZ        -29.1100  -64.9300   31.5400 C.ar      3 PHE5        0.0000 
     55 CZ        -30.1500  -63.8800   31.3300 C.ar      3 PHE5        0.0000 
     56 CZ        -27.5900  -63.5100   31.1100 C.ar      3 PHE5        0.0000 
     57 CZ        -29.3500  -62.9100   32.1400 C.ar      3 PHE5        0.0000 
     58 CA        -31.0600  -65.3700   28.4600 C.3       4 GLY6        0.0000 
     59 CA        -31.7700  -65.8200   29.7000 C.3       4 GLY6        0.0000 
     60 CA        -27.4500  -66.0600   28.4700 C.3       4 GLY6        0.0000 
     61 CA        -28.4900  -65.0100   28.2500 C.3       4 GLY6        0.0000 
     62 CA        -28.1600  -66.5100   29.7100 C.3       4 GLY6        0.0000 
     63 CA        -29.2000  -65.4500   29.4900 C.3       4 GLY6        0.0000 
     64 CA        -30.2500  -64.4000   29.2700 C.3       4 GLY6        0.0000 
     65 CA        -29.9100  -65.9000   30.7300 C.3       4 GLY6        0.0000 
     66 CA        -30.9600  -64.8500   30.5100 C.3       4 GLY6        0.0000 
     67 CA        -31.6700  -65.2900   31.7600 C.3       4 GLY6        0.0000 
     68 CA        -32.7200  -64.2400   31.5400 C.3       4 GLY6        0.0000 
     69 CA        -33.4300  -64.6900   32.7800 C.3       4 GLY6        0.0000 
     70 CA        -29.4000  -59.9800   25.9200 C.3       4 GLY6        0.0000 
     71 CA        -30.4400  -58.9300   25.7000 C.3       4 GLY6        0.0000 
     72 CA        -31.1500  -59.3700   26.9400 C.3       4 GLY6        0.0000 
     73 CA        -32.2000  -58.3200   26.7200 C.3       4 GLY6        0.0000 
     74 CA        -31.8600  -59.8200   28.1800 C.3       4 GLY6        0.0000 
     75 CA        -27.3500  -65.5400   30.5200 C.3       4 GLY6        0.0000 
     76 CA        -31.9100  -63.2700   32.3500 C.3       4 GLY6        0.0000 
     77 CA        -30.3500  -58.4000   27.7500 C.3       4 GLY6        0.0000 
     78 CA        -27.9200  -62.0100   29.6500 C.3       4 GLY6        0.0000 
     79 CA        -28.9700  -60.9600   29.4300 C.3       4 GLY6        0.0000 
     80 CA        -30.0100  -59.9100   29.2100 C.3       4 GLY6        0.0000 
     81 CA        -28.6300  -62.4600   30.8900 C.3       4 GLY6        0.0000 
     82 CA        -29.6800  -61.4100   30.6700 C.3       4 GLY6        0.0000 
     83 CA        -30.3900  -61.8500   31.9200 C.3       4 GLY6        0.0000 
     84 CA        -27.1200  -61.0400   30.4600 C.3       4 GLY6        0.0000 
     85 CA        -28.1600  -59.9900   30.2400 C.3       4 GLY6        0.0000 
     86 CA        -26.7800  -62.5400   31.9200 C.3       4 GLY6        0.0000 
     87 DU        -28.3500  -61.0300   26.1300 H         5 CUB7        0.0000 
     88 DU        -30.1100  -60.4300   27.1600 H         5 CUB7        0.0000 
     89 DU        -27.6800  -64.0400   29.0600 H         5 CUB7        0.0000 
     90 DU        -28.7300  -62.9800   28.8400 H         5 CUB7        0.0000 
     91 DU        -29.7700  -61.9300   28.6200 H         5 CUB7        0.0000 
     92 DU        -30.8200  -60.8700   28.4000 H         5 CUB7        0.0000 
     93 DU        -29.4400  -63.4300   30.0800 H         5 CUB7        0.0000 
     94 DU        -30.4900  -62.3800   29.8600 H         5 CUB7        0.0000 
     95 DU        -31.2000  -62.8200   31.1100 H         5 CUB7        0.0000 
     96 DU        -34.7100  -61.6100   33.1500 H         5 CUB7        0.0000 
     97 DU        -27.2100  -61.5700   28.4100 H         5 CUB7        0.0000 
     98 DU        -26.8800  -63.0700   29.8700 H         5 CUB7        0.0000 
@<TRIPOS>BOND
@<TRIPOS>SUBSTRUCTURE
     1 SER1        1 GROUP   
     2 ALA2        5 GROUP   
     3 PHE5       24 GROUP   
     4 GLY6       58 GROUP   
     5 CUB7       87 GROUP   
@<TRIPOS>SET

