#    Name: 6kje_2_MJA_CAVITY_N1_4
#    Modification time : Fri May 22 19:31:01 2020

@<TRIPOS>MOLECULE
6kje_2_MJA_CAVITY_N1_4
   97     0     5     0     0
SMALL
NO_CHARGES


@<TRIPOS>ATOM
      1 OG         -9.7100  -32.2700    3.6900 O.3       1 SER1        0.0000 
      2 OG        -10.4200  -32.7200    4.9400 O.3       1 SER1        0.0000 
      3 OG        -10.0900  -34.2200    6.4000 O.3       1 SER1        0.0000 
      4 OG        -11.1300  -33.1600    6.1800 O.3       1 SER1        0.0000 
      5 OG        -10.8000  -34.6600    7.6400 O.3       1 SER1        0.0000 
      6 OG        -11.8500  -33.6100    7.4200 O.3       1 SER1        0.0000 
      7 OG         -9.9900  -33.6900    8.4500 O.3       1 SER1        0.0000 
      8 OG        -10.7000  -34.1400    9.6900 O.3       1 SER1        0.0000 
      9 N          -9.2800  -39.7600    6.6800 N.am      2 ALA2        0.0000 
     10 N         -10.3200  -38.7100    6.4600 N.am      2 ALA2        0.0000 
     11 N         -11.3700  -37.6600    6.2400 N.am      2 ALA2        0.0000 
     12 N          -9.9900  -40.2100    7.9200 N.am      2 ALA2        0.0000 
     13 N          -9.8100  -32.7900    1.6400 N.am      2 ALA2        0.0000 
     14 N          -8.4300  -35.3500    3.3200 N.am      2 ALA2        0.0000 
     15 N          -9.4700  -34.2900    3.1000 N.am      2 ALA2        0.0000 
     16 N         -10.5200  -33.2400    2.8800 N.am      2 ALA2        0.0000 
     17 N          -9.1400  -35.7900    4.5600 N.am      2 ALA2        0.0000 
     18 N         -10.1800  -34.7400    4.3400 N.am      2 ALA2        0.0000 
     19 N          -9.5200  -37.7400    7.2700 N.am      2 ALA2        0.0000 
     20 N          -8.2900  -31.3800    1.2100 N.am      2 ALA2        0.0000 
     21 N          -7.9500  -32.8800    2.6700 N.am      2 ALA2        0.0000 
     22 O          -9.0000  -31.8200    2.4500 O.2       2 ALA2        0.0000 
     23 N          -8.6600  -39.6900   14.3000 N.am      2 ALA2        0.0000 
     24 CZ         -6.3400  -37.4500    3.7600 C.ar      3 PHE5        0.0000 
     25 CZ         -7.3800  -36.4000    3.5400 C.ar      3 PHE5        0.0000 
     26 CZ         -5.5300  -36.4800    4.5700 C.ar      3 PHE5        0.0000 
     27 CZ         -8.6700  -33.3200    3.9100 C.ar      3 PHE5        0.0000 
     28 CZ         -9.3800  -33.7700    5.1600 C.ar      3 PHE5        0.0000 
     29 CZ         -5.9100  -38.4300    7.2800 C.ar      3 PHE5        0.0000 
     30 CZ         -6.9500  -37.3800    7.0600 C.ar      3 PHE5        0.0000 
     31 CZ         -8.0000  -36.3200    6.8400 C.ar      3 PHE5        0.0000 
     32 CZ         -6.6200  -38.8800    8.5200 C.ar      3 PHE5        0.0000 
     33 CZ         -7.6700  -37.8200    8.3000 C.ar      3 PHE5        0.0000 
     34 CZ         -8.7100  -36.7700    8.0800 C.ar      3 PHE5        0.0000 
     35 CZ         -7.3300  -39.3200    9.7600 C.ar      3 PHE5        0.0000 
     36 CZ         -8.3800  -38.2700    9.5400 C.ar      3 PHE5        0.0000 
     37 CZ         -9.4200  -37.2200    9.3200 C.ar      3 PHE5        0.0000 
     38 CZ         -8.0400  -39.7700   11.0000 C.ar      3 PHE5        0.0000 
     39 CZ         -9.0900  -38.7200   10.7900 C.ar      3 PHE5        0.0000 
     40 CZ         -6.1000  -32.9600    3.7000 C.ar      3 PHE5        0.0000 
     41 CZ         -7.1500  -31.9100    3.4800 C.ar      3 PHE5        0.0000 
     42 CZ         -5.7700  -34.4600    5.1600 C.ar      3 PHE5        0.0000 
     43 CZ         -6.8100  -33.4100    4.9400 C.ar      3 PHE5        0.0000 
     44 CZ         -7.5300  -33.8500    6.1900 C.ar      3 PHE5        0.0000 
     45 CZ         -7.1900  -35.3500    7.6500 C.ar      3 PHE5        0.0000 
     46 CZ         -8.2400  -34.3000    7.4300 C.ar      3 PHE5        0.0000 
     47 CZ         -9.2800  -33.2500    7.2100 C.ar      3 PHE5        0.0000 
     48 CZ         -8.9500  -34.7500    8.6700 C.ar      3 PHE5        0.0000 
     49 CZ         -9.6600  -35.1900    9.9100 C.ar      3 PHE5        0.0000 
     50 CZ         -9.3300  -36.6900   11.3800 C.ar      3 PHE5        0.0000 
     51 CZ        -10.3700  -35.6400   11.1600 C.ar      3 PHE5        0.0000 
     52 CZ         -7.9500  -39.2500   13.0600 C.ar      3 PHE5        0.0000 
     53 CZ         -8.9900  -38.1900   12.8400 C.ar      3 PHE5        0.0000 
     54 CZ         -8.8500  -34.2200   10.7200 C.ar      3 PHE5        0.0000 
     55 CA         -9.3800  -40.2900    4.6200 C.3       4 GLY6        0.0000 
     56 CA         -6.8100  -39.9200    4.4100 C.3       4 GLY6        0.0000 
     57 CA         -7.8600  -38.8700    4.1900 C.3       4 GLY6        0.0000 
     58 CA         -8.9000  -37.8200    3.9700 C.3       4 GLY6        0.0000 
     59 CA         -8.5700  -39.3200    5.4400 C.3       4 GLY6        0.0000 
     60 CA         -9.6100  -38.2600    5.2200 C.3       4 GLY6        0.0000 
     61 CA        -10.6600  -37.2100    5.0000 C.3       4 GLY6        0.0000 
     62 CA         -8.0900  -36.8500    4.7800 C.3       4 GLY6        0.0000 
     63 CA         -9.8500  -36.2400    5.8100 C.3       4 GLY6        0.0000 
     64 CA        -10.9000  -35.1900    5.5900 C.3       4 GLY6        0.0000 
     65 CA        -10.5600  -36.6900    7.0500 C.3       4 GLY6        0.0000 
     66 CA        -11.6100  -35.6300    6.8300 C.3       4 GLY6        0.0000 
     67 CA         -9.1800  -39.2400    8.7300 C.3       4 GLY6        0.0000 
     68 CA        -10.2300  -38.1900    8.5100 C.3       4 GLY6        0.0000 
     69 CA        -11.2700  -37.1300    8.2900 C.3       4 GLY6        0.0000 
     70 CA         -9.9000  -39.6900    9.9700 C.3       4 GLY6        0.0000 
     71 CA         -6.9100  -33.9300    2.8900 C.3       4 GLY6        0.0000 
     72 CA         -6.5800  -35.4300    4.3500 C.3       4 GLY6        0.0000 
     73 CA         -6.2400  -36.9300    5.8100 C.3       4 GLY6        0.0000 
     74 CA        -10.1300  -37.6600   10.5700 C.3       4 GLY6        0.0000 
     75 CA        -10.8400  -38.1100   11.8100 C.3       4 GLY6        0.0000 
     76 CA         -5.0600  -34.0100    3.9200 C.3       4 GLY6        0.0000 
     77 CA         -4.7200  -35.5100    5.3800 C.3       4 GLY6        0.0000 
     78 CA         -5.4400  -35.9600    6.6300 C.3       4 GLY6        0.0000 
     79 CA         -6.4800  -34.9100    6.4100 C.3       4 GLY6        0.0000 
     80 CA        -10.0400  -37.1400   12.6200 C.3       4 GLY6        0.0000 
     81 CA         -9.7000  -38.6400   14.0800 C.3       4 GLY6        0.0000 
     82 DU         -7.5200  -40.3700    5.6600 H         5 CUB7        0.0000 
     83 DU         -7.0500  -37.9000    5.0000 H         5 CUB7        0.0000 
     84 DU         -6.7200  -39.4000    6.4700 H         5 CUB7        0.0000 
     85 DU         -7.7600  -38.3500    6.2500 H         5 CUB7        0.0000 
     86 DU         -8.8100  -37.2900    6.0300 H         5 CUB7        0.0000 
     87 DU         -7.4300  -39.8500    7.7100 H         5 CUB7        0.0000 
     88 DU         -8.4700  -38.7900    7.4900 H         5 CUB7        0.0000 
     89 DU         -8.1400  -40.2900    8.9500 H         5 CUB7        0.0000 
     90 DU         -7.6200  -34.3800    4.1300 H         5 CUB7        0.0000 
     91 DU         -7.2900  -35.8800    5.5900 H         5 CUB7        0.0000 
     92 DU         -8.3300  -34.8200    5.3800 H         5 CUB7        0.0000 
     93 DU         -9.0400  -35.2700    6.6200 H         5 CUB7        0.0000 
     94 DU         -9.7600  -35.7200    7.8600 H         5 CUB7        0.0000 
     95 DU        -10.4700  -36.1600    9.1000 H         5 CUB7        0.0000 
     96 DU         -8.7500  -40.2200   12.2500 H         5 CUB7        0.0000 
     97 DU         -9.8000  -39.1600   12.0300 H         5 CUB7        0.0000 
@<TRIPOS>BOND
@<TRIPOS>SUBSTRUCTURE
     1 SER1        1 GROUP   
     2 ALA2        9 GROUP   
     3 PHE5       24 GROUP   
     4 GLY6       55 GROUP   
     5 CUB7       82 GROUP   
@<TRIPOS>SET

