#    Name: 6kje_2_MJA
#    Modification time : Fri May 22 19:31:00 2020

@<TRIPOS>MOLECULE
6kje_2_MJA
   24    25     1     0     0
SMALL
NO_CHARGES


@<TRIPOS>ATOM
      1 O16        -9.1340  -39.2810   12.9740 O.co2     1 MJA401      0.0000 
      2 C15       -10.0210  -38.6950   12.3890 C.2       1 MJA401      0.0000 
      3 O15       -11.2890  -38.9080   12.7250 O.co2     1 MJA401      0.0000 
      4 C14        -9.7120  -37.7430   11.2690 C.3       1 MJA401      0.0000 
      5 C13       -10.2240  -38.4120   10.0340 C.3       1 MJA401      0.0000 
      6 O13       -10.4000  -39.7770   10.3960 O.3       1 MJA401      0.0000 
      7 C12        -9.2080  -38.3260    8.9290 C.3       1 MJA401      0.0000 
      8 C11        -9.8280  -37.7320    7.6880 C.3       1 MJA401      0.0000 
      9 O11        -9.8900  -38.7700    6.7420 O.3       1 MJA401      0.0000 
     10 C10        -8.9430  -36.6060    7.2120 C.3       1 MJA401      0.0000 
     11 C9         -9.1040  -36.2480    5.7590 C.3       1 MJA401      0.0000 
     12 C1         -8.1040  -35.1630    5.4840 C.3       1 MJA401      0.0000 
     13 C8A        -8.5880  -34.3390    4.3230 C.3       1 MJA401      0.0000 
     14 C2         -6.7270  -35.7510    5.2240 C.3       1 MJA401      0.0000 
     15 C2M        -6.7020  -36.7900    4.1060 C.3       1 MJA401      0.0000 
     16 C3         -5.7480  -34.6580    4.9510 C.2       1 MJA401      0.0000 
     17 C4         -6.1450  -33.5910    4.3340 C.2       1 MJA401      0.0000 
     18 C4A        -7.5010  -33.4920    3.7960 C.2       1 MJA401      0.0000 
     19 C5         -7.8090  -32.6530    2.8310 C.2       1 MJA401      0.0000 
     20 C6         -9.2160  -32.5630    2.3010 C.3       1 MJA401      0.0000 
     21 C6M        -9.3620  -31.2440    1.5910 C.3       1 MJA401      0.0000 
     22 C7        -10.2740  -32.7270    3.3730 C.3       1 MJA401      0.0000 
     23 C8         -9.8350  -33.5120    4.5970 C.3       1 MJA401      0.0000 
     24 O8         -9.6900  -32.6850    5.7090 O.3       1 MJA401      0.0000 
@<TRIPOS>BOND
     1    1    2 ar   
     2    2    3 ar   
     3    2    4 1    
     4    4    5 1    
     5    5    6 1    
     6    5    7 1    
     7    7    8 1    
     8    8    9 1    
     9    8   10 1    
    10   10   11 1    
    11   11   12 1    
    12   12   13 1    
    13   12   14 1    
    14   13   23 1    
    15   13   18 1    
    16   14   15 1    
    17   14   16 1    
    18   16   17 2    
    19   17   18 1    
    20   18   19 2    
    21   19   20 1    
    22   20   21 1    
    23   20   22 1    
    24   22   23 1    
    25   23   24 1    
@<TRIPOS>SUBSTRUCTURE
     1 MJA401      1 GROUP   
@<TRIPOS>SET

