#    Name: 6kje_1_MJA
#    Modification time : Fri May 22 19:30:54 2020

@<TRIPOS>MOLECULE
6kje_1_MJA
   24    25     1     0     0
SMALL
NO_CHARGES


@<TRIPOS>ATOM
      1 O16       -27.8230  -58.5820   23.0670 O.co2     1 MJA401      0.0000 
      2 C15       -28.9110  -59.0420   22.8140 C.2       1 MJA401      0.0000 
      3 O15       -29.4980  -58.4410   21.8080 O.co2     1 MJA401      0.0000 
      4 C14       -29.5300  -60.1860   23.6140 C.3       1 MJA401      0.0000 
      5 C13       -29.2830  -59.8540   25.0680 C.3       1 MJA401      0.0000 
      6 O13       -27.9120  -59.5920   25.1310 O.3       1 MJA401      0.0000 
      7 C12       -29.4200  -60.9700   26.0670 C.3       1 MJA401      0.0000 
      8 C11       -29.8280  -60.3940   27.4180 C.3       1 MJA401      0.0000 
      9 O11       -28.7730  -60.3580   28.3770 O.3       1 MJA401      0.0000 
     10 C10       -30.9470  -61.2680   27.8990 C.3       1 MJA401      0.0000 
     11 C9        -31.0400  -61.2330   29.3970 C.3       1 MJA401      0.0000 
     12 C1        -31.9340  -62.3600   29.8310 C.3       1 MJA401      0.0000 
     13 C8A       -32.6190  -62.0040   31.1220 C.3       1 MJA401      0.0000 
     14 C2        -31.0970  -63.5950   29.9290 C.3       1 MJA401      0.0000 
     15 C2M       -30.0280  -63.3810   30.9630 C.3       1 MJA401      0.0000 
     16 C3        -31.9660  -64.7330   30.3280 C.2       1 MJA401      0.0000 
     17 C4        -32.9630  -64.5310   31.1540 C.2       1 MJA401      0.0000 
     18 C4A       -33.2660  -63.2060   31.6850 C.2       1 MJA401      0.0000 
     19 C5        -34.1280  -63.0580   32.6680 C.2       1 MJA401      0.0000 
     20 C6        -34.4700  -61.6890   33.2000 C.3       1 MJA401      0.0000 
     21 C6M       -35.7930  -61.6910   33.9170 C.3       1 MJA401      0.0000 
     22 C7        -34.5580  -60.6580   32.1000 C.3       1 MJA401      0.0000 
     23 C8        -33.6170  -60.8710   30.9290 C.3       1 MJA401      0.0000 
     24 O8        -34.4260  -61.0480   29.8070 O.3       1 MJA401      0.0000 
@<TRIPOS>BOND
     1    1    2 ar   
     2    2    3 ar   
     3    2    4 1    
     4    4    5 1    
     5    5    6 1    
     6    5    7 1    
     7    7    8 1    
     8    8    9 1    
     9    8   10 1    
    10   10   11 1    
    11   11   12 1    
    12   12   13 1    
    13   12   14 1    
    14   13   18 1    
    15   13   23 1    
    16   14   15 1    
    17   14   16 1    
    18   16   17 2    
    19   17   18 1    
    20   18   19 2    
    21   19   20 1    
    22   20   21 1    
    23   20   22 1    
    24   22   23 1    
    25   23   24 1    
@<TRIPOS>SUBSTRUCTURE
     1 MJA401      1 GROUP   
@<TRIPOS>SET

