#    Name: 6que_2_NAD
#    Modification time : Fri May 22 19:30:22 2020

@<TRIPOS>MOLECULE
6que_2_NAD
   44    48     1     0     1
SMALL
NO_CHARGES


@<TRIPOS>ATOM
      1 PA         72.2210  103.2500   81.7860 P.3       1 NAD1102     0.0000 
      2 O1A        70.9710  102.7280   82.3600 O.co2     1 NAD1102     0.0000 
      3 O2A        72.5940  104.6740   82.1630 O.co2     1 NAD1102     0.0000 
      4 O5B        72.1710  103.2270   80.1760 O.3       1 NAD1102     0.0000 
      5 C5B        71.4480  104.2680   79.4950 C.3       1 NAD1102     0.0000 
      6 C4B        71.0590  103.7670   78.1330 C.3       1 NAD1102     0.0000 
      7 O4B        70.4370  104.8380   77.3860 O.3       1 NAD1102     0.0000 
      8 C3B        72.2320  103.2890   77.2870 C.3       1 NAD1102     0.0000 
      9 O3B        71.8170  102.2300   76.4390 O.3       1 NAD1102     0.0000 
     10 C2B        72.5610  104.5240   76.4630 C.3       1 NAD1102     0.0000 
     11 O2B        73.1940  104.1570   75.2470 O.3       1 NAD1102     0.0000 
     12 C1B        71.1560  105.0360   76.1870 C.3       1 NAD1102     0.0000 
     13 N9A        71.0910  106.4430   75.8130 N.pl3     1 NAD1102     0.0000 
     14 C8A        71.8690  107.4620   76.2890 C.2       1 NAD1102     0.0000 
     15 N7A        71.6020  108.6320   75.7580 N.2       1 NAD1102     0.0000 
     16 C5A        70.5770  108.3600   74.8700 C.ar      1 NAD1102     0.0000 
     17 C6A        69.8400  109.1780   73.9900 C.ar      1 NAD1102     0.0000 
     18 N6A        70.0350  110.4920   73.8600 N.pl3     1 NAD1102     0.0000 
     19 N1A        68.8820  108.5920   73.2410 N.ar      1 NAD1102     0.0000 
     20 C2A        68.6810  107.2780   73.3650 C.ar      1 NAD1102     0.0000 
     21 N3A        69.3120  106.4090   74.1570 N.ar      1 NAD1102     0.0000 
     22 C4A        70.2500  107.0140   74.8860 C.ar      1 NAD1102     0.0000 
     23 O3         73.4640  102.3230   82.1340 O.3       1 NAD1102     0.0000 
     24 PN         73.5590  100.7430   82.3420 P.3       1 NAD1102     0.0000 
     25 O1N        72.2100  100.1520   82.1950 O.co2     1 NAD1102     0.0000 
     26 O2N        74.3320  100.4760   83.5730 O.co2     1 NAD1102     0.0000 
     27 O5D        74.4480  100.3270   81.0860 O.3       1 NAD1102     0.0000 
     28 C5D        75.3520   99.2110   81.2030 C.3       1 NAD1102     0.0000 
     29 C4D        76.7530   99.7400   81.3860 C.3       1 NAD1102     0.0000 
     30 O4D        77.5470   98.7610   82.0890 O.3       1 NAD1102     0.0000 
     31 C3D        77.5230  100.0160   80.1020 C.3       1 NAD1102     0.0000 
     32 O3D        77.2140  101.3010   79.5700 O.3       1 NAD1102     0.0000 
     33 C2D        78.9820   99.8840   80.5590 C.3       1 NAD1102     0.0000 
     34 O2D        79.5540  101.0840   81.0680 O.3       1 NAD1102     0.0000 
     35 C1D        78.8810   98.8100   81.6510 C.3       1 NAD1102     0.0000 
     36 N1N        79.2370   97.4550   81.0650 N.pl3     1 NAD1102     0.0000 
     37 C2N        80.5030   97.3280   80.6340 C.ar      1 NAD1102     0.0000 
     38 C3N        80.9290   96.1390   80.0740 C.ar      1 NAD1102     0.0000 
     39 C7N        82.3510   96.0200   79.6050 C.2       1 NAD1102     0.0000 
     40 O7N        83.1160   96.9890   79.7270 O.2       1 NAD1102     0.0000 
     41 N7N        82.7340   94.8660   79.0740 N.am      1 NAD1102     0.0000 
     42 C4N        80.0220   95.0910   79.9670 C.ar      1 NAD1102     0.0000 
     43 C5N        78.7230   95.2510   80.4160 C.ar      1 NAD1102     0.0000 
     44 C6N        78.3410   96.4530   80.9660 C.ar      1 NAD1102     0.0000 
@<TRIPOS>BOND
     1    1    2 ar   
     2    1    3 ar   
     3    1    4 1    
     4    1   23 1    
     5    4    5 1    
     6    5    6 1    
     7    6    7 1    
     8    6    8 1    
     9    7   12 1    
    10    8    9 1    
    11    8   10 1    
    12   10   11 1    
    13   10   12 1    
    14   12   13 1    
    15   13   14 1    
    16   13   22 1    
    17   14   15 2    
    18   15   16 1    
    19   16   17 ar   
    20   16   22 ar   
    21   17   18 1    
    22   17   19 ar   
    23   19   20 ar   
    24   20   21 ar   
    25   21   22 ar   
    26   23   24 1    
    27   24   25 ar   
    28   24   26 ar   
    29   24   27 1    
    30   27   28 1    
    31   28   29 1    
    32   29   30 1    
    33   29   31 1    
    34   30   35 1    
    35   31   32 1    
    36   31   33 1    
    37   33   34 1    
    38   33   35 1    
    39   35   36 1    
    40   36   37 ar   
    41   36   44 ar   
    42   37   38 ar   
    43   38   39 1    
    44   38   42 ar   
    45   39   40 2    
    46   39   41 am   
    47   42   43 ar   
    48   43   44 ar   
@<TRIPOS>SUBSTRUCTURE
     1 NAD1102     1 GROUP   
@<TRIPOS>SET
ATOM$ORANGE STATIC     ATOMS   COLORGROUP SYSTEM 
42 5 5 6 6 8 8 10 10 12 12 14 14 16 16 17 17 20 \
20 22 22 28 28 29 29 31 31 33 33 35 35 37 37 38 38 39 \
39 42 42 43 43 44 44 

