#    Name: 6que_1_NAP
#    Modification time : Fri May 22 19:30:08 2020

@<TRIPOS>MOLECULE
6que_1_NAP
   48    52     1     0     1
SMALL
NO_CHARGES


@<TRIPOS>ATOM
      1 PA         92.8400   63.0150   82.5190 P.3       1 NAP1101     0.0000 
      2 O1A        92.7680   64.2720   81.7550 O.co2     1 NAP1101     0.0000 
      3 O2A        94.2320   62.4020   82.5520 O.co2     1 NAP1101     0.0000 
      4 O5B        92.4140   63.2210   84.0780 O.3       1 NAP1101     0.0000 
      5 C5B        91.9250   62.1410   84.9010 C.3       1 NAP1101     0.0000 
      6 C4B        91.2370   62.7410   86.1020 C.3       1 NAP1101     0.0000 
      7 O4B        90.6940   61.6950   86.9350 O.3       1 NAP1101     0.0000 
      8 C3B        92.1300   63.5830   87.0110 C.3       1 NAP1101     0.0000 
      9 O3B        91.6830   64.9290   87.0430 O.3       1 NAP1101     0.0000 
     10 C2B        91.9690   62.9780   88.3990 C.3       1 NAP1101     0.0000 
     11 O2B        91.7730   64.0080   89.3850 O.3       1 NAP1101     0.0000 
     12 C1B        90.7150   62.1330   88.2760 C.3       1 NAP1101     0.0000 
     13 N9A        90.7440   60.9630   89.1340 N.pl3     1 NAP1101     0.0000 
     14 C8A        91.7330   60.0200   89.2060 C.2       1 NAP1101     0.0000 
     15 N7A        91.5040   59.0710   90.0790 N.2       1 NAP1101     0.0000 
     16 C5A        90.2780   59.4180   90.6250 C.ar      1 NAP1101     0.0000 
     17 C6A        89.4720   58.8140   91.6050 C.ar      1 NAP1101     0.0000 
     18 N6A        89.8020   57.6960   92.2510 N.pl3     1 NAP1101     0.0000 
     19 N1A        88.3090   59.4220   91.9210 N.ar      1 NAP1101     0.0000 
     20 C2A        87.9790   60.5490   91.2870 C.ar      1 NAP1101     0.0000 
     21 N3A        88.6560   61.2050   90.3440 N.ar      1 NAP1101     0.0000 
     22 C4A        89.8020   60.5860   90.0550 C.ar      1 NAP1101     0.0000 
     23 O3         91.8740   61.9310   81.8690 O.3       1 NAP1101     0.0000 
     24 PN         91.2130   61.9300   80.4130 P.3       1 NAP1101     0.0000 
     25 O1N        90.5030   63.2100   80.2120 O.co2     1 NAP1101     0.0000 
     26 O2N        90.4940   60.6530   80.2030 O.co2     1 NAP1101     0.0000 
     27 O5D        92.4970   61.9660   79.4760 O.3       1 NAP1101     0.0000 
     28 C5D        92.9380   60.7500   78.8440 C.3       1 NAP1101     0.0000 
     29 C4D        94.3270   60.9690   78.3040 C.3       1 NAP1101     0.0000 
     30 O4D        94.8980   59.7050   77.9300 O.3       1 NAP1101     0.0000 
     31 C3D        94.4100   61.8020   77.0330 C.3       1 NAP1101     0.0000 
     32 O3D        94.5170   63.1870   77.3330 O.3       1 NAP1101     0.0000 
     33 C2D        95.7030   61.3050   76.3740 C.3       1 NAP1101     0.0000 
     34 O2D        96.7580   62.2300   76.6040 O.3       1 NAP1101     0.0000 
     35 C1D        95.9790   59.9690   77.0830 C.3       1 NAP1101     0.0000 
     36 N1N        96.0920   58.8190   76.0860 N.pl3     1 NAP1101     0.0000 
     37 C2N        95.1210   57.8930   76.0990 C.ar      1 NAP1101     0.0000 
     38 C3N        95.1690   56.8250   75.2220 C.ar      1 NAP1101     0.0000 
     39 C7N        94.0830   55.7920   75.2350 C.2       1 NAP1101     0.0000 
     40 O7N        94.1370   54.8460   74.4500 O.2       1 NAP1101     0.0000 
     41 N7N        93.0980   55.9440   76.1020 N.am      1 NAP1101     0.0000 
     42 C4N        96.2350   56.7390   74.3380 C.ar      1 NAP1101     0.0000 
     43 C5N        97.2220   57.7070   74.3470 C.ar      1 NAP1101     0.0000 
     44 C6N        97.1360   58.7510   75.2370 C.ar      1 NAP1101     0.0000 
     45 P2B        92.9120   64.2770   90.4460 P.3       1 NAP1101     0.0000 
     46 O1X        92.6580   63.4970   91.6810 O.co2     1 NAP1101     0.0000 
     47 O2X        94.1720   63.8530   89.7130 O.co2     1 NAP1101     0.0000 
     48 O3X        92.9770   65.7820   90.6610 O.co2     1 NAP1101     0.0000 
@<TRIPOS>BOND
     1    1    2 ar   
     2    1    3 ar   
     3    1    4 1    
     4    1   23 1    
     5    4    5 1    
     6    5    6 1    
     7    6    7 1    
     8    6    8 1    
     9    7   12 1    
    10    8    9 1    
    11    8   10 1    
    12   10   11 1    
    13   10   12 1    
    14   11   45 1    
    15   12   13 1    
    16   13   14 1    
    17   13   22 1    
    18   14   15 2    
    19   15   16 1    
    20   16   17 ar   
    21   16   22 ar   
    22   17   18 1    
    23   17   19 ar   
    24   19   20 ar   
    25   20   21 ar   
    26   21   22 ar   
    27   23   24 1    
    28   24   25 ar   
    29   24   26 ar   
    30   24   27 1    
    31   27   28 1    
    32   28   29 1    
    33   29   30 1    
    34   29   31 1    
    35   30   35 1    
    36   31   32 1    
    37   31   33 1    
    38   33   34 1    
    39   33   35 1    
    40   35   36 1    
    41   36   37 ar   
    42   36   44 ar   
    43   37   38 ar   
    44   38   39 1    
    45   38   42 ar   
    46   39   40 2    
    47   39   41 am   
    48   42   43 ar   
    49   43   44 ar   
    50   45   46 ar   
    51   45   47 ar   
    52   45   48 ar   
@<TRIPOS>SUBSTRUCTURE
     1 NAP1101     1 GROUP   
@<TRIPOS>SET
ATOM$ORANGE STATIC     ATOMS   COLORGROUP SYSTEM 
42 5 5 6 6 8 8 10 10 12 12 14 14 16 16 17 17 20 \
20 22 22 28 28 29 29 31 31 33 33 35 35 37 37 38 38 39 \
39 42 42 43 43 44 44 

