#    Name: 6que_3_NAD
#    Modification time : Fri May 22 19:30:31 2020

@<TRIPOS>MOLECULE
6que_3_NAD
   44    48     1     0     1
SMALL
NO_CHARGES


@<TRIPOS>ATOM
      1 PA         35.7980   72.4550   82.3940 P.3       1 NAD1101     0.0000 
      2 O1A        35.6700   73.8740   82.7690 O.co2     1 NAD1101     0.0000 
      3 O2A        34.7640   71.4850   82.9460 O.co2     1 NAD1101     0.0000 
      4 O5B        37.2410   71.8870   82.8480 O.3       1 NAD1101     0.0000 
      5 C5B        37.4320   71.3380   84.1660 C.3       1 NAD1101     0.0000 
      6 C4B        38.7140   70.5500   84.1470 C.3       1 NAD1101     0.0000 
      7 O4B        38.9110   69.9150   85.4310 O.3       1 NAD1101     0.0000 
      8 C3B        38.7620   69.4250   83.1150 C.3       1 NAD1101     0.0000 
      9 O3B        40.0960   69.2330   82.6740 O.3       1 NAD1101     0.0000 
     10 C2B        38.3520   68.2130   83.9370 C.3       1 NAD1101     0.0000 
     11 O2B        38.8740   67.0150   83.3800 O.3       1 NAD1101     0.0000 
     12 C1B        39.0840   68.5270   85.2280 C.3       1 NAD1101     0.0000 
     13 N9A        38.5760   67.8140   86.3860 N.pl3     1 NAD1101     0.0000 
     14 C8A        37.2730   67.5170   86.6790 C.2       1 NAD1101     0.0000 
     15 N7A        37.1160   66.8500   87.7960 N.2       1 NAD1101     0.0000 
     16 C5A        38.4090   66.6970   88.2700 C.ar      1 NAD1101     0.0000 
     17 C6A        38.9310   66.0790   89.4200 C.ar      1 NAD1101     0.0000 
     18 N6A        38.1810   65.4730   90.3430 N.pl3     1 NAD1101     0.0000 
     19 N1A        40.2710   66.1050   89.5930 N.ar      1 NAD1101     0.0000 
     20 C2A        41.0270   66.7120   88.6750 C.ar      1 NAD1101     0.0000 
     21 N3A        40.6470   67.3220   87.5520 N.ar      1 NAD1101     0.0000 
     22 C4A        39.3190   67.2800   87.4070 C.ar      1 NAD1101     0.0000 
     23 O3         35.7960   72.2830   80.8140 O.3       1 NAD1101     0.0000 
     24 PN         36.8030   72.8750   79.7250 P.3       1 NAD1101     0.0000 
     25 O1N        37.8320   73.6750   80.4280 O.co2     1 NAD1101     0.0000 
     26 O2N        36.0260   73.4960   78.6310 O.co2     1 NAD1101     0.0000 
     27 O5D        37.4420   71.5300   79.1630 O.3       1 NAD1101     0.0000 
     28 C5D        37.2670   71.2000   77.7730 C.3       1 NAD1101     0.0000 
     29 C4D        36.1130   70.2360   77.6700 C.3       1 NAD1101     0.0000 
     30 O4D        35.3780   70.4900   76.4530 O.3       1 NAD1101     0.0000 
     31 C3D        36.4900   68.7600   77.6290 C.3       1 NAD1101     0.0000 
     32 O3D        35.5120   67.9620   78.2840 O.3       1 NAD1101     0.0000 
     33 C2D        36.5730   68.4680   76.1280 C.3       1 NAD1101     0.0000 
     34 O2D        36.2030   67.1290   75.8240 O.3       1 NAD1101     0.0000 
     35 C1D        35.5310   69.4280   75.5480 C.3       1 NAD1101     0.0000 
     36 N1N        36.0480   70.0010   74.2240 N.pl3     1 NAD1101     0.0000 
     37 C2N        35.2380   69.9490   73.1530 C.ar      1 NAD1101     0.0000 
     38 C3N        35.6640   70.4500   71.9370 C.ar      1 NAD1101     0.0000 
     39 C7N        34.7780   70.4010   70.7290 C.2       1 NAD1101     0.0000 
     40 O7N        33.6620   69.9020   70.8190 O.2       1 NAD1101     0.0000 
     41 N7N        35.2500   70.8980   69.5940 N.am      1 NAD1101     0.0000 
     42 C4N        36.9360   71.0010   71.8530 C.ar      1 NAD1101     0.0000 
     43 C5N        37.7500   71.0400   72.9720 C.ar      1 NAD1101     0.0000 
     44 C6N        37.2860   70.5300   74.1620 C.ar      1 NAD1101     0.0000 
@<TRIPOS>BOND
     1    1    2 ar   
     2    1    3 ar   
     3    1    4 1    
     4    1   23 1    
     5    4    5 1    
     6    5    6 1    
     7    6    7 1    
     8    6    8 1    
     9    7   12 1    
    10    8    9 1    
    11    8   10 1    
    12   10   11 1    
    13   10   12 1    
    14   12   13 1    
    15   13   14 1    
    16   13   22 1    
    17   14   15 2    
    18   15   16 1    
    19   16   17 ar   
    20   16   22 ar   
    21   17   18 1    
    22   17   19 ar   
    23   19   20 ar   
    24   20   21 ar   
    25   21   22 ar   
    26   23   24 1    
    27   24   25 ar   
    28   24   26 ar   
    29   24   27 1    
    30   27   28 1    
    31   28   29 1    
    32   29   30 1    
    33   29   31 1    
    34   30   35 1    
    35   31   32 1    
    36   31   33 1    
    37   33   34 1    
    38   33   35 1    
    39   35   36 1    
    40   36   37 ar   
    41   36   44 ar   
    42   37   38 ar   
    43   38   39 1    
    44   38   42 ar   
    45   39   40 2    
    46   39   41 am   
    47   42   43 ar   
    48   43   44 ar   
@<TRIPOS>SUBSTRUCTURE
     1 NAD1101     1 GROUP   
@<TRIPOS>SET
ATOM$ORANGE STATIC     ATOMS   COLORGROUP SYSTEM 
42 5 5 6 6 8 8 10 10 12 12 14 14 16 16 17 17 20 \
20 22 22 28 28 29 29 31 31 33 33 35 35 37 37 38 38 39 \
39 42 42 43 43 44 44 

