#    Name: 6n7e_1_ANP
#    Modification time : Fri May 22 19:28:40 2020

@<TRIPOS>MOLECULE
6n7e_1_ANP
   43    45     1     0     1
SMALL
NO_CHARGES


@<TRIPOS>ATOM
      1 PG        118.5480  -22.5000  -30.5610 P.3       1 ANP901      0.0000 
      2 O1G       119.5170  -23.4490  -31.1940 O.co2     1 ANP901      0.0000 
      3 O2G       117.3700  -22.1920  -31.5610 O.co2     1 ANP901      0.0000 
      4 O3G       119.2880  -21.1500  -30.1990 O.co2     1 ANP901      0.0000 
      5 PB        117.4570  -21.9850  -28.0800 P.3       1 ANP901      0.0000 
      6 O1B       115.9660  -21.8890  -28.0560 O.co2     1 ANP901      0.0000 
      7 O2B       118.0390  -20.6180  -28.5460 O.co2     1 ANP901      0.0000 
      8 N3B       117.9340  -23.1910  -29.1430 N.3       1 ANP901      0.0000 
      9 PA        119.5630  -22.3460  -26.4250 P.3       1 ANP901      0.0000 
     10 O1A       120.1530  -23.6080  -26.9290 O.co2     1 ANP901      0.0000 
     11 O2A       120.0950  -21.0660  -27.0780 O.co2     1 ANP901      0.0000 
     12 O3A       117.9940  -22.3250  -26.6570 O.3       1 ANP901      0.0000 
     13 O5'       119.7680  -22.3110  -24.8600 O.3       1 ANP901      0.0000 
     14 C5'       119.9100  -21.0590  -24.1600 C.3       1 ANP901      0.0000 
     15 C4'       119.4400  -21.2540  -22.7420 C.3       1 ANP901      0.0000 
     16 O4'       118.0800  -21.7450  -22.7530 O.3       1 ANP901      0.0000 
     17 C3'       120.2530  -22.2560  -21.9220 C.3       1 ANP901      0.0000 
     18 O3'       120.4120  -21.8210  -20.5760 O.3       1 ANP901      0.0000 
     19 C2'       119.4160  -23.5330  -22.0190 C.3       1 ANP901      0.0000 
     20 O2'       119.6170  -24.3910  -20.9020 O.3       1 ANP901      0.0000 
     21 C1'       118.0000  -22.9600  -22.0350 C.3       1 ANP901      0.0000 
     22 N9        117.0150  -23.8240  -22.6800 N.pl3     1 ANP901      0.0000 
     23 C8        117.1380  -24.4630  -23.8860 C.2       1 ANP901      0.0000 
     24 N7        116.0930  -25.1820  -24.2200 N.2       1 ANP901      0.0000 
     25 C5        115.2200  -25.0030  -23.1570 C.ar      1 ANP901      0.0000 
     26 C6        113.9280  -25.5010  -22.8990 C.ar      1 ANP901      0.0000 
     27 N6        113.2670  -26.3130  -23.7310 N.pl3     1 ANP901      0.0000 
     28 N1        113.3320  -25.1270  -21.7440 N.ar      1 ANP901      0.0000 
     29 C2        113.9910  -24.3130  -20.9130 C.ar      1 ANP901      0.0000 
     30 N3        115.2080  -23.7820  -21.0510 N.ar      1 ANP901      0.0000 
     31 C4        115.7740  -24.1690  -22.2010 C.ar      1 ANP901      0.0000 
     32 HNB1      117.2200  -23.7140  -29.3460 H         1 ANP901      0.0000 
     33 H5'1      119.3700  -20.3770  -24.5970 H         1 ANP901      0.0000 
     34 H5'2      120.8440  -20.7870  -24.1640 H         1 ANP901      0.0000 
     35 H4'       119.4230  -20.4050  -22.2540 H         1 ANP901      0.0000 
     36 H3'       121.1030  -22.3870  -22.3490 H         1 ANP901      0.0000 
     37 H2'       119.5770  -23.9920  -22.8530 H         1 ANP901      0.0000 
     38 HO2'      119.7790  -25.2160  -21.1860 H         1 ANP901      0.0000 
     39 H1'       117.7320  -22.7830  -21.1200 H         1 ANP901      0.0000 
     40 H8        117.9170  -24.3910  -24.4360 H         1 ANP901      0.0000 
     41 HN61      112.7360  -26.9890  -23.3930 H         1 ANP901      0.0000 
     42 HN62      113.3410  -26.1980  -24.6450 H         1 ANP901      0.0000 
     43 H2        113.5190  -24.0750  -20.0980 H         1 ANP901      0.0000 
@<TRIPOS>BOND
     1    1    2 ar   
     2    1    3 ar   
     3    1    4 ar   
     4    1    8 1    
     5    5    6 ar   
     6    5    7 ar   
     7    5    8 1    
     8    5   12 1    
     9    8   32 1    
    10    9   10 ar   
    11    9   11 ar   
    12    9   12 1    
    13    9   13 1    
    14   13   14 1    
    15   14   15 1    
    16   14   33 1    
    17   14   34 1    
    18   15   16 1    
    19   15   17 1    
    20   15   35 1    
    21   16   21 1    
    22   17   18 1    
    23   17   19 1    
    24   17   36 1    
    25   19   20 1    
    26   19   21 1    
    27   19   37 1    
    28   20   38 1    
    29   21   22 1    
    30   21   39 1    
    31   22   23 1    
    32   22   31 1    
    33   23   24 2    
    34   23   40 1    
    35   24   25 1    
    36   25   26 ar   
    37   25   31 ar   
    38   26   27 1    
    39   26   28 ar   
    40   27   41 1    
    41   27   42 1    
    42   28   29 ar   
    43   29   30 ar   
    44   29   43 1    
    45   30   31 ar   
@<TRIPOS>SUBSTRUCTURE
     1 ANP901      1 GROUP   
@<TRIPOS>SET
ATOM$ORANGE STATIC     ATOMS   COLORGROUP SYSTEM 
20 14 14 15 15 17 17 19 19 21 21 23 23 25 25 26 26 29 \
29 31 31 

