#    Name: 6n7e_2_ANP
#    Modification time : Fri May 22 19:28:50 2020

@<TRIPOS>MOLECULE
6n7e_2_ANP
   44    46     1     0     1
SMALL
NO_CHARGES


@<TRIPOS>ATOM
      1 PG        137.5860  -16.8500  -87.2280 P.3       1 ANP901      0.0000 
      2 O1G       138.8510  -17.6100  -87.4810 O.co2     1 ANP901      0.0000 
      3 O2G       137.9060  -15.5840  -86.3440 O.co2     1 ANP901      0.0000 
      4 O3G       136.9530  -16.3790  -88.5990 O.co2     1 ANP901      0.0000 
      5 PB        135.9920  -17.0780  -85.0030 P.3       1 ANP901      0.0000 
      6 O1B       134.5090  -17.1790  -84.8540 O.co2     1 ANP901      0.0000 
      7 O2B       136.4010  -15.5760  -85.0480 O.co2     1 ANP901      0.0000 
      8 N3B       136.4830  -17.8400  -86.4130 N.3       1 ANP901      0.0000 
      9 PA        137.8800  -16.9900  -83.0890 P.3       1 ANP901      0.0000 
     10 O1A       137.9930  -15.6090  -83.6120 O.co2     1 ANP901      0.0000 
     11 O2A       139.1370  -17.8420  -83.2890 O.co2     1 ANP901      0.0000 
     12 O3A       136.6950  -17.7630  -83.7970 O.3       1 ANP901      0.0000 
     13 O5'       137.4650  -16.9140  -81.5680 O.3       1 ANP901      0.0000 
     14 C5'       138.4430  -17.0410  -80.5200 C.3       1 ANP901      0.0000 
     15 C4'       137.7560  -16.7770  -79.2070 C.3       1 ANP901      0.0000 
     16 O4'       136.3760  -16.4450  -79.4520 O.3       1 ANP901      0.0000 
     17 C3'       137.7150  -17.9630  -78.2520 C.3       1 ANP901      0.0000 
     18 O3'       138.8900  -18.0070  -77.4520 O.3       1 ANP901      0.0000 
     19 C2'       136.4670  -17.6770  -77.4160 C.3       1 ANP901      0.0000 
     20 O2'       136.7520  -16.8520  -76.2910 O.3       1 ANP901      0.0000 
     21 C1'       135.5580  -16.9450  -78.4100 C.3       1 ANP901      0.0000 
     22 N9        134.5290  -17.7900  -79.0010 N.pl3     1 ANP901      0.0000 
     23 C8        134.4500  -18.2180  -80.3030 C.2       1 ANP901      0.0000 
     24 N7        133.4110  -18.9720  -80.5550 N.2       1 ANP901      0.0000 
     25 C5        132.7540  -19.0540  -79.3330 C.ar      1 ANP901      0.0000 
     26 C6        131.5790  -19.7100  -78.9310 C.ar      1 ANP901      0.0000 
     27 N6        130.8220  -20.4470  -79.7500 N.pl3     1 ANP901      0.0000 
     28 N1        131.2050  -19.5850  -77.6360 N.ar      1 ANP901      0.0000 
     29 C2        131.9630  -18.8530  -76.8150 C.ar      1 ANP901      0.0000 
     30 N3        133.0890  -18.1890  -77.0830 N.ar      1 ANP901      0.0000 
     31 C4        133.4370  -18.3290  -78.3720 C.ar      1 ANP901      0.0000 
     32 HNB1      136.8740  -18.6350  -86.2120 H         1 ANP901      0.0000 
     33 H5'1      138.8140  -17.9400  -80.5250 H         1 ANP901      0.0000 
     34 H5'2      139.1570  -16.3940  -80.6570 H         1 ANP901      0.0000 
     35 H4'       138.1630  -16.0140  -78.7480 H         1 ANP901      0.0000 
     36 H3'       137.5970  -18.7720  -78.7550 H         1 ANP901      0.0000 
     37 HO3'      138.9510  -17.2620  -76.9750 H         1 ANP901      0.0000 
     38 H2'       136.0410  -18.5060  -77.1650 H         1 ANP901      0.0000 
     39 HO2'      136.2440  -17.0990  -75.6050 H         1 ANP901      0.0000 
     40 H1'       135.1600  -16.1970  -77.9390 H         1 ANP901      0.0000 
     41 H8        135.0980  -17.9850  -80.9670 H         1 ANP901      0.0000 
     42 HN61      129.9010  -20.3870  -79.7070 H         1 ANP901      0.0000 
     43 HN62      131.2190  -21.0160  -80.3600 H         1 ANP901      0.0000 
     44 H2        131.6510  -18.7960  -75.8970 H         1 ANP901      0.0000 
@<TRIPOS>BOND
     1    1    2 ar   
     2    1    3 ar   
     3    1    4 ar   
     4    1    8 1    
     5    5    6 ar   
     6    5    7 ar   
     7    5    8 1    
     8    5   12 1    
     9    8   32 1    
    10    9   10 ar   
    11    9   11 ar   
    12    9   12 1    
    13    9   13 1    
    14   13   14 1    
    15   14   15 1    
    16   14   33 1    
    17   14   34 1    
    18   15   16 1    
    19   15   17 1    
    20   15   35 1    
    21   16   21 1    
    22   17   18 1    
    23   17   19 1    
    24   17   36 1    
    25   18   37 1    
    26   19   20 1    
    27   19   21 1    
    28   19   38 1    
    29   20   39 1    
    30   21   22 1    
    31   21   40 1    
    32   22   23 1    
    33   22   31 1    
    34   23   24 2    
    35   23   41 1    
    36   24   25 1    
    37   25   26 ar   
    38   25   31 ar   
    39   26   27 1    
    40   26   28 ar   
    41   27   42 1    
    42   27   43 1    
    43   28   29 ar   
    44   29   30 ar   
    45   29   44 1    
    46   30   31 ar   
@<TRIPOS>SUBSTRUCTURE
     1 ANP901      1 GROUP   
@<TRIPOS>SET
ATOM$ORANGE STATIC     ATOMS   COLORGROUP SYSTEM 
20 14 14 15 15 17 17 19 19 21 21 23 23 25 25 26 26 29 \
29 31 31 

