#    Name: 6n7e_3_ANP
#    Modification time : Fri May 22 19:29:00 2020

@<TRIPOS>MOLECULE
6n7e_3_ANP
   44    46     1     0     1
SMALL
NO_CHARGES


@<TRIPOS>ATOM
      1 PG        139.3020  -17.0530  -91.4420 P.3       1 ANP901      0.0000 
      2 O1G       137.8550  -17.3780  -91.2380 O.co2     1 ANP901      0.0000 
      3 O2G       140.1170  -18.3870  -91.6550 O.co2     1 ANP901      0.0000 
      4 O3G       139.8710  -16.2900  -90.1780 O.co2     1 ANP901      0.0000 
      5 PB        139.6690  -17.0230  -94.1730 P.3       1 ANP901      0.0000 
      6 O1B       139.5770  -18.4690  -93.8060 O.co2     1 ANP901      0.0000 
      7 O2B       138.5680  -16.6920  -95.2200 O.co2     1 ANP901      0.0000 
      8 N3B       139.4570  -16.0700  -92.8100 N.3       1 ANP901      0.0000 
      9 PA        142.3620  -17.3200  -94.1050 P.3       1 ANP901      0.0000 
     10 O1A       143.1420  -16.2610  -93.4240 O.co2     1 ANP901      0.0000 
     11 O2A       141.8870  -18.4480  -93.1830 O.co2     1 ANP901      0.0000 
     12 O3A       141.0660  -16.7240  -94.7920 O.3       1 ANP901      0.0000 
     13 O5'       143.2150  -17.8780  -95.3140 O.3       1 ANP901      0.0000 
     14 C5'       144.6520  -17.8270  -95.3220 C.3       1 ANP901      0.0000 
     15 C4'       145.1290  -18.0530  -96.7340 C.3       1 ANP901      0.0000 
     16 O4'       144.0840  -17.6740  -97.6580 O.3       1 ANP901      0.0000 
     17 C3'       146.3640  -17.2500  -97.1370 C.3       1 ANP901      0.0000 
     18 O3'       147.2050  -18.0020  -98.0040 O.3       1 ANP901      0.0000 
     19 C2'       145.7600  -16.0260  -97.8290 C.3       1 ANP901      0.0000 
     20 O2'       146.6450  -15.4560  -98.7870 O.3       1 ANP901      0.0000 
     21 C1'       144.5350  -16.6370  -98.5080 C.3       1 ANP901      0.0000 
     22 N9        143.4380  -15.6950  -98.7090 N.pl3     1 ANP901      0.0000 
     23 C8        142.7110  -15.0510  -97.7420 C.2       1 ANP901      0.0000 
     24 N7        141.7810  -14.2550  -98.2130 N.2       1 ANP901      0.0000 
     25 C5        141.9030  -14.3850  -99.5880 C.ar      1 ANP901      0.0000 
     26 C6        141.2040  -13.7990 -100.6610 C.ar      1 ANP901      0.0000 
     27 N6        140.2010  -12.9290 -100.5040 N.pl3     1 ANP901      0.0000 
     28 N1        141.5780  -14.1440 -101.9160 N.ar      1 ANP901      0.0000 
     29 C2        142.5810  -15.0130 -102.0720 C.ar      1 ANP901      0.0000 
     30 N3        143.3110  -15.6280 -101.1380 N.ar      1 ANP901      0.0000 
     31 C4        142.9200  -15.2690  -99.9090 C.ar      1 ANP901      0.0000 
     32 HNB1      138.7090  -15.5650  -92.9060 H         1 ANP901      0.0000 
     33 H5'1      144.9490  -16.9550  -95.0090 H         1 ANP901      0.0000 
     34 H5'2      145.0060  -18.5210  -94.7400 H         1 ANP901      0.0000 
     35 H4'       145.3140  -19.0000  -96.8960 H         1 ANP901      0.0000 
     36 H3'       146.8340  -16.9760  -96.3460 H         1 ANP901      0.0000 
     37 HO3'      147.5640  -18.6770  -97.5560 H         1 ANP901      0.0000 
     38 H2'       145.4690  -15.3750  -97.1790 H         1 ANP901      0.0000 
     39 HO2'      147.2900  -15.0110  -98.3680 H         1 ANP901      0.0000 
     40 H1'       144.8150  -17.0100  -99.3580 H         1 ANP901      0.0000 
     41 H8        142.8680  -15.1710  -96.8070 H         1 ANP901      0.0000 
     42 HN61      139.7790  -12.5710 -101.2450 H         1 ANP901      0.0000 
     43 HN62      139.9300  -12.6830  -99.6560 H         1 ANP901      0.0000 
     44 H2        142.8110  -15.2270 -102.9910 H         1 ANP901      0.0000 
@<TRIPOS>BOND
     1    1    2 ar   
     2    1    3 ar   
     3    1    4 ar   
     4    1    8 1    
     5    5    6 ar   
     6    5    7 ar   
     7    5    8 1    
     8    5   12 1    
     9    8   32 1    
    10    9   10 ar   
    11    9   11 ar   
    12    9   12 1    
    13    9   13 1    
    14   13   14 1    
    15   14   15 1    
    16   14   33 1    
    17   14   34 1    
    18   15   16 1    
    19   15   17 1    
    20   15   35 1    
    21   16   21 1    
    22   17   18 1    
    23   17   19 1    
    24   17   36 1    
    25   18   37 1    
    26   19   20 1    
    27   19   21 1    
    28   19   38 1    
    29   20   39 1    
    30   21   22 1    
    31   21   40 1    
    32   22   23 1    
    33   22   31 1    
    34   23   24 2    
    35   23   41 1    
    36   24   25 1    
    37   25   26 ar   
    38   25   31 ar   
    39   26   27 1    
    40   26   28 ar   
    41   27   42 1    
    42   27   43 1    
    43   28   29 ar   
    44   29   30 ar   
    45   29   44 1    
    46   30   31 ar   
@<TRIPOS>SUBSTRUCTURE
     1 ANP901      1 GROUP   
@<TRIPOS>SET
ATOM$ORANGE STATIC     ATOMS   COLORGROUP SYSTEM 
20 14 14 15 15 17 17 19 19 21 21 23 23 25 25 26 26 29 \
29 31 31 

