#    Name: 6n7e_4_ANP_CAVITY_N1_4
#    Modification time : Fri May 22 19:29:11 2020

@<TRIPOS>MOLECULE
6n7e_4_ANP_CAVITY_N1_4
  115     0     7     0     0
SMALL
NO_CHARGES


@<TRIPOS>ATOM
      1 OG        125.8400  -25.0200  -47.0300 O.3       1 SER1        0.0000 
      2 OG        124.9000  -23.1200  -46.8700 O.3       1 SER1        0.0000 
      3 OG        125.1900  -25.5500  -44.5700 O.3       1 SER1        0.0000 
      4 OG        125.4700  -24.1800  -45.1200 O.3       1 SER1        0.0000 
      5 OG        126.6800  -24.7100  -45.8300 O.3       1 SER1        0.0000 
      6 OG        126.3000  -20.0800  -46.7600 O.3       1 SER1        0.0000 
      7 OG        122.5900  -20.0600  -40.4200 O.3       1 SER1        0.0000 
      8 OG        123.8000  -20.6000  -41.1300 O.3       1 SER1        0.0000 
      9 OG        125.0100  -21.1300  -41.8400 O.3       1 SER1        0.0000 
     10 OG        124.0800  -19.2300  -41.6800 O.3       1 SER1        0.0000 
     11 OG        125.2900  -19.7600  -42.3900 O.3       1 SER1        0.0000 
     12 OG        125.8500  -20.8200  -40.6400 O.3       1 SER1        0.0000 
     13 N         123.2200  -23.7500  -49.2700 N.am      2 ALA2        0.0000 
     14 N         124.0600  -23.4300  -48.0700 N.am      2 ALA2        0.0000 
     15 N         125.2700  -23.9700  -48.7800 N.am      2 ALA2        0.0000 
     16 O         121.9200  -21.0000  -47.2000 O.2       2 ALA2        0.0000 
     17 N         126.1100  -23.6500  -47.5800 N.am      2 ALA2        0.0000 
     18 N         121.5500  -20.1600  -45.2900 N.am      2 ALA2        0.0000 
     19 O         122.7600  -20.6900  -46.0000 O.2       2 ALA2        0.0000 
     20 N         125.1800  -21.7600  -47.4200 N.am      2 ALA2        0.0000 
     21 N         126.3900  -22.2900  -48.1300 N.am      2 ALA2        0.0000 
     22 N         120.9100  -20.6900  -42.8200 N.am      2 ALA2        0.0000 
     23 N         122.4000  -19.8500  -44.0800 N.am      2 ALA2        0.0000 
     24 N         125.0900  -19.5500  -46.0500 N.am      2 ALA2        0.0000 
     25 N         125.7500  -26.6000  -42.8200 N.am      2 ALA2        0.0000 
     26 O         120.2600  -21.2100  -40.3600 O.2       2 ALA2        0.0000 
     27 O         120.5400  -19.8400  -40.9100 O.2       2 ALA2        0.0000 
     28 N         121.7500  -20.3800  -41.6200 N.am      2 ALA2        0.0000 
     29 N         125.1100  -27.1300  -40.3500 N.am      2 ALA2        0.0000 
     30 N         125.3900  -25.7600  -40.9000 N.am      2 ALA2        0.0000 
     31 N         126.6000  -26.2900  -41.6100 N.am      2 ALA2        0.0000 
     32 N         126.8700  -24.9300  -42.1600 N.am      2 ALA2        0.0000 
     33 N         125.9500  -26.8200  -39.1500 N.am      2 ALA2        0.0000 
     34 N         127.4400  -25.9800  -40.4100 N.am      2 ALA2        0.0000 
     35 N         127.7200  -24.6100  -40.9600 N.am      2 ALA2        0.0000 
     36 OD1       121.1000  -20.9000  -39.1600 O.co2     3 ASP3        0.0000 
     37 OD1       121.9500  -20.5900  -37.9600 O.co2     3 ASP3        0.0000 
     38 OD1       122.2200  -19.2200  -38.5100 O.co2     3 ASP3        0.0000 
     39 NZ        124.1800  -25.2300  -40.1900 N.4       4 LYS4        0.0000 
     40 NZ        120.8300  -22.2700  -38.6100 N.4       4 LYS4        0.0000 
     41 NZ        124.4500  -23.8600  -40.7400 N.4       4 LYS4        0.0000 
     42 NZ        122.3100  -21.4300  -39.8700 N.4       4 LYS4        0.0000 
     43 NZ        123.5200  -21.9600  -40.5800 N.4       4 LYS4        0.0000 
     44 NZ        124.7400  -26.2900  -38.4400 N.4       4 LYS4        0.0000 
     45 NZ        125.0200  -24.9200  -38.9900 N.4       4 LYS4        0.0000 
     46 NZ        126.2300  -25.4500  -39.7000 N.4       4 LYS4        0.0000 
     47 NZ        124.0900  -23.0200  -38.8300 N.4       4 LYS4        0.0000 
     48 NZ        125.3000  -23.5500  -39.5400 N.4       4 LYS4        0.0000 
     49 NZ        126.5100  -24.0800  -40.2500 N.4       4 LYS4        0.0000 
     50 NZ        125.5800  -22.1800  -40.0900 N.4       4 LYS4        0.0000 
     51 NZ        126.7900  -22.7100  -40.8000 N.4       4 LYS4        0.0000 
     52 NZ        127.9900  -23.2500  -41.5100 N.4       4 LYS4        0.0000 
     53 NZ        127.0600  -21.3500  -41.3500 N.4       4 LYS4        0.0000 
     54 NZ        128.2700  -21.8800  -42.0600 N.4       4 LYS4        0.0000 
     55 NZ        127.0700  -25.1400  -38.5000 N.4       4 LYS4        0.0000 
     56 NZ        126.1400  -23.2400  -38.3400 N.4       4 LYS4        0.0000 
     57 NZ        127.3500  -23.7700  -39.0500 N.4       4 LYS4        0.0000 
     58 NZ        128.5600  -24.3000  -39.7600 N.4       4 LYS4        0.0000 
     59 NZ        126.4200  -21.8700  -38.8900 N.4       4 LYS4        0.0000 
     60 CZ        122.8500  -22.9000  -47.3600 C.ar      5 PHE5        0.0000 
     61 CZ        122.4900  -22.0600  -45.4500 C.ar      5 PHE5        0.0000 
     62 CZ        123.7000  -22.5900  -46.1600 C.ar      5 PHE5        0.0000 
     63 CZ        123.7000  -26.3800  -43.3100 C.ar      5 PHE5        0.0000 
     64 CZ        122.1200  -21.2200  -43.5300 C.ar      5 PHE5        0.0000 
     65 CZ        123.3300  -21.7500  -44.2400 C.ar      5 PHE5        0.0000 
     66 CZ        124.5400  -22.2800  -44.9500 C.ar      5 PHE5        0.0000 
     67 CZ        124.5400  -26.0700  -42.1100 C.ar      5 PHE5        0.0000 
     68 CZ        122.4000  -23.6400  -41.2300 C.ar      5 PHE5        0.0000 
     69 CZ        123.6100  -24.1700  -41.9400 C.ar      5 PHE5        0.0000 
     70 CZ        124.8200  -24.7000  -42.6500 C.ar      5 PHE5        0.0000 
     71 CZ        121.4700  -21.7400  -41.0700 C.ar      5 PHE5        0.0000 
     72 CZ        122.6800  -22.2700  -41.7800 C.ar      5 PHE5        0.0000 
     73 CZ        123.8900  -22.8100  -42.4900 C.ar      5 PHE5        0.0000 
     74 CZ        125.1000  -23.3400  -43.2000 C.ar      5 PHE5        0.0000 
     75 CZ        127.5200  -24.4000  -44.6200 C.ar      5 PHE5        0.0000 
     76 CZ        122.9600  -20.9100  -42.3300 C.ar      5 PHE5        0.0000 
     77 CZ        124.1700  -21.4400  -43.0400 C.ar      5 PHE5        0.0000 
     78 CZ        127.8000  -23.0300  -45.1700 C.ar      5 PHE5        0.0000 
     79 CZ        128.0800  -25.4600  -42.8700 C.ar      5 PHE5        0.0000 
     80 CZ        127.1500  -23.5600  -42.7100 C.ar      5 PHE5        0.0000 
     81 CA        123.9700  -21.2200  -46.7100 C.3       6 GLY6        0.0000 
     82 CA        121.8300  -18.7900  -45.8300 C.3       6 GLY6        0.0000 
     83 CA        123.0400  -19.3300  -46.5500 C.3       6 GLY6        0.0000 
     84 CA        124.2500  -19.8600  -47.2600 C.3       6 GLY6        0.0000 
     85 CA        126.0300  -21.4400  -46.2100 C.3       6 GLY6        0.0000 
     86 CA        127.2300  -21.9800  -46.9200 C.3       6 GLY6        0.0000 
     87 CA        122.6700  -18.4800  -44.6300 C.3       6 GLY6        0.0000 
     88 CA        123.8800  -19.0100  -45.3400 C.3       6 GLY6        0.0000 
     89 CA        123.3300  -25.5400  -41.3900 C.3       6 GLY6        0.0000 
     90 CA        126.5900  -22.5000  -44.4600 C.3       6 GLY6        0.0000 
     91 CA        122.0300  -19.0100  -42.1700 C.3       6 GLY6        0.0000 
     92 CA        123.2400  -19.5400  -42.8800 C.3       6 GLY6        0.0000 
     93 CA        125.6600  -20.6000  -44.3000 C.3       6 GLY6        0.0000 
     94 CA        126.8700  -21.1300  -45.0100 C.3       6 GLY6        0.0000 
     95 CA        123.5200  -18.1700  -43.4300 C.3       6 GLY6        0.0000 
     96 CA        124.7300  -18.7000  -44.1400 C.3       6 GLY6        0.0000 
     97 CA        123.9000  -26.6000  -39.6400 C.3       6 GLY6        0.0000 
     98 CA        121.3800  -19.5300  -39.7100 C.3       6 GLY6        0.0000 
     99 CA        126.2200  -21.6600  -42.5500 C.3       6 GLY6        0.0000 
    100 CA        127.4300  -22.1900  -43.2600 C.3       6 GLY6        0.0000 
    101 CA        122.8700  -18.7000  -40.9700 C.3       6 GLY6        0.0000 
    102 CA        126.5000  -20.2900  -43.1000 C.3       6 GLY6        0.0000 
    103 CA        123.1600  -21.1200  -38.6700 C.3       6 GLY6        0.0000 
    104 CA        124.3700  -21.6500  -39.3800 C.3       6 GLY6        0.0000 
    105 DU        125.7500  -22.8100  -45.6600 H         7 CUB7        0.0000 
    106 DU        126.9600  -23.3400  -46.3700 H         7 CUB7        0.0000 
    107 DU        123.6100  -20.3800  -44.7900 H         7 CUB7        0.0000 
    108 DU        124.8200  -20.9100  -45.5000 H         7 CUB7        0.0000 
    109 DU        126.0300  -25.2400  -43.3600 H         7 CUB7        0.0000 
    110 DU        126.3100  -23.8700  -43.9100 H         7 CUB7        0.0000 
    111 DU        125.3800  -21.9700  -43.7500 H         7 CUB7        0.0000 
    112 DU        124.4500  -20.0700  -43.5900 H         7 CUB7        0.0000 
    113 DU        125.6600  -24.3900  -41.4500 H         7 CUB7        0.0000 
    114 DU        124.7300  -22.4900  -41.2900 H         7 CUB7        0.0000 
    115 DU        125.9400  -23.0300  -42.0000 H         7 CUB7        0.0000 
@<TRIPOS>BOND
@<TRIPOS>SUBSTRUCTURE
     1 SER1        1 GROUP   
     2 ALA2       13 GROUP   
     3 ASP3       36 GROUP   
     4 LYS4       39 GROUP   
     5 PHE5       60 GROUP   
     6 GLY6       81 GROUP   
     7 CUB7      105 GROUP   
@<TRIPOS>SET

