#    Name: 6n7e_4_ANP
#    Modification time : Fri May 22 19:29:10 2020

@<TRIPOS>MOLECULE
6n7e_4_ANP
   43    45     1     0     1
SMALL
NO_CHARGES


@<TRIPOS>ATOM
      1 PG        120.6110  -22.3790  -34.3700 P.3       1 ANP901      0.0000 
      2 O1G       119.2820  -23.0020  -34.0780 O.co2     1 ANP901      0.0000 
      3 O2G       121.6840  -23.5210  -34.5600 O.co2     1 ANP901      0.0000 
      4 O3G       121.0500  -21.4410  -33.1730 O.co2     1 ANP901      0.0000 
      5 PB        120.7030  -22.5520  -37.0570 P.3       1 ANP901      0.0000 
      6 O1B       119.4180  -22.7930  -37.7760 O.co2     1 ANP901      0.0000 
      7 O2B       121.1700  -23.8950  -36.4300 O.co2     1 ANP901      0.0000 
      8 N3B       120.5060  -21.4710  -35.7950 N.3       1 ANP901      0.0000 
      9 PA        123.3080  -22.3390  -37.6810 P.3       1 ANP901      0.0000 
     10 O1A       123.8730  -21.2720  -36.8290 O.co2     1 ANP901      0.0000 
     11 O2A       123.3350  -23.7100  -36.9970 O.co2     1 ANP901      0.0000 
     12 O3A       121.7900  -22.0500  -38.0510 O.3       1 ANP901      0.0000 
     13 O5'       124.0810  -22.3750  -39.0580 O.3       1 ANP901      0.0000 
     14 C5'       124.3750  -23.6380  -39.6890 C.3       1 ANP901      0.0000 
     15 C4'       125.4010  -23.4470  -40.7820 C.3       1 ANP901      0.0000 
     16 O4'       124.7130  -23.2300  -42.0230 O.3       1 ANP901      0.0000 
     17 C3'       126.3660  -22.2840  -40.5690 C.3       1 ANP901      0.0000 
     18 O3'       127.6750  -22.7730  -40.2890 O.3       1 ANP901      0.0000 
     19 C2'       126.3480  -21.4970  -41.8890 C.3       1 ANP901      0.0000 
     20 O2'       127.6200  -21.5670  -42.5260 O.3       1 ANP901      0.0000 
     21 C1'       125.2840  -22.1730  -42.7580 C.3       1 ANP901      0.0000 
     22 N9        124.1990  -21.2880  -43.1680 N.pl3     1 ANP901      0.0000 
     23 C8        123.5020  -20.4090  -42.3760 C.2       1 ANP901      0.0000 
     24 N7        122.5630  -19.7520  -43.0070 N.2       1 ANP901      0.0000 
     25 C5        122.6300  -20.2410  -44.3060 C.ar      1 ANP901      0.0000 
     26 C6        121.8950  -19.9490  -45.4670 C.ar      1 ANP901      0.0000 
     27 N6        120.9020  -19.0540  -45.5110 N.pl3     1 ANP901      0.0000 
     28 N1        122.2180  -20.6170  -46.5970 N.ar      1 ANP901      0.0000 
     29 C2        123.2090  -21.5120  -46.5550 C.ar      1 ANP901      0.0000 
     30 N3        123.9710  -21.8710  -45.5190 N.ar      1 ANP901      0.0000 
     31 C4        123.6290  -21.1920  -44.4120 C.ar      1 ANP901      0.0000 
     32 HNB1      121.1450  -20.8270  -35.8170 H         1 ANP901      0.0000 
     33 H5'1      124.7250  -24.2550  -39.0230 H         1 ANP901      0.0000 
     34 H5'2      123.5590  -24.0020  -40.0730 H         1 ANP901      0.0000 
     35 H4'       125.9480  -24.2470  -40.9190 H         1 ANP901      0.0000 
     36 H3'       126.0060  -21.7310  -39.8720 H         1 ANP901      0.0000 
     37 H2'       126.0310  -20.6010  -41.7190 H         1 ANP901      0.0000 
     38 HO2'      128.0590  -22.2810  -42.2330 H         1 ANP901      0.0000 
     39 H1'       125.7530  -22.5390  -43.5250 H         1 ANP901      0.0000 
     40 H8        123.6880  -20.2880  -41.4460 H         1 ANP901      0.0000 
     41 HN61      120.4670  -18.8840  -46.3080 H         1 ANP901      0.0000 
     42 HN62      120.6500  -18.6040  -44.7430 H         1 ANP901      0.0000 
     43 H2        123.4020  -21.9640  -47.3920 H         1 ANP901      0.0000 
@<TRIPOS>BOND
     1    1    2 ar   
     2    1    3 ar   
     3    1    4 ar   
     4    1    8 1    
     5    5    6 ar   
     6    5    7 ar   
     7    5    8 1    
     8    5   12 1    
     9    8   32 1    
    10    9   10 ar   
    11    9   11 ar   
    12    9   12 1    
    13    9   13 1    
    14   13   14 1    
    15   14   15 1    
    16   14   33 1    
    17   14   34 1    
    18   15   16 1    
    19   15   17 1    
    20   15   35 1    
    21   16   21 1    
    22   17   18 1    
    23   17   19 1    
    24   17   36 1    
    25   19   20 1    
    26   19   21 1    
    27   19   37 1    
    28   20   38 1    
    29   21   22 1    
    30   21   39 1    
    31   22   23 1    
    32   22   31 1    
    33   23   24 2    
    34   23   40 1    
    35   24   25 1    
    36   25   26 ar   
    37   25   31 ar   
    38   26   27 1    
    39   26   28 ar   
    40   27   41 1    
    41   27   42 1    
    42   28   29 ar   
    43   29   30 ar   
    44   29   43 1    
    45   30   31 ar   
@<TRIPOS>SUBSTRUCTURE
     1 ANP901      1 GROUP   
@<TRIPOS>SET
ATOM$ORANGE STATIC     ATOMS   COLORGROUP SYSTEM 
20 14 14 15 15 17 17 19 19 21 21 23 23 25 25 26 26 29 \
29 31 31 

