#    Name: 6ow0_2_NAP
#    Modification time : Fri May 22 19:32:08 2020

@<TRIPOS>MOLECULE
6ow0_2_NAP
   48    52     1     0     1
SMALL
NO_CHARGES


@<TRIPOS>ATOM
      1 PA         46.5840   99.3930   35.6070 P.3       1 NAP1001     0.0000 
      2 O1A        46.5980  100.2140   34.3540 O.co2     1 NAP1001     0.0000 
      3 O2A        45.6280   98.2090   35.7130 O.co2     1 NAP1001     0.0000 
      4 O5B        46.3370  100.4070   36.8240 O.3       1 NAP1001     0.0000 
      5 C5B        45.5370  100.1370   37.9660 C.3       1 NAP1001     0.0000 
      6 C4B        45.7250  101.3640   38.8420 C.3       1 NAP1001     0.0000 
      7 O4B        44.7100  102.3270   38.5370 O.3       1 NAP1001     0.0000 
      8 C3B        45.6560  101.0720   40.3300 C.3       1 NAP1001     0.0000 
      9 O3B        46.9770  101.0380   40.8680 O.3       1 NAP1001     0.0000 
     10 C2B        44.8040  102.1860   40.9120 C.3       1 NAP1001     0.0000 
     11 O2B        45.6380  103.1680   41.5260 O.3       1 NAP1001     0.0000 
     12 C1B        44.0280  102.7530   39.7200 C.3       1 NAP1001     0.0000 
     13 N9A        42.6240  102.2450   39.6620 N.pl3     1 NAP1001     0.0000 
     14 C8A        42.2560  100.9850   39.3230 C.2       1 NAP1001     0.0000 
     15 N7A        40.9100  100.8340   39.3630 N.2       1 NAP1001     0.0000 
     16 C5A        40.3900  102.0200   39.7270 C.ar      1 NAP1001     0.0000 
     17 C6A        39.0210  102.5470   39.9520 C.ar      1 NAP1001     0.0000 
     18 N6A        37.9540  101.7270   39.7810 N.pl3     1 NAP1001     0.0000 
     19 N1A        38.8940  103.8490   40.3320 N.ar      1 NAP1001     0.0000 
     20 C2A        39.9720  104.6580   40.5020 C.ar      1 NAP1001     0.0000 
     21 N3A        41.2500  104.2390   40.3090 N.ar      1 NAP1001     0.0000 
     22 C4A        41.5180  102.9540   39.9290 C.ar      1 NAP1001     0.0000 
     23 O3         48.1410   98.9740   35.8250 O.3       1 NAP1001     0.0000 
     24 PN         48.9640   98.6130   37.1920 P.3       1 NAP1001     0.0000 
     25 O1N        48.2170   99.0130   38.4540 O.co2     1 NAP1001     0.0000 
     26 O2N        50.3830   99.1180   36.9870 O.co2     1 NAP1001     0.0000 
     27 O5D        48.9830   96.9930   37.1560 O.3       1 NAP1001     0.0000 
     28 C5D        49.0170   96.3050   35.9030 C.3       1 NAP1001     0.0000 
     29 C4D        49.4740   94.8600   36.0760 C.3       1 NAP1001     0.0000 
     30 O4D        50.0890   94.3740   34.8660 O.3       1 NAP1001     0.0000 
     31 C3D        50.4860   94.6420   37.1950 C.3       1 NAP1001     0.0000 
     32 O3D        49.8740   94.4640   38.4850 O.3       1 NAP1001     0.0000 
     33 C2D        51.2820   93.4360   36.6870 C.3       1 NAP1001     0.0000 
     34 O2D        50.8100   92.1800   37.2070 O.3       1 NAP1001     0.0000 
     35 C1D        51.1670   93.4760   35.1520 C.3       1 NAP1001     0.0000 
     36 N1N        52.4600   93.8850   34.5290 N.pl3     1 NAP1001     0.0000 
     37 C2N        53.0320   93.0810   33.6110 C.ar      1 NAP1001     0.0000 
     38 C3N        54.2610   93.4100   33.0150 C.ar      1 NAP1001     0.0000 
     39 C7N        54.8720   92.5140   31.9870 C.2       1 NAP1001     0.0000 
     40 O7N        55.9310   92.8560   31.4900 O.2       1 NAP1001     0.0000 
     41 N7N        54.2640   91.3830   31.6200 N.am      1 NAP1001     0.0000 
     42 C4N        54.9200   94.5870   33.3730 C.ar      1 NAP1001     0.0000 
     43 C5N        54.3240   95.4050   34.3210 C.ar      1 NAP1001     0.0000 
     44 C6N        53.0950   95.0320   34.8820 C.ar      1 NAP1001     0.0000 
     45 P2B        45.1000  104.3600   42.4870 P.3       1 NAP1001     0.0000 
     46 O1X        44.0700  103.7190   43.4130 O.co2     1 NAP1001     0.0000 
     47 O2X        46.3680  104.8150   43.1760 O.co2     1 NAP1001     0.0000 
     48 O3X        44.5200  105.3700   41.5090 O.co2     1 NAP1001     0.0000 
@<TRIPOS>BOND
     1    1    2 ar   
     2    1    3 ar   
     3    1    4 1    
     4    1   23 1    
     5    4    5 1    
     6    5    6 1    
     7    6    7 1    
     8    6    8 1    
     9    7   12 1    
    10    8    9 1    
    11    8   10 1    
    12   10   11 1    
    13   10   12 1    
    14   11   45 1    
    15   12   13 1    
    16   13   14 1    
    17   13   22 1    
    18   14   15 2    
    19   15   16 1    
    20   16   17 ar   
    21   16   22 ar   
    22   17   18 1    
    23   17   19 ar   
    24   19   20 ar   
    25   20   21 ar   
    26   21   22 ar   
    27   23   24 1    
    28   24   25 ar   
    29   24   26 ar   
    30   24   27 1    
    31   27   28 1    
    32   28   29 1    
    33   29   30 1    
    34   29   31 1    
    35   30   35 1    
    36   31   32 1    
    37   31   33 1    
    38   33   34 1    
    39   33   35 1    
    40   35   36 1    
    41   36   37 ar   
    42   36   44 ar   
    43   37   38 ar   
    44   38   39 1    
    45   38   42 ar   
    46   39   40 2    
    47   39   41 am   
    48   42   43 ar   
    49   43   44 ar   
    50   45   46 ar   
    51   45   47 ar   
    52   45   48 ar   
@<TRIPOS>SUBSTRUCTURE
     1 NAP1001     1 GROUP   
@<TRIPOS>SET
ATOM$ORANGE STATIC     ATOMS   COLORGROUP SYSTEM 
42 5 5 6 6 8 8 10 10 12 12 14 14 16 16 17 17 20 \
20 22 22 28 28 29 29 31 31 33 33 35 35 37 37 38 38 39 \
39 42 42 43 43 44 44 

