#    Name: 6ow0_1_NAP
#    Modification time : Fri May 22 19:32:03 2020

@<TRIPOS>MOLECULE
6ow0_1_NAP
   48    52     1     0     1
SMALL
NO_CHARGES


@<TRIPOS>ATOM
      1 PA         14.1420   86.6470   18.2570 P.3       1 NAP402      0.0000 
      2 O1A        14.4380   86.0630   19.6160 O.co2     1 NAP402      0.0000 
      3 O2A        12.7460   87.1590   17.9230 O.co2     1 NAP402      0.0000 
      4 O5B        14.6300   85.6080   17.1280 O.3       1 NAP402      0.0000 
      5 C5B        13.9060   85.3830   15.9190 C.3       1 NAP402      0.0000 
      6 C4B        14.6940   84.4070   15.0480 C.3       1 NAP402      0.0000 
      7 O4B        14.6030   83.0610   15.5610 O.3       1 NAP402      0.0000 
      8 C3B        14.1970   84.3300   13.6090 C.3       1 NAP402      0.0000 
      9 O3B        14.7410   85.3230   12.7540 O.3       1 NAP402      0.0000 
     10 C2B        14.6110   82.9430   13.1810 C.3       1 NAP402      0.0000 
     11 O2B        15.9750   82.9530   12.7060 O.3       1 NAP402      0.0000 
     12 C1B        14.3950   82.1490   14.4720 C.3       1 NAP402      0.0000 
     13 N9A        13.0010   81.5860   14.5430 N.pl3     1 NAP402      0.0000 
     14 C8A        11.8930   82.2150   15.0070 C.2       1 NAP402      0.0000 
     15 N7A        10.8000   81.4240   14.9350 N.2       1 NAP402      0.0000 
     16 C5A        11.1890   80.2490   14.4150 C.ar      1 NAP402      0.0000 
     17 C6A        10.5390   78.9570   14.0680 C.ar      1 NAP402      0.0000 
     18 N6A         9.2190   78.7690   14.2680 N.pl3     1 NAP402      0.0000 
     19 N1A        11.3130   77.9800   13.5410 N.ar      1 NAP402      0.0000 
     20 C2A        12.6400   78.1320   13.3360 C.ar      1 NAP402      0.0000 
     21 N3A        13.3000   79.2750   13.6190 N.ar      1 NAP402      0.0000 
     22 C4A        12.6430   80.3510   14.1520 C.ar      1 NAP402      0.0000 
     23 O3         15.1820   87.8860   18.1560 O.3       1 NAP402      0.0000 
     24 PN         15.3990   88.8880   16.8960 P.3       1 NAP402      0.0000 
     25 O1N        15.2170   88.1660   15.5880 O.co2     1 NAP402      0.0000 
     26 O2N        16.6890   89.6130   17.2150 O.co2     1 NAP402      0.0000 
     27 O5D        14.1590   89.8870   16.8100 O.3       1 NAP402      0.0000 
     28 C5D        13.8870   90.6760   17.9420 C.3       1 NAP402      0.0000 
     29 C4D        13.0780   91.8680   17.4780 C.3       1 NAP402      0.0000 
     30 O4D        12.9340   92.6970   18.6310 O.3       1 NAP402      0.0000 
     31 C3D        13.7260   92.6840   16.3670 C.3       1 NAP402      0.0000 
     32 O3D        13.1580   92.4250   15.0870 O.3       1 NAP402      0.0000 
     33 C2D        13.4890   94.1060   16.8090 C.3       1 NAP402      0.0000 
     34 O2D        12.3370   94.6870   16.1630 O.3       1 NAP402      0.0000 
     35 C1D        13.2730   94.0260   18.3260 C.3       1 NAP402      0.0000 
     36 N1N        14.4720   94.4250   19.0810 N.pl3     1 NAP402      0.0000 
     37 C2N        14.3320   95.4860   19.8900 C.ar      1 NAP402      0.0000 
     38 C3N        15.4020   95.9690   20.6300 C.ar      1 NAP402      0.0000 
     39 C7N        15.2100   97.1590   21.5270 C.2       1 NAP402      0.0000 
     40 O7N        16.2070   97.7290   21.9290 O.2       1 NAP402      0.0000 
     41 N7N        13.9950   97.6020   21.8750 N.am      1 NAP402      0.0000 
     42 C4N        16.6450   95.3320   20.5150 C.ar      1 NAP402      0.0000 
     43 C5N        16.7710   94.2360   19.6600 C.ar      1 NAP402      0.0000 
     44 C6N        15.6590   93.8020   18.9380 C.ar      1 NAP402      0.0000 
     45 P2B        16.6280   81.8380   11.7150 P.3       1 NAP402      0.0000 
     46 O1X        17.5420   81.1320   12.7050 O.co2     1 NAP402      0.0000 
     47 O2X        15.4710   81.0000   11.1920 O.co2     1 NAP402      0.0000 
     48 O3X        17.3160   82.6430   10.6300 O.co2     1 NAP402      0.0000 
@<TRIPOS>BOND
     1    1    2 ar   
     2    1    3 ar   
     3    1    4 1    
     4    1   23 1    
     5    4    5 1    
     6    5    6 1    
     7    6    7 1    
     8    6    8 1    
     9    7   12 1    
    10    8    9 1    
    11    8   10 1    
    12   10   11 1    
    13   10   12 1    
    14   11   45 1    
    15   12   13 1    
    16   13   14 1    
    17   13   22 1    
    18   14   15 2    
    19   15   16 1    
    20   16   17 ar   
    21   16   22 ar   
    22   17   18 1    
    23   17   19 ar   
    24   19   20 ar   
    25   20   21 ar   
    26   21   22 ar   
    27   23   24 1    
    28   24   25 ar   
    29   24   26 ar   
    30   24   27 1    
    31   27   28 1    
    32   28   29 1    
    33   29   30 1    
    34   29   31 1    
    35   30   35 1    
    36   31   32 1    
    37   31   33 1    
    38   33   34 1    
    39   33   35 1    
    40   35   36 1    
    41   36   37 ar   
    42   36   44 ar   
    43   37   38 ar   
    44   38   39 1    
    45   38   42 ar   
    46   39   40 2    
    47   39   41 am   
    48   42   43 ar   
    49   43   44 ar   
    50   45   46 ar   
    51   45   47 ar   
    52   45   48 ar   
@<TRIPOS>SUBSTRUCTURE
     1 NAP402      1 GROUP   
@<TRIPOS>SET
ATOM$ORANGE STATIC     ATOMS   COLORGROUP SYSTEM 
42 5 5 6 6 8 8 10 10 12 12 14 14 16 16 17 17 20 \
20 22 22 28 28 29 29 31 31 33 33 35 35 37 37 38 38 39 \
39 42 42 43 43 44 44 

