#    Name: 6qk7_1_5AD_CAVITY_N1_4
#    Modification time : Fri May 22 19:25:56 2020

@<TRIPOS>MOLECULE
6qk7_1_5AD_CAVITY_N1_4
   92     0     7     0     0
SMALL
NO_CHARGES


@<TRIPOS>ATOM
      1 OG        182.6200  245.1500  148.0200 O.3       1 SER1        0.0000 
      2 OG        183.7400  245.9100  148.6800 O.3       1 SER1        0.0000 
      3 OG        184.9300  245.6000  150.4100 O.3       1 SER1        0.0000 
      4 OG        184.8500  246.6600  149.3500 O.3       1 SER1        0.0000 
      5 OG        183.6800  249.5300  148.0600 O.3       1 SER1        0.0000 
      6 OG        183.5900  250.5900  147.0000 O.3       1 SER1        0.0000 
      7 OG        184.8700  249.2200  149.7900 O.3       1 SER1        0.0000 
      8 OG        185.8800  248.4800  148.9600 O.3       1 SER1        0.0000 
      9 OG        185.7900  249.5400  147.9000 O.3       1 SER1        0.0000 
     10 OG        188.0800  247.4200  149.8500 O.3       1 SER1        0.0000 
     11 OG        186.9900  249.2300  149.6200 O.3       1 SER1        0.0000 
     12 O         179.5300  248.4500  149.4400 O.2       2 ALA2        0.0000 
     13 O         181.5400  246.9600  147.7900 O.2       2 ALA2        0.0000 
     14 O         183.5400  245.4700  146.1300 O.2       2 ALA2        0.0000 
     15 O         181.8100  246.3400  151.4000 O.2       2 ALA2        0.0000 
     16 O         180.7300  248.1500  151.1700 O.2       2 ALA2        0.0000 
     17 O         182.7300  246.6600  149.5100 O.2       2 ALA2        0.0000 
     18 O         181.6500  248.4600  149.2800 O.2       2 ALA2        0.0000 
     19 O         182.6500  247.7200  148.4500 O.2       2 ALA2        0.0000 
     20 N         183.4800  249.0900  145.5100 N.am      2 ALA2        0.0000 
     21 N         181.6700  251.0200  149.7200 N.am      2 ALA2        0.0000 
     22 N         184.5900  249.8400  146.1800 N.am      2 ALA2        0.0000 
     23 N         183.3100  247.9800  157.1700 N.am      2 ALA2        0.0000 
     24 N         182.2300  249.7800  156.9400 N.am      2 ALA2        0.0000 
     25 N         181.1400  251.5900  156.7100 N.am      2 ALA2        0.0000 
     26 N         181.0500  252.6500  155.6600 N.am      2 ALA2        0.0000 
     27 N         182.2500  252.3400  157.3800 N.am      2 ALA2        0.0000 
     28 OD1       181.4500  248.0200  146.7300 O.co2     3 ASP3        0.0000 
     29 OD1       182.8400  248.1600  151.0100 O.co2     3 ASP3        0.0000 
     30 OD1       182.0300  249.3400  154.3900 O.co2     3 ASP3        0.0000 
     31 OD1       183.0400  248.6000  153.5600 O.co2     3 ASP3        0.0000 
     32 OD1       185.0400  247.1000  151.9000 O.co2     3 ASP3        0.0000 
     33 OD1       181.9500  250.4000  153.3300 O.co2     3 ASP3        0.0000 
     34 OD1       182.9500  249.6600  152.5000 O.co2     3 ASP3        0.0000 
     35 OD1       184.9600  248.1600  150.8400 O.co2     3 ASP3        0.0000 
     36 OD1       185.9600  247.4200  150.0200 O.co2     3 ASP3        0.0000 
     37 OD1       183.1400  250.1000  155.0500 O.co2     3 ASP3        0.0000 
     38 OD1       187.1600  247.1100  151.7400 O.co2     3 ASP3        0.0000 
     39 OD1       183.0600  251.1600  154.0000 O.co2     3 ASP3        0.0000 
     40 OD1       187.0700  248.1700  150.6800 O.co2     3 ASP3        0.0000 
     41 OD1       184.1700  251.9100  154.6600 O.co2     3 ASP3        0.0000 
     42 NZ        184.6500  246.2200  146.8000 N.4       4 LYS4        0.0000 
     43 NZ        184.5700  247.2800  145.7400 N.4       4 LYS4        0.0000 
     44 NZ        185.8500  245.9200  148.5200 N.4       4 LYS4        0.0000 
     45 NZ        184.7600  247.7200  148.2900 N.4       4 LYS4        0.0000 
     46 NZ        185.7700  246.9800  147.4600 N.4       4 LYS4        0.0000 
     47 NZ        184.6800  248.7800  147.2300 N.4       4 LYS4        0.0000 
     48 NZ        186.9600  246.6700  149.1900 N.4       4 LYS4        0.0000 
     49 NZ        187.9900  248.4900  148.8000 N.4       4 LYS4        0.0000 
     50 CZ        180.6400  249.2100  150.1100 C.ar      5 PHE5        0.0000 
     51 CZ        180.5600  250.2700  149.0500 C.ar      5 PHE5        0.0000 
     52 CZ        182.9300  247.1000  152.0600 C.ar      5 PHE5        0.0000 
     53 CZ        183.9300  246.3500  151.2400 C.ar      5 PHE5        0.0000 
     54 CZ        180.8400  249.6500  152.6600 C.ar      5 PHE5        0.0000 
     55 CZ        181.8400  248.9000  151.8400 C.ar      5 PHE5        0.0000 
     56 CZ        180.7500  250.7100  151.6100 C.ar      5 PHE5        0.0000 
     57 CZ        181.7500  249.9600  150.7800 C.ar      5 PHE5        0.0000 
     58 CZ        186.0500  246.3600  151.0700 C.ar      5 PHE5        0.0000 
     59 CZ        187.0500  245.6100  150.2400 C.ar      5 PHE5        0.0000 
     60 CZ        180.9400  251.1500  154.1600 C.ar      5 PHE5        0.0000 
     61 CA        182.5400  246.2100  146.9600 C.3       6 GLY6        0.0000 
     62 CA        182.0100  246.7800  153.9500 C.3       6 GLY6        0.0000 
     63 CA        180.9200  248.5900  153.7200 C.3       6 GLY6        0.0000 
     64 CA        181.9200  247.8400  152.8900 C.3       6 GLY6        0.0000 
     65 CA        182.7600  249.2200  149.9500 C.3       6 GLY6        0.0000 
     66 CA        182.6700  250.2800  148.8900 C.3       6 GLY6        0.0000 
     67 CA        182.5900  251.3400  147.8300 C.3       6 GLY6        0.0000 
     68 CA        182.2000  247.2200  156.5000 C.3       6 GLY6        0.0000 
     69 CA        181.1100  249.0300  156.2700 C.3       6 GLY6        0.0000 
     70 CA        182.1200  248.2800  155.4500 C.3       6 GLY6        0.0000 
     71 CA        183.1200  247.5400  154.6200 C.3       6 GLY6        0.0000 
     72 CA        181.0300  250.0900  155.2200 C.3       6 GLY6        0.0000 
     73 CA        181.8600  251.4600  152.2700 C.3       6 GLY6        0.0000 
     74 CA        182.8700  250.7200  151.4400 C.3       6 GLY6        0.0000 
     75 CA        183.8700  249.9700  150.6200 C.3       6 GLY6        0.0000 
     76 CA        183.2300  249.0400  156.1100 C.3       6 GLY6        0.0000 
     77 CA        182.0600  251.9000  154.8300 C.3       6 GLY6        0.0000 
     78 CA        183.3400  250.5400  157.6100 C.3       6 GLY6        0.0000 
     79 CA        184.2600  250.8500  155.7200 C.3       6 GLY6        0.0000 
     80 CA        182.1700  253.4000  156.3200 C.3       6 GLY6        0.0000 
     81 CA        183.1700  252.6600  155.4900 C.3       6 GLY6        0.0000 
     82 CA        184.3700  252.3500  157.2200 C.3       6 GLY6        0.0000 
     83 DU        182.4500  247.2800  145.9000 H         7 CUB7        0.0000 
     84 DU        183.6500  246.9700  147.6200 H         7 CUB7        0.0000 
     85 DU        181.5600  249.5200  148.2200 H         7 CUB7        0.0000 
     86 DU        182.5600  248.7800  147.4000 H         7 CUB7        0.0000 
     87 DU        183.5700  248.0300  146.5700 H         7 CUB7        0.0000 
     88 DU        182.4800  249.8400  146.3400 H         7 CUB7        0.0000 
     89 DU        183.8500  247.4100  150.1800 H         7 CUB7        0.0000 
     90 DU        183.7600  248.4700  149.1200 H         7 CUB7        0.0000 
     91 DU        182.1400  250.8400  155.8800 H         7 CUB7        0.0000 
     92 DU        183.2500  251.6000  156.5500 H         7 CUB7        0.0000 
@<TRIPOS>BOND
@<TRIPOS>SUBSTRUCTURE
     1 SER1        1 GROUP   
     2 ALA2       12 GROUP   
     3 ASP3       28 GROUP   
     4 LYS4       42 GROUP   
     5 PHE5       50 GROUP   
     6 GLY6       61 GROUP   
     7 CUB7       83 GROUP   
@<TRIPOS>SET

