#    Name: 6qk7_1_5AD
#    Modification time : Fri May 22 19:25:55 2020

@<TRIPOS>MOLECULE
6qk7_1_5AD
   18    20     1     0     0
SMALL
NO_CHARGES


@<TRIPOS>ATOM
      1 N1        181.9660  249.4820  156.7980 N.ar      1 5AD602      0.0000 
      2 C2        182.6370  248.3860  156.4440 C.ar      1 5AD602      0.0000 
      3 N3        182.8630  248.0320  155.1760 N.ar      1 5AD602      0.0000 
      4 C4        182.4070  248.7720  154.1560 C.ar      1 5AD602      0.0000 
      5 N9        182.4640  248.6840  152.8320 N.pl3     1 5AD602      0.0000 
      6 C8        181.8220  249.7330  152.3230 C.2       1 5AD602      0.0000 
      7 N7        181.3300  250.5290  153.2990 N.2       1 5AD602      0.0000 
      8 C5        181.6640  249.9860  154.4690 C.ar      1 5AD602      0.0000 
      9 C6        181.4560  250.3160  155.8880 C.ar      1 5AD602      0.0000 
     10 N6        180.7840  251.4190  156.2700 N.pl3     1 5AD602      0.0000 
     11 C1'       183.1100  247.6070  152.0570 C.3       1 5AD602      0.0000 
     12 C2'       182.1090  247.0200  151.0890 C.3       1 5AD602      0.0000 
     13 C3'       182.9440  246.5650  149.9100 C.3       1 5AD602      0.0000 
     14 C4'       184.2640  247.2780  150.0710 C.3       1 5AD602      0.0000 
     15 C5'       184.5820  248.1070  148.8370 C.3       1 5AD602      0.0000 
     16 O4'       184.1310  248.1110  151.2190 O.3       1 5AD602      0.0000 
     17 O2'       181.3810  245.9450  151.6870 O.3       1 5AD602      0.0000 
     18 O3'       183.1810  245.1510  149.9350 O.3       1 5AD602      0.0000 
@<TRIPOS>BOND
     1    1    2 ar   
     2    1    9 ar   
     3    2    3 ar   
     4    3    4 ar   
     5    4    5 1    
     6    4    8 ar   
     7    5    6 1    
     8    5   11 1    
     9    6    7 2    
    10    7    8 1    
    11    8    9 ar   
    12    9   10 1    
    13   11   12 1    
    14   11   16 1    
    15   12   13 1    
    16   12   17 1    
    17   13   14 1    
    18   13   18 1    
    19   14   15 1    
    20   14   16 1    
@<TRIPOS>SUBSTRUCTURE
     1 5AD602      1 GROUP   
@<TRIPOS>SET

