#    Name: 6c9f_4_AMP
#    Modification time : Fri May 22 19:25:44 2020

@<TRIPOS>MOLECULE
6c9f_4_AMP
   23    25     1     0     1
SMALL
NO_CHARGES


@<TRIPOS>ATOM
      1 P         -34.5890   70.0660   20.4920 P.3       1 AMP1103     0.0000 
      2 O1P       -34.1190   69.6130   19.1300 O.co2     1 AMP1103     0.0000 
      3 O2P       -34.5430   68.9930   21.5540 O.co2     1 AMP1103     0.0000 
      4 O3P       -35.8560   70.8880   20.4780 O.co2     1 AMP1103     0.0000 
      5 O5'       -33.4690   71.0960   20.9590 O.3       1 AMP1103     0.0000 
      6 C5'       -33.2880   72.3340   20.2810 C.3       1 AMP1103     0.0000 
      7 C4'       -32.8680   73.4290   21.2280 C.3       1 AMP1103     0.0000 
      8 O4'       -33.8710   73.5620   22.2720 O.3       1 AMP1103     0.0000 
      9 C3'       -31.5340   73.1950   21.9400 C.3       1 AMP1103     0.0000 
     10 O3'       -30.8500   74.4390   22.0860 O.3       1 AMP1103     0.0000 
     11 C2'       -31.9640   72.6860   23.3140 C.3       1 AMP1103     0.0000 
     12 O2'       -31.0270   72.9130   24.3460 O.3       1 AMP1103     0.0000 
     13 C1'       -33.2550   73.4630   23.5400 C.3       1 AMP1103     0.0000 
     14 N9        -34.1890   72.8120   24.4600 N.pl3     1 AMP1103     0.0000 
     15 C8        -34.5700   71.5200   24.4250 C.2       1 AMP1103     0.0000 
     16 N7        -35.4410   71.2390   25.4290 N.2       1 AMP1103     0.0000 
     17 C5        -35.6240   72.3720   26.1320 C.ar      1 AMP1103     0.0000 
     18 C6        -36.4140   72.7810   27.3170 C.ar      1 AMP1103     0.0000 
     19 N6        -37.2060   71.8950   27.9690 N.pl3     1 AMP1103     0.0000 
     20 N1        -36.3190   74.0660   27.7250 N.ar      1 AMP1103     0.0000 
     21 C2        -35.5370   74.9570   27.0870 C.ar      1 AMP1103     0.0000 
     22 N3        -34.7940   74.6560   26.0070 N.ar      1 AMP1103     0.0000 
     23 C4        -34.7910   73.4030   25.4930 C.ar      1 AMP1103     0.0000 
@<TRIPOS>BOND
     1    1    2 ar   
     2    1    3 ar   
     3    1    4 ar   
     4    1    5 1    
     5    5    6 1    
     6    6    7 1    
     7    7    8 1    
     8    7    9 1    
     9    8   13 1    
    10    9   10 1    
    11    9   11 1    
    12   11   12 1    
    13   11   13 1    
    14   13   14 1    
    15   14   15 1    
    16   14   23 1    
    17   15   16 2    
    18   16   17 1    
    19   17   18 ar   
    20   17   23 ar   
    21   18   19 1    
    22   18   20 ar   
    23   20   21 ar   
    24   21   22 ar   
    25   22   23 ar   
@<TRIPOS>SUBSTRUCTURE
     1 AMP1103     1 GROUP   
@<TRIPOS>SET
ATOM$ORANGE STATIC     ATOMS   COLORGROUP SYSTEM 
20 6 6 7 7 9 9 11 11 13 13 15 15 17 17 18 18 21 \
21 23 23 

