#    Name: 6c9f_3_AMP
#    Modification time : Fri May 22 19:25:38 2020

@<TRIPOS>MOLECULE
6c9f_3_AMP
   23    25     1     0     1
SMALL
NO_CHARGES


@<TRIPOS>ATOM
      1 P         -38.4380   61.5410   21.6560 P.3       1 AMP1102     0.0000 
      2 O1P       -38.6950   60.7090   20.4220 O.co2     1 AMP1102     0.0000 
      3 O2P       -36.9760   61.7000   21.9960 O.co2     1 AMP1102     0.0000 
      4 O3P       -39.2410   62.8180   21.7460 O.co2     1 AMP1102     0.0000 
      5 O5'       -38.9750   60.6430   22.8560 O.3       1 AMP1102     0.0000 
      6 C5'       -39.7200   59.4570   22.6040 C.3       1 AMP1102     0.0000 
      7 C4'       -40.1060   58.7670   23.8890 C.3       1 AMP1102     0.0000 
      8 O4'       -38.9590   58.7680   24.7850 O.3       1 AMP1102     0.0000 
      9 C3'       -41.2460   59.4290   24.6600 C.3       1 AMP1102     0.0000 
     10 O3'       -42.0010   58.4270   25.3410 O.3       1 AMP1102     0.0000 
     11 C2'       -40.5050   60.2840   25.6810 C.3       1 AMP1102     0.0000 
     12 O2'       -41.2500   60.6040   26.8370 O.3       1 AMP1102     0.0000 
     13 C1'       -39.3100   59.3940   26.0050 C.3       1 AMP1102     0.0000 
     14 N9        -38.1450   60.1280   26.5030 N.pl3     1 AMP1102     0.0000 
     15 C8        -37.4330   61.0400   25.8160 C.2       1 AMP1102     0.0000 
     16 N7        -36.4210   61.5430   26.5700 N.2       1 AMP1102     0.0000 
     17 C5        -36.4830   60.9460   27.7740 C.ar      1 AMP1102     0.0000 
     18 C6        -35.7140   61.0130   29.0390 C.ar      1 AMP1102     0.0000 
     19 N6        -34.6500   61.8430   29.1640 N.pl3     1 AMP1102     0.0000 
     20 N1        -36.1120   60.2200   30.0600 N.ar      1 AMP1102     0.0000 
     21 C2        -37.1680   59.3930   29.9420 C.ar      1 AMP1102     0.0000 
     22 N3        -37.9100   59.2800   28.8250 N.ar      1 AMP1102     0.0000 
     23 C4        -37.6240   60.0180   27.7270 C.ar      1 AMP1102     0.0000 
@<TRIPOS>BOND
     1    1    2 ar   
     2    1    3 ar   
     3    1    4 ar   
     4    1    5 1    
     5    5    6 1    
     6    6    7 1    
     7    7    8 1    
     8    7    9 1    
     9    8   13 1    
    10    9   10 1    
    11    9   11 1    
    12   11   12 1    
    13   11   13 1    
    14   13   14 1    
    15   14   15 1    
    16   14   23 1    
    17   15   16 2    
    18   16   17 1    
    19   17   18 ar   
    20   17   23 ar   
    21   18   19 1    
    22   18   20 ar   
    23   20   21 ar   
    24   21   22 ar   
    25   22   23 ar   
@<TRIPOS>SUBSTRUCTURE
     1 AMP1102     1 GROUP   
@<TRIPOS>SET
ATOM$ORANGE STATIC     ATOMS   COLORGROUP SYSTEM 
20 6 6 7 7 9 9 11 11 13 13 15 15 17 17 18 18 21 \
21 23 23 

