#    Name: 6c9f_2_AMP
#    Modification time : Fri May 22 19:25:33 2020

@<TRIPOS>MOLECULE
6c9f_2_AMP
   23    25     1     0     1
SMALL
NO_CHARGES


@<TRIPOS>ATOM
      1 P         -40.2670   69.7720   13.6490 P.3       1 AMP1101     0.0000 
      2 O1P       -39.7570   68.6510   12.7760 O.co2     1 AMP1101     0.0000 
      3 O2P       -39.1870   70.5040   14.4120 O.co2     1 AMP1101     0.0000 
      4 O3P       -41.4770   69.4240   14.4830 O.co2     1 AMP1101     0.0000 
      5 O5'       -40.7960   70.8720   12.6250 O.3       1 AMP1101     0.0000 
      6 C5'       -41.5400   71.9970   13.0840 C.3       1 AMP1101     0.0000 
      7 C4'       -42.1840   72.7500   11.9450 C.3       1 AMP1101     0.0000 
      8 O4'       -41.2560   72.8070   10.8280 O.3       1 AMP1101     0.0000 
      9 C3'       -43.4730   72.1330   11.4040 C.3       1 AMP1101     0.0000 
     10 O3'       -44.3710   73.1730   11.0190 O.3       1 AMP1101     0.0000 
     11 C2'       -43.0000   71.3810   10.1630 C.3       1 AMP1101     0.0000 
     12 O2'       -43.9930   71.2000    9.1750 O.3       1 AMP1101     0.0000 
     13 C1'       -41.8650   72.2730    9.6690 C.3       1 AMP1101     0.0000 
     14 N9        -40.8390   71.5560    8.9090 N.pl3     1 AMP1101     0.0000 
     15 C8        -40.1130   70.5200    9.3740 C.2       1 AMP1101     0.0000 
     16 N7        -39.2480   70.0650    8.4330 N.2       1 AMP1101     0.0000 
     17 C5        -39.4170   70.8200    7.3310 C.ar      1 AMP1101     0.0000 
     18 C6        -38.8210   70.8730    5.9760 C.ar      1 AMP1101     0.0000 
     19 N6        -37.8480   70.0050    5.6080 N.pl3     1 AMP1101     0.0000 
     20 N1        -39.2810   71.8160    5.1230 N.ar      1 AMP1101     0.0000 
     21 C2        -40.2480   72.6820    5.4820 C.ar      1 AMP1101     0.0000 
     22 N3        -40.8330   72.6900    6.6940 N.ar      1 AMP1101     0.0000 
     23 C4        -40.4700   71.7980    7.6470 C.ar      1 AMP1101     0.0000 
@<TRIPOS>BOND
     1    1    2 ar   
     2    1    3 ar   
     3    1    4 ar   
     4    1    5 1    
     5    5    6 1    
     6    6    7 1    
     7    7    8 1    
     8    7    9 1    
     9    8   13 1    
    10    9   10 1    
    11    9   11 1    
    12   11   12 1    
    13   11   13 1    
    14   13   14 1    
    15   14   15 1    
    16   14   23 1    
    17   15   16 2    
    18   16   17 1    
    19   17   18 ar   
    20   17   23 ar   
    21   18   19 1    
    22   18   20 ar   
    23   20   21 ar   
    24   21   22 ar   
    25   22   23 ar   
@<TRIPOS>SUBSTRUCTURE
     1 AMP1101     1 GROUP   
@<TRIPOS>SET
ATOM$ORANGE STATIC     ATOMS   COLORGROUP SYSTEM 
20 6 6 7 7 9 9 11 11 13 13 15 15 17 17 18 18 21 \
21 23 23 

