#    Name: 6c9f_1_STU
#    Modification time : Fri May 22 19:25:27 2020

@<TRIPOS>MOLECULE
6c9f_1_STU
   35    42     1     0     0
SMALL
NO_CHARGES


@<TRIPOS>ATOM
      1 O4        -20.2260   21.3720  -26.9440 O.3       1 STU602      0.0000 
      2 C25       -19.6260   20.3360  -26.1090 C.3       1 STU602      0.0000 
      3 C24       -20.6350   19.8320  -25.0320 C.3       1 STU602      0.0000 
      4 C23       -22.0040   20.3400  -25.3890 C.3       1 STU602      0.0000 
      5 C22       -21.9580   21.8250  -25.3410 C.3       1 STU602      0.0000 
      6 C21       -21.1540   22.3600  -26.4560 C.3       1 STU602      0.0000 
      7 C26       -22.1080   22.6580  -27.6280 C.3       1 STU602      0.0000 
      8 N2        -20.4830   23.5830  -26.0030 N.pl3     1 STU602      0.0000 
      9 C18       -19.1620   23.3990  -25.4560 C.ar      1 STU602      0.0000 
     10 C19       -18.3460   22.2970  -25.2600 C.ar      1 STU602      0.0000 
     11 C6        -17.0650   22.4570  -24.6840 C.ar      1 STU602      0.0000 
     12 C7        -16.6150   23.7400  -24.3040 C.ar      1 STU602      0.0000 
     13 C10       -17.4120   24.8250  -24.4880 C.ar      1 STU602      0.0000 
     14 C11       -18.6860   24.6640  -25.0610 C.ar      1 STU602      0.0000 
     15 C12       -19.7680   25.6980  -25.3780 C.ar      1 STU602      0.0000 
     16 C17       -20.8360   24.9910  -25.9440 C.ar      1 STU602      0.0000 
     17 C16       -21.9870   25.6850  -26.3380 C.ar      1 STU602      0.0000 
     18 C15       -22.0740   27.0580  -26.1780 C.ar      1 STU602      0.0000 
     19 C14       -21.0270   27.7690  -25.6200 C.ar      1 STU602      0.0000 
     20 C13       -19.8650   27.1010  -25.2150 C.ar      1 STU602      0.0000 
     21 C9        -16.7350   26.1140  -24.0050 C.3       1 STU602      0.0000 
     22 N1        -15.4040   25.6700  -23.5830 N.am      1 STU602      0.0000 
     23 C8        -15.3440   24.2280  -23.6760 C.2       1 STU602      0.0000 
     24 O5        -14.2730   23.4230  -23.2400 O.2       1 STU602      0.0000 
     25 C5        -16.4210   21.0740  -24.6060 C.ar      1 STU602      0.0000 
     26 C20       -17.3480   20.1830  -25.1380 C.ar      1 STU602      0.0000 
     27 C1        -17.0780   18.8190  -25.2190 C.ar      1 STU602      0.0000 
     28 C2        -15.8670   18.3300  -24.7660 C.ar      1 STU602      0.0000 
     29 C3        -14.9170   19.1880  -24.2310 C.ar      1 STU602      0.0000 
     30 C4        -15.1790   20.5680  -24.1430 C.ar      1 STU602      0.0000 
     31 N3        -18.5300   20.9150  -25.5340 N.pl3     1 STU602      0.0000 
     32 O6        -21.3900   22.2280  -24.0710 O.3       1 STU602      0.0000 
     33 C27       -22.2930   23.0020  -23.2620 C.3       1 STU602      0.0000 
     34 N4        -22.9630   19.8380  -24.4250 N.4       1 STU602      0.0000 
     35 C28       -24.3080   20.1970  -24.8240 C.3       1 STU602      0.0000 
@<TRIPOS>BOND
     1    1    2 1    
     2    1    6 1    
     3    2    3 1    
     4    2   31 1    
     5    3    4 1    
     6    4    5 1    
     7    4   34 1    
     8    5    6 1    
     9    5   32 1    
    10    6    7 1    
    11    6    8 1    
    12    8    9 1    
    13    8   16 1    
    14    9   10 ar   
    15    9   14 ar   
    16   10   11 ar   
    17   10   31 1    
    18   11   12 ar   
    19   11   25 1    
    20   12   13 ar   
    21   12   23 1    
    22   13   14 ar   
    23   13   21 1    
    24   14   15 1    
    25   15   16 ar   
    26   15   20 ar   
    27   16   17 ar   
    28   17   18 ar   
    29   18   19 ar   
    30   19   20 ar   
    31   21   22 1    
    32   22   23 am   
    33   23   24 2    
    34   25   26 ar   
    35   25   30 ar   
    36   26   27 ar   
    37   26   31 1    
    38   27   28 ar   
    39   28   29 ar   
    40   29   30 ar   
    41   32   33 1    
    42   34   35 1    
@<TRIPOS>SUBSTRUCTURE
     1 STU602      1 GROUP   
@<TRIPOS>SET

