#    Name: 6g2p_1_FAD
#    Modification time : Fri May 22 19:32:22 2020

@<TRIPOS>MOLECULE
6g2p_1_FAD
   53    58     1     0     1
SMALL
NO_CHARGES


@<TRIPOS>ATOM
      1 PA         17.9780   20.9830    8.5540 P.3       1 FAD501      0.0000 
      2 O1A        17.2750   22.3160    8.5060 O.co2     1 FAD501      0.0000 
      3 O2A        17.6120   20.1050    7.3580 O.co2     1 FAD501      0.0000 
      4 O5B        19.5370   21.2380    8.5970 O.3       1 FAD501      0.0000 
      5 C5B        20.3990   20.1480    8.2910 C.3       1 FAD501      0.0000 
      6 C4B        21.6840   20.7270    7.8430 C.3       1 FAD501      0.0000 
      7 O4B        22.7280   19.6650    7.7360 O.3       1 FAD501      0.0000 
      8 C3B        21.5330   21.3370    6.5080 C.3       1 FAD501      0.0000 
      9 O3B        21.8660   22.7380    6.6220 O.3       1 FAD501      0.0000 
     10 C2B        22.4560   20.6200    5.5890 C.3       1 FAD501      0.0000 
     11 O2B        23.0940   21.4820    4.6150 O.3       1 FAD501      0.0000 
     12 C1B        23.4640   20.0350    6.4870 C.3       1 FAD501      0.0000 
     13 N9A        24.0820   18.8790    5.9960 N.pl3     1 FAD501      0.0000 
     14 C8A        23.5990   17.8140    5.6210 C.2       1 FAD501      0.0000 
     15 N7A        24.2490   17.0050    5.2940 N.2       1 FAD501      0.0000 
     16 C5A        25.4570   17.1070    5.3050 C.ar      1 FAD501      0.0000 
     17 C6A        26.9080   16.4940    5.0280 C.ar      1 FAD501      0.0000 
     18 N6A        27.0680   15.1870    4.5290 N.pl3     1 FAD501      0.0000 
     19 N1A        28.0440   17.3180    5.2930 N.ar      1 FAD501      0.0000 
     20 C2A        27.8150   18.4490    5.7230 C.ar      1 FAD501      0.0000 
     21 N3A        26.7810   19.0080    5.9700 N.ar      1 FAD501      0.0000 
     22 C4A        25.6480   18.6260    5.8670 C.ar      1 FAD501      0.0000 
     23 N1          8.7150   23.4730   10.2400 N.2       1 FAD501      0.0000 
     24 C2          7.8280   24.1850   11.1870 C.2       1 FAD501      0.0000 
     25 O2          8.0000   23.9910   12.3680 O.2       1 FAD501      0.0000 
     26 N3          6.7900   25.0280   10.6890 N.am      1 FAD501      0.0000 
     27 C4          6.6420   25.2230    9.3330 C.2       1 FAD501      0.0000 
     28 O4          5.8430   26.0280    8.8770 O.2       1 FAD501      0.0000 
     29 C4X         7.5180   24.5060    8.4040 C.2       1 FAD501      0.0000 
     30 N5          7.3990   24.6600    7.1040 N.2       1 FAD501      0.0000 
     31 C5X         8.3390   23.9610    6.1990 C.ar      1 FAD501      0.0000 
     32 C6          8.2160   24.1380    4.8120 C.ar      1 FAD501      0.0000 
     33 C7          9.0920   23.4900    3.9360 C.ar      1 FAD501      0.0000 
     34 C7M         8.9130   23.7220    2.4350 C.3       1 FAD501      0.0000 
     35 C8         10.0960   22.6740    4.4660 C.ar      1 FAD501      0.0000 
     36 C8M        11.1010   21.9270    3.5760 C.3       1 FAD501      0.0000 
     37 C9         10.2230   22.5080    5.8420 C.ar      1 FAD501      0.0000 
     38 C9A         9.3440   23.1480    6.7210 C.ar      1 FAD501      0.0000 
     39 N10         9.4700   22.9760    8.1240 N.pl3     1 FAD501      0.0000 
     40 C10         8.5820   23.6320    8.9650 C.2       1 FAD501      0.0000 
     41 C1'        10.4900   22.0730    8.7300 C.3       1 FAD501      0.0000 
     42 C2'        11.7070   22.7030    9.3370 C.3       1 FAD501      0.0000 
     43 O2'        12.3270   23.3820    8.3070 O.3       1 FAD501      0.0000 
     44 C3'        12.5780   21.5340    9.8130 C.3       1 FAD501      0.0000 
     45 O3'        11.8550   20.7020   10.6750 O.3       1 FAD501      0.0000 
     46 C4'        13.7920   22.0280   10.5440 C.3       1 FAD501      0.0000 
     47 O4'        14.2720   23.2130    9.9480 O.3       1 FAD501      0.0000 
     48 C5'        14.8860   20.9690   10.4920 C.3       1 FAD501      0.0000 
     49 O5'        15.9830   21.4530   11.2750 O.3       1 FAD501      0.0000 
     50 P          17.2910   20.5660   11.3220 P.3       1 FAD501      0.0000 
     51 O1P        18.3880   21.4320   11.9070 O.co2     1 FAD501      0.0000 
     52 O2P        17.0370   19.3470   12.1700 O.co2     1 FAD501      0.0000 
     53 O3P        17.6000   20.0930    9.8400 O.3       1 FAD501      0.0000 
@<TRIPOS>BOND
     1    1    2 ar   
     2    1    3 ar   
     3    1    4 1    
     4    1   53 1    
     5    4    5 1    
     6    5    6 1    
     7    6    7 1    
     8    6    8 1    
     9    7   12 1    
    10    8    9 1    
    11    8   10 1    
    12   10   11 1    
    13   10   12 1    
    14   12   13 1    
    15   13   14 1    
    16   13   22 1    
    17   14   15 2    
    18   15   16 1    
    19   16   17 ar   
    20   16   22 ar   
    21   17   18 1    
    22   17   19 ar   
    23   19   20 ar   
    24   20   21 ar   
    25   21   22 ar   
    26   23   24 1    
    27   23   40 2    
    28   24   25 2    
    29   24   26 am   
    30   26   27 am   
    31   27   28 2    
    32   27   29 1    
    33   29   30 2    
    34   29   40 1    
    35   30   31 1    
    36   31   32 ar   
    37   31   38 ar   
    38   32   33 ar   
    39   33   34 1    
    40   33   35 ar   
    41   35   36 1    
    42   35   37 ar   
    43   37   38 ar   
    44   38   39 1    
    45   39   40 1    
    46   39   41 1    
    47   41   42 1    
    48   42   43 1    
    49   42   44 1    
    50   44   45 1    
    51   44   46 1    
    52   46   47 1    
    53   46   48 1    
    54   48   49 1    
    55   49   50 1    
    56   50   51 ar   
    57   50   52 ar   
    58   50   53 1    
@<TRIPOS>SUBSTRUCTURE
     1 FAD501      1 GROUP   
@<TRIPOS>SET
ATOM$ORANGE STATIC     ATOMS   COLORGROUP SYSTEM 
54 5 5 6 6 8 8 10 10 12 12 14 14 16 16 17 17 20 \
20 22 22 24 24 27 27 29 29 31 31 32 32 33 33 34 34 35 \
35 36 36 37 37 38 38 40 40 41 41 42 42 44 44 46 46 48 \
48 

