#    Name: 6hts_1_ADP
#    Modification time : Fri May 22 19:26:14 2020

@<TRIPOS>MOLECULE
6hts_1_ADP
   27    29     1     0     1
SMALL
NO_CHARGES


@<TRIPOS>ATOM
      1 PB        175.0550  123.8450  190.9840 P.3       1 ADP501      0.0000 
      2 O1B       174.6910  124.9360  190.0060 O.co2     1 ADP501      0.0000 
      3 O2B       175.8430  124.3200  192.1810 O.co2     1 ADP501      0.0000 
      4 O3B       173.9210  122.9050  191.3200 O.co2     1 ADP501      0.0000 
      5 PA        175.6740  122.2270  188.7870 P.3       1 ADP501      0.0000 
      6 O1A       175.4270  123.3110  187.7650 O.co2     1 ADP501      0.0000 
      7 O2A       174.5930  121.2140  189.0760 O.co2     1 ADP501      0.0000 
      8 O3A       176.0990  122.9230  190.1750 O.3       1 ADP501      0.0000 
      9 O5'       177.0050  121.4300  188.3590 O.3       1 ADP501      0.0000 
     10 C5'       177.0150  120.6670  187.1550 C.3       1 ADP501      0.0000 
     11 C4'       178.3880  120.0440  186.9310 C.3       1 ADP501      0.0000 
     12 O4'       178.8370  119.3690  188.1090 O.3       1 ADP501      0.0000 
     13 C3'       178.3400  119.0180  185.8110 C.3       1 ADP501      0.0000 
     14 O3'       179.1010  119.4780  184.6920 O.3       1 ADP501      0.0000 
     15 C2'       178.9580  117.7570  186.3800 C.3       1 ADP501      0.0000 
     16 O2'       180.0660  117.3480  185.5730 O.3       1 ADP501      0.0000 
     17 C1'       179.4330  118.1120  187.7790 C.3       1 ADP501      0.0000 
     18 N9        178.9820  117.0830  188.7490 N.pl3     1 ADP501      0.0000 
     19 C8        178.2500  117.3280  189.8500 C.2       1 ADP501      0.0000 
     20 N7        177.9980  116.1890  190.5410 N.2       1 ADP501      0.0000 
     21 C5        178.5860  115.1790  189.8760 C.ar      1 ADP501      0.0000 
     22 C6        178.7110  113.7140  190.0600 C.ar      1 ADP501      0.0000 
     23 N6        178.1420  113.0910  191.1200 N.pl3     1 ADP501      0.0000 
     24 N1        179.4120  113.0220  189.1350 N.ar      1 ADP501      0.0000 
     25 C2        179.9800  113.6310  188.0780 C.ar      1 ADP501      0.0000 
     26 N3        179.9080  114.9540  187.8500 N.ar      1 ADP501      0.0000 
     27 C4        179.2390  115.7720  188.6980 C.ar      1 ADP501      0.0000 
@<TRIPOS>BOND
     1    1    2 ar   
     2    1    3 ar   
     3    1    4 ar   
     4    1    8 1    
     5    5    6 ar   
     6    5    7 ar   
     7    5    8 1    
     8    5    9 1    
     9    9   10 1    
    10   10   11 1    
    11   11   12 1    
    12   11   13 1    
    13   12   17 1    
    14   13   14 1    
    15   13   15 1    
    16   15   16 1    
    17   15   17 1    
    18   17   18 1    
    19   18   19 1    
    20   18   27 1    
    21   19   20 2    
    22   20   21 1    
    23   21   22 ar   
    24   21   27 ar   
    25   22   23 1    
    26   22   24 ar   
    27   24   25 ar   
    28   25   26 ar   
    29   26   27 ar   
@<TRIPOS>SUBSTRUCTURE
     1 ADP501      1 GROUP   
@<TRIPOS>SET
ATOM$ORANGE STATIC     ATOMS   COLORGROUP SYSTEM 
20 10 10 11 11 13 13 15 15 17 17 19 19 21 21 22 22 25 \
25 27 27 

