#    Name: 6hts_4_ADP
#    Modification time : Fri May 22 19:27:48 2020

@<TRIPOS>MOLECULE
6hts_4_ADP
   27    29     1     0     1
SMALL
NO_CHARGES


@<TRIPOS>ATOM
      1 PB        146.9880  182.2540  200.1180 P.3       1 ADP501      0.0000 
      2 O1B       146.5790  181.4810  198.8880 O.co2     1 ADP501      0.0000 
      3 O2B       147.9010  183.4250  199.8440 O.co2     1 ADP501      0.0000 
      4 O3B       147.4200  181.3910  201.2800 O.co2     1 ADP501      0.0000 
      5 PA        144.3700  182.0380  201.0890 P.3       1 ADP501      0.0000 
      6 O1A       143.8400  181.3000  199.8830 O.co2     1 ADP501      0.0000 
      7 O2A       144.7820  181.2710  202.3220 O.co2     1 ADP501      0.0000 
      8 O3A       145.6200  182.9390  200.6200 O.3       1 ADP501      0.0000 
      9 O5'       143.2810  183.1410  201.5240 O.3       1 ADP501      0.0000 
     10 C5'       142.2900  182.8220  202.4980 C.3       1 ADP501      0.0000 
     11 C4'       141.1400  183.8190  202.4220 C.3       1 ADP501      0.0000 
     12 O4'       141.6250  185.1640  202.4450 O.3       1 ADP501      0.0000 
     13 C3'       140.3450  183.6610  201.1350 C.3       1 ADP501      0.0000 
     14 O3'       139.0860  183.0410  201.4090 O.3       1 ADP501      0.0000 
     15 C2'       140.1320  185.0660  200.6090 C.3       1 ADP501      0.0000 
     16 O2'       138.7330  185.3590  200.5430 O.3       1 ADP501      0.0000 
     17 C1'       140.8130  185.9890  201.6060 C.3       1 ADP501      0.0000 
     18 N9        141.6440  186.9850  200.8850 N.pl3     1 ADP501      0.0000 
     19 C8        142.9630  186.8800  200.6370 C.2       1 ADP501      0.0000 
     20 N7        143.4210  187.9610  199.9560 N.2       1 ADP501      0.0000 
     21 C5        142.3770  188.7860  199.7580 C.ar      1 ADP501      0.0000 
     22 C6        142.1630  190.1010  199.1080 C.ar      1 ADP501      0.0000 
     23 N6        143.1850  190.7660  198.5180 N.pl3     1 ADP501      0.0000 
     24 N1        140.9130  190.6140  199.1240 N.ar      1 ADP501      0.0000 
     25 C2        139.8880  189.9630  199.7070 C.ar      1 ADP501      0.0000 
     26 N3        140.0110  188.7690  200.3130 N.ar      1 ADP501      0.0000 
     27 C4        141.2080  188.1390  200.3730 C.ar      1 ADP501      0.0000 
@<TRIPOS>BOND
     1    1    2 ar   
     2    1    3 ar   
     3    1    4 ar   
     4    1    8 1    
     5    5    6 ar   
     6    5    7 ar   
     7    5    8 1    
     8    5    9 1    
     9    9   10 1    
    10   10   11 1    
    11   11   12 1    
    12   11   13 1    
    13   12   17 1    
    14   13   14 1    
    15   13   15 1    
    16   15   16 1    
    17   15   17 1    
    18   17   18 1    
    19   18   19 1    
    20   18   27 1    
    21   19   20 2    
    22   20   21 1    
    23   21   22 ar   
    24   21   27 ar   
    25   22   23 1    
    26   22   24 ar   
    27   24   25 ar   
    28   25   26 ar   
    29   26   27 ar   
@<TRIPOS>SUBSTRUCTURE
     1 ADP501      1 GROUP   
@<TRIPOS>SET
ATOM$ORANGE STATIC     ATOMS   COLORGROUP SYSTEM 
20 10 10 11 11 13 13 15 15 17 17 19 19 21 21 22 22 25 \
25 27 27 

