#    Name: 6hts_6_ADP
#    Modification time : Fri May 22 19:29:08 2020

@<TRIPOS>MOLECULE
6hts_6_ADP
   27    29     1     0     1
SMALL
NO_CHARGES


@<TRIPOS>ATOM
      1 PB        148.4920  126.1120  210.7860 P.3       1 ADP501      0.0000 
      2 O1B       147.9130  126.7190  209.5300 O.co2     1 ADP501      0.0000 
      3 O2B       147.6790  126.3620  212.0330 O.co2     1 ADP501      0.0000 
      4 O3B       149.9760  126.3350  210.9580 O.co2     1 ADP501      0.0000 
      5 PA        149.1210  123.8040  209.3310 P.3       1 ADP501      0.0000 
      6 O1A       148.4880  124.2600  208.0390 O.co2     1 ADP501      0.0000 
      7 O2A       150.6060  123.9710  209.5460 O.co2     1 ADP501      0.0000 
      8 O3A       148.3550  124.5240  210.5510 O.3       1 ADP501      0.0000 
      9 O5'       148.7560  122.2510  209.5510 O.3       1 ADP501      0.0000 
     10 C5'       149.5960  121.2380  209.0010 C.3       1 ADP501      0.0000 
     11 C4'       148.8750  119.8950  208.9970 C.3       1 ADP501      0.0000 
     12 O4'       148.4910  119.5060  210.3190 O.3       1 ADP501      0.0000 
     13 C3'       147.6010  119.9390  208.1690 C.3       1 ADP501      0.0000 
     14 O3'       147.7970  119.2580  206.9270 O.3       1 ADP501      0.0000 
     15 C2'       146.5500  119.2220  208.9930 C.3       1 ADP501      0.0000 
     16 O2'       146.0590  118.0820  208.2820 O.3       1 ADP501      0.0000 
     17 C1'       147.2590  118.7830  210.2640 C.3       1 ADP501      0.0000 
     18 N9        146.4140  119.0860  211.4460 N.pl3     1 ADP501      0.0000 
     19 C8        146.4050  120.2420  212.1330 C.2       1 ADP501      0.0000 
     20 N7        145.5160  120.1950  213.1580 N.2       1 ADP501      0.0000 
     21 C5        144.9370  118.9810  213.1360 C.ar      1 ADP501      0.0000 
     22 C6        143.9130  118.2710  213.9380 C.ar      1 ADP501      0.0000 
     23 N6        143.3140  118.8680  214.9970 N.pl3     1 ADP501      0.0000 
     24 N1        143.5950  117.0080  213.5760 N.ar      1 ADP501      0.0000 
     25 C2        144.1820  116.4040  212.5260 C.ar      1 ADP501      0.0000 
     26 N3        145.1180  116.9880  211.7560 N.ar      1 ADP501      0.0000 
     27 C4        145.5320  118.2530  212.0050 C.ar      1 ADP501      0.0000 
@<TRIPOS>BOND
     1    1    2 ar   
     2    1    3 ar   
     3    1    4 ar   
     4    1    8 1    
     5    5    6 ar   
     6    5    7 ar   
     7    5    8 1    
     8    5    9 1    
     9    9   10 1    
    10   10   11 1    
    11   11   12 1    
    12   11   13 1    
    13   12   17 1    
    14   13   14 1    
    15   13   15 1    
    16   15   16 1    
    17   15   17 1    
    18   17   18 1    
    19   18   19 1    
    20   18   27 1    
    21   19   20 2    
    22   20   21 1    
    23   21   22 ar   
    24   21   27 ar   
    25   22   23 1    
    26   22   24 ar   
    27   24   25 ar   
    28   25   26 ar   
    29   26   27 ar   
@<TRIPOS>SUBSTRUCTURE
     1 ADP501      1 GROUP   
@<TRIPOS>SET
ATOM$ORANGE STATIC     ATOMS   COLORGROUP SYSTEM 
20 10 10 11 11 13 13 15 15 17 17 19 19 21 21 22 22 25 \
25 27 27 

