#    Name: 6hts_3_ADP
#    Modification time : Fri May 22 19:27:12 2020

@<TRIPOS>MOLECULE
6hts_3_ADP
   27    29     1     0     1
SMALL
NO_CHARGES


@<TRIPOS>ATOM
      1 PB        173.3990  178.5910  180.2050 P.3       1 ADP501      0.0000 
      2 O1B       172.7760  177.7600  179.1090 O.co2     1 ADP501      0.0000 
      3 O2B       174.9080  178.5470  180.2400 O.co2     1 ADP501      0.0000 
      4 O3B       172.7410  178.4350  181.5560 O.co2     1 ADP501      0.0000 
      5 PA        171.5460  180.6170  179.6540 P.3       1 ADP501      0.0000 
      6 O1A       170.8920  179.8750  178.5130 O.co2     1 ADP501      0.0000 
      7 O2A       170.9250  180.5850  181.0300 O.co2     1 ADP501      0.0000 
      8 O3A       173.0680  180.1080  179.7790 O.3       1 ADP501      0.0000 
      9 O5'       171.7270  182.1540  179.2130 O.3       1 ADP501      0.0000 
     10 C5'       170.7060  183.1060  179.5010 C.3       1 ADP501      0.0000 
     11 C4'       170.6680  184.1660  178.4080 C.3       1 ADP501      0.0000 
     12 O4'       171.9030  184.8840  178.3480 O.3       1 ADP501      0.0000 
     13 C3'       170.4520  183.5350  177.0420 C.3       1 ADP501      0.0000 
     14 O3'       169.1360  183.8320  176.5660 O.3       1 ADP501      0.0000 
     15 C2'       171.4890  184.1620  176.1320 C.3       1 ADP501      0.0000 
     16 O2'       170.8510  184.7990  175.0240 O.3       1 ADP501      0.0000 
     17 C1'       172.2170  185.1870  176.9870 C.3       1 ADP501      0.0000 
     18 N9        173.6770  185.0890  176.7470 N.pl3     1 ADP501      0.0000 
     19 C8        174.5030  184.1750  177.2880 C.2       1 ADP501      0.0000 
     20 N7        175.7790  184.3560  176.8620 N.2       1 ADP501      0.0000 
     21 C5        175.7800  185.4100  176.0260 C.ar      1 ADP501      0.0000 
     22 C6        176.7930  186.1370  175.2260 C.ar      1 ADP501      0.0000 
     23 N6        178.0940  185.7600  175.2370 N.pl3     1 ADP501      0.0000 
     24 N1        176.3740  187.1870  174.4870 N.ar      1 ADP501      0.0000 
     25 C2        175.0840  187.5700  174.4670 C.ar      1 ADP501      0.0000 
     26 N3        174.1130  186.9570  175.1670 N.ar      1 ADP501      0.0000 
     27 C4        174.3910  185.8890  175.9520 C.ar      1 ADP501      0.0000 
@<TRIPOS>BOND
     1    1    2 ar   
     2    1    3 ar   
     3    1    4 ar   
     4    1    8 1    
     5    5    6 ar   
     6    5    7 ar   
     7    5    8 1    
     8    5    9 1    
     9    9   10 1    
    10   10   11 1    
    11   11   12 1    
    12   11   13 1    
    13   12   17 1    
    14   13   14 1    
    15   13   15 1    
    16   15   16 1    
    17   15   17 1    
    18   17   18 1    
    19   18   19 1    
    20   18   27 1    
    21   19   20 2    
    22   20   21 1    
    23   21   22 ar   
    24   21   27 ar   
    25   22   23 1    
    26   22   24 ar   
    27   24   25 ar   
    28   25   26 ar   
    29   26   27 ar   
@<TRIPOS>SUBSTRUCTURE
     1 ADP501      1 GROUP   
@<TRIPOS>SET
ATOM$ORANGE STATIC     ATOMS   COLORGROUP SYSTEM 
20 10 10 11 11 13 13 15 15 17 17 19 19 21 21 22 22 25 \
25 27 27 

