#    Name: 6hts_5_ADP
#    Modification time : Fri May 22 19:28:28 2020

@<TRIPOS>MOLECULE
6hts_5_ADP
   27    29     1     0     1
SMALL
NO_CHARGES


@<TRIPOS>ATOM
      1 PB        133.9270  155.8130  214.4120 P.3       1 ADP501      0.0000 
      2 O1B       133.8710  155.9860  212.9140 O.co2     1 ADP501      0.0000 
      3 O2B       133.6070  157.0600  215.2010 O.co2     1 ADP501      0.0000 
      4 O3B       135.1410  155.0630  214.9060 O.co2     1 ADP501      0.0000 
      5 PA        132.6070  153.3760  214.0480 P.3       1 ADP501      0.0000 
      6 O1A       132.2860  153.5570  212.5840 O.co2     1 ADP501      0.0000 
      7 O2A       133.8340  152.6010  214.4600 O.co2     1 ADP501      0.0000 
      8 O3A       132.6910  154.8310  214.7320 O.3       1 ADP501      0.0000 
      9 O5'       131.3280  152.7120  214.7670 O.3       1 ADP501      0.0000 
     10 C5'       131.1800  151.2930  214.7770 C.3       1 ADP501      0.0000 
     11 C4'       129.7900  150.9040  215.2670 C.3       1 ADP501      0.0000 
     12 O4'       129.4910  151.5310  216.5170 O.3       1 ADP501      0.0000 
     13 C3'       128.7070  151.3330  214.2910 C.3       1 ADP501      0.0000 
     14 O3'       128.2140  150.1980  213.5730 O.3       1 ADP501      0.0000 
     15 C2'       127.6040  151.9320  215.1410 C.3       1 ADP501      0.0000 
     16 O2'       126.4060  151.1660  214.9950 O.3       1 ADP501      0.0000 
     17 C1'       128.1000  151.8570  216.5770 C.3       1 ADP501      0.0000 
     18 N9        127.8970  153.1660  217.2460 N.pl3     1 ADP501      0.0000 
     19 C8        128.8060  154.1550  217.3320 C.2       1 ADP501      0.0000 
     20 N7        128.3080  155.2220  218.0080 N.2       1 ADP501      0.0000 
     21 C5        127.0470  154.9180  218.3680 C.ar      1 ADP501      0.0000 
     22 C6        125.9540  155.5970  219.1040 C.ar      1 ADP501      0.0000 
     23 N6        126.1150  156.8470  219.6020 N.pl3     1 ADP501      0.0000 
     24 N1        124.7910  154.9260  219.2610 N.ar      1 ADP501      0.0000 
     25 C2        124.6190  153.6850  218.7710 C.ar      1 ADP501      0.0000 
     26 N3        125.5670  153.0110  218.0950 N.ar      1 ADP501      0.0000 
     27 C4        126.7820  153.5630  217.8640 C.ar      1 ADP501      0.0000 
@<TRIPOS>BOND
     1    1    2 ar   
     2    1    3 ar   
     3    1    4 ar   
     4    1    8 1    
     5    5    6 ar   
     6    5    7 ar   
     7    5    8 1    
     8    5    9 1    
     9    9   10 1    
    10   10   11 1    
    11   11   12 1    
    12   11   13 1    
    13   12   17 1    
    14   13   14 1    
    15   13   15 1    
    16   15   16 1    
    17   15   17 1    
    18   17   18 1    
    19   18   19 1    
    20   18   27 1    
    21   19   20 2    
    22   20   21 1    
    23   21   22 ar   
    24   21   27 ar   
    25   22   23 1    
    26   22   24 ar   
    27   24   25 ar   
    28   25   26 ar   
    29   26   27 ar   
@<TRIPOS>SUBSTRUCTURE
     1 ADP501      1 GROUP   
@<TRIPOS>SET
ATOM$ORANGE STATIC     ATOMS   COLORGROUP SYSTEM 
20 10 10 11 11 13 13 15 15 17 17 19 19 21 21 22 22 25 \
25 27 27 

