#    Name: 6hts_2_ADP
#    Modification time : Fri May 22 19:26:43 2020

@<TRIPOS>MOLECULE
6hts_2_ADP
   27    29     1     0     1
SMALL
NO_CHARGES


@<TRIPOS>ATOM
      1 PB        188.0390  149.8170  177.0700 P.3       1 ADP501      0.0000 
      2 O1B       187.4640  148.5520  176.4800 O.co2     1 ADP501      0.0000 
      3 O2B       189.1240  149.5850  178.0950 O.co2     1 ADP501      0.0000 
      4 O3B       187.0060  150.8400  177.4790 O.co2     1 ADP501      0.0000 
      5 PA        188.0280  150.8630  174.4740 P.3       1 ADP501      0.0000 
      6 O1A       187.6680  149.5690  173.7850 O.co2     1 ADP501      0.0000 
      7 O2A       186.9480  151.8700  174.7870 O.co2     1 ADP501      0.0000 
      8 O3A       188.8090  150.5090  175.8370 O.3       1 ADP501      0.0000 
      9 O5'       189.1610  151.5980  173.5960 O.3       1 ADP501      0.0000 
     10 C5'       188.8730  152.0240  172.2660 C.3       1 ADP501      0.0000 
     11 C4'       190.1030  152.6830  171.6530 C.3       1 ADP501      0.0000 
     12 O4'       191.2740  151.9060  171.9160 O.3       1 ADP501      0.0000 
     13 C3'       189.9710  152.8040  170.1430 C.3       1 ADP501      0.0000 
     14 O3'       189.8400  154.1790  169.7690 O.3       1 ADP501      0.0000 
     15 C2'       191.2490  152.2280  169.5670 C.3       1 ADP501      0.0000 
     16 O2'       191.9170  153.2110  168.7720 O.3       1 ADP501      0.0000 
     17 C1'       192.1110  151.8450  170.7590 C.3       1 ADP501      0.0000 
     18 N9        192.6270  150.4640  170.5940 N.pl3     1 ADP501      0.0000 
     19 C8        192.2230  149.3940  171.3010 C.2       1 ADP501      0.0000 
     20 N7        192.8860  148.2720  170.9220 N.2       1 ADP501      0.0000 
     21 C5        193.7420  148.6230  169.9470 C.ar      1 ADP501      0.0000 
     22 C6        194.7430  147.9250  169.1080 C.ar      1 ADP501      0.0000 
     23 N6        194.9590  146.5940  169.2440 N.pl3     1 ADP501      0.0000 
     24 N1        195.4290  148.6590  168.2050 N.ar      1 ADP501      0.0000 
     25 C2        195.2190  149.9810  168.0640 C.ar      1 ADP501      0.0000 
     26 N3        194.3290  150.6790  168.7920 N.ar      1 ADP501      0.0000 
     27 C4        193.5720  150.0690  169.7350 C.ar      1 ADP501      0.0000 
@<TRIPOS>BOND
     1    1    2 ar   
     2    1    3 ar   
     3    1    4 ar   
     4    1    8 1    
     5    5    6 ar   
     6    5    7 ar   
     7    5    8 1    
     8    5    9 1    
     9    9   10 1    
    10   10   11 1    
    11   11   12 1    
    12   11   13 1    
    13   12   17 1    
    14   13   14 1    
    15   13   15 1    
    16   15   16 1    
    17   15   17 1    
    18   17   18 1    
    19   18   19 1    
    20   18   27 1    
    21   19   20 2    
    22   20   21 1    
    23   21   22 ar   
    24   21   27 ar   
    25   22   23 1    
    26   22   24 ar   
    27   24   25 ar   
    28   25   26 ar   
    29   26   27 ar   
@<TRIPOS>SUBSTRUCTURE
     1 ADP501      1 GROUP   
@<TRIPOS>SET
ATOM$ORANGE STATIC     ATOMS   COLORGROUP SYSTEM 
20 10 10 11 11 13 13 15 15 17 17 19 19 21 21 22 22 25 \
25 27 27 

