#    Name: 5zax_2_TMP
#    Modification time : Fri May 22 19:34:00 2020

@<TRIPOS>MOLECULE
5zax_2_TMP
   21    22     1     0     0
SMALL
NO_CHARGES


@<TRIPOS>ATOM
      1 P          24.2680   82.4220   18.0990 P.3       1 TMP201      0.0000 
      2 O1P        24.4440   81.8060   16.7290 O.co2     1 TMP201      0.0000 
      3 O2P        23.5800   83.7750   18.1220 O.co2     1 TMP201      0.0000 
      4 O3P        25.4640   82.3260   19.0220 O.co2     1 TMP201      0.0000 
      5 O5'        23.2000   81.4310   18.7720 O.3       1 TMP201      0.0000 
      6 C5'        22.9930   81.5320   20.1710 C.3       1 TMP201      0.0000 
      7 C4'        21.6070   81.0180   20.4830 C.3       1 TMP201      0.0000 
      8 O4'        21.5850   79.5900   20.4330 O.3       1 TMP201      0.0000 
      9 C3'        21.1670   81.4440   21.8720 C.3       1 TMP201      0.0000 
     10 O3'        20.0030   82.2640   21.7630 O.3       1 TMP201      0.0000 
     11 C2'        20.8580   80.1600   22.6150 C.3       1 TMP201      0.0000 
     12 C1'        20.8610   79.0800   21.5550 C.3       1 TMP201      0.0000 
     13 N1         21.4430   77.8360   22.0710 N.am      1 TMP201      0.0000 
     14 C2         20.6430   76.9410   22.8350 C.2       1 TMP201      0.0000 
     15 O2         19.4540   77.2050   23.0750 O.2       1 TMP201      0.0000 
     16 N3         21.1460   75.7920   23.3010 N.am      1 TMP201      0.0000 
     17 C4         22.4120   75.4430   23.0780 C.2       1 TMP201      0.0000 
     18 O4         22.8490   74.3670   23.5240 O.2       1 TMP201      0.0000 
     19 C5         23.2840   76.3490   22.2930 C.2       1 TMP201      0.0000 
     20 C5M        24.7220   76.0010   22.0240 C.3       1 TMP201      0.0000 
     21 C6         22.7330   77.5350   21.8220 C.2       1 TMP201      0.0000 
@<TRIPOS>BOND
     1    1    2 ar   
     2    1    3 ar   
     3    1    4 ar   
     4    1    5 1    
     5    5    6 1    
     6    6    7 1    
     7    7    8 1    
     8    7    9 1    
     9    8   12 1    
    10    9   10 1    
    11    9   11 1    
    12   11   12 1    
    13   12   13 1    
    14   13   14 1    
    15   13   21 1    
    16   14   15 2    
    17   14   16 1    
    18   16   17 1    
    19   17   18 2    
    20   17   19 1    
    21   19   20 1    
    22   19   21 2    
@<TRIPOS>SUBSTRUCTURE
     1 TMP201      1 GROUP   
@<TRIPOS>SET

