#    Name: 5zax_2_TMP_CAVITY_N1_4
#    Modification time : Fri May 22 19:34:01 2020

@<TRIPOS>MOLECULE
5zax_2_TMP_CAVITY_N1_4
   85     0     6     0     0
SMALL
NO_CHARGES


@<TRIPOS>ATOM
      1 O          17.0900   77.9600   22.7200 O.2       1 ALA2        0.0000 
      2 O          18.2200   77.3900   21.9200 O.2       1 ALA2        0.0000 
      3 N          22.1300   75.5400   23.1500 N.am      1 ALA2        0.0000 
      4 N          21.0500   80.2600   15.4200 N.am      1 ALA2        0.0000 
      5 N          22.1800   79.6900   14.6200 N.am      1 ALA2        0.0000 
      6 OD1        21.9600   81.3300   15.9500 O.co2     2 ASP3        0.0000 
      7 OD1        21.7200   80.9000   21.5400 O.co2     2 ASP3        0.0000 
      8 OD1        22.0900   80.0100   22.6900 O.co2     2 ASP3        0.0000 
      9 OD1        22.4600   79.1300   23.8500 O.co2     2 ASP3        0.0000 
     10 OD1        22.8500   80.3200   20.7400 O.co2     2 ASP3        0.0000 
     11 OD1        23.2200   79.4400   21.8900 O.co2     2 ASP3        0.0000 
     12 OD1        22.8800   82.4000   16.4700 O.co2     2 ASP3        0.0000 
     13 OD1        23.2500   81.5100   17.6300 O.co2     2 ASP3        0.0000 
     14 OD1        21.5100   82.5400   22.8600 O.co2     2 ASP3        0.0000 
     15 OD1        22.6400   81.9600   22.0600 O.co2     2 ASP3        0.0000 
     16 OD1        23.7900   83.4700   17.0000 O.co2     2 ASP3        0.0000 
     17 OD1        24.1600   82.5800   18.1500 O.co2     2 ASP3        0.0000 
     18 OD1        24.5300   81.7000   19.3100 O.co2     2 ASP3        0.0000 
     19 OD1        24.9000   80.8100   20.4600 O.co2     2 ASP3        0.0000 
     20 NZ         16.9400   77.2000   20.2400 N.4       3 LYS4        0.0000 
     21 NZ         22.2700   82.8500   20.9100 N.4       3 LYS4        0.0000 
     22 NZ         23.0300   83.1600   18.9500 N.4       3 LYS4        0.0000 
     23 NZ         23.4000   82.2700   20.1100 N.4       3 LYS4        0.0000 
     24 NZ         25.0700   83.6500   18.6800 N.4       3 LYS4        0.0000 
     25 CZ         15.9600   78.5400   23.5200 C.ar      4 PHE5        0.0000 
     26 CZ         17.8500   78.2700   20.7600 C.ar      4 PHE5        0.0000 
     27 CZ         18.6100   78.5800   18.8100 C.ar      4 PHE5        0.0000 
     28 CZ         19.7400   78.0000   18.0100 C.ar      4 PHE5        0.0000 
     29 CZ         17.6300   79.9100   22.0900 C.ar      4 PHE5        0.0000 
     30 CZ         18.0000   79.0300   23.2400 C.ar      4 PHE5        0.0000 
     31 CZ         19.1300   78.4500   22.4400 C.ar      4 PHE5        0.0000 
     32 CZ         19.8900   78.7600   20.4900 C.ar      4 PHE5        0.0000 
     33 CZ         20.2600   77.8800   21.6400 C.ar      4 PHE5        0.0000 
     34 CZ         20.6300   76.9900   22.8000 C.ar      4 PHE5        0.0000 
     35 CZ         20.6600   79.0700   18.5300 C.ar      4 PHE5        0.0000 
     36 CZ         21.0200   78.1900   19.6900 C.ar      4 PHE5        0.0000 
     37 CZ         21.7600   76.4200   22.0000 C.ar      4 PHE5        0.0000 
     38 CZ         23.2600   74.9600   22.3500 C.ar      4 PHE5        0.0000 
     39 CZ         17.4200   81.5500   23.4200 C.ar      4 PHE5        0.0000 
     40 CZ         18.5500   80.9800   22.6200 C.ar      4 PHE5        0.0000 
     41 CZ         19.6800   80.4000   21.8100 C.ar      4 PHE5        0.0000 
     42 CZ         20.0500   79.5200   22.9700 C.ar      4 PHE5        0.0000 
     43 CZ         21.5500   78.0600   23.3200 C.ar      4 PHE5        0.0000 
     44 CZ         22.3100   78.3700   21.3700 C.ar      4 PHE5        0.0000 
     45 CZ         17.9600   83.5000   22.7900 C.ar      4 PHE5        0.0000 
     46 CZ         19.4600   82.0500   23.1400 C.ar      4 PHE5        0.0000 
     47 CZ         20.5900   81.4700   22.3400 C.ar      4 PHE5        0.0000 
     48 CZ         20.9600   80.5900   23.4900 C.ar      4 PHE5        0.0000 
     49 CA         21.4200   79.3800   16.5800 C.3       5 GLY6        0.0000 
     50 CA         21.7900   78.5000   17.7300 C.3       5 GLY6        0.0000 
     51 CA         22.5500   78.8100   15.7800 C.3       5 GLY6        0.0000 
     52 CA         21.9200   77.1800   24.4800 C.3       5 GLY6        0.0000 
     53 CA         21.9400   79.2500   20.2100 C.3       5 GLY6        0.0000 
     54 CA         22.6800   77.4900   22.5200 C.3       5 GLY6        0.0000 
     55 CA         23.0500   76.6000   23.6800 C.3       5 GLY6        0.0000 
     56 CA         22.3300   80.4500   17.1000 C.3       5 GLY6        0.0000 
     57 CA         22.7000   79.5600   18.2600 C.3       5 GLY6        0.0000 
     58 CA         23.8100   76.9100   21.7200 C.3       5 GLY6        0.0000 
     59 CA         24.1800   76.0300   22.8700 C.3       5 GLY6        0.0000 
     60 CA         23.4600   79.8700   16.3000 C.3       5 GLY6        0.0000 
     61 CA         23.5900   78.5500   23.0500 C.3       5 GLY6        0.0000 
     62 CA         23.6100   80.6300   18.7800 C.3       5 GLY6        0.0000 
     63 CA         21.1400   83.4200   21.7100 C.3       5 GLY6        0.0000 
     64 DU         16.7200   78.8400   21.5700 H         6 CUB7        0.0000 
     65 DU         17.4800   79.1500   19.6100 H         6 CUB7        0.0000 
     66 DU         16.1300   81.3700   21.7400 H         6 CUB7        0.0000 
     67 DU         17.2600   80.8000   20.9400 H         6 CUB7        0.0000 
     68 DU         18.3900   80.2200   20.1300 H         6 CUB7        0.0000 
     69 DU         18.7600   79.3400   21.2900 H         6 CUB7        0.0000 
     70 DU         19.1600   80.5300   18.1800 H         6 CUB7        0.0000 
     71 DU         19.5300   79.6500   19.3300 H         6 CUB7        0.0000 
     72 DU         20.2900   79.9500   17.3800 H         6 CUB7        0.0000 
     73 DU         18.1800   81.8600   21.4600 H         6 CUB7        0.0000 
     74 DU         19.3100   81.2900   20.6600 H         6 CUB7        0.0000 
     75 DU         20.8100   79.8300   21.0100 H         6 CUB7        0.0000 
     76 DU         21.1800   78.9500   22.1700 H         6 CUB7        0.0000 
     77 DU         20.8300   81.9100   16.7500 H         6 CUB7        0.0000 
     78 DU         21.2000   81.0200   17.9000 H         6 CUB7        0.0000 
     79 DU         21.5700   80.1400   19.0600 H         6 CUB7        0.0000 
     80 DU         20.2200   82.3500   21.1800 H         6 CUB7        0.0000 
     81 DU         20.9900   82.6600   19.2300 H         6 CUB7        0.0000 
     82 DU         21.3500   81.7800   20.3800 H         6 CUB7        0.0000 
     83 DU         21.7500   82.9700   17.2700 H         6 CUB7        0.0000 
     84 DU         22.1200   82.0900   18.4300 H         6 CUB7        0.0000 
     85 DU         22.4800   81.2100   19.5800 H         6 CUB7        0.0000 
@<TRIPOS>BOND
@<TRIPOS>SUBSTRUCTURE
     1 ALA2        1 GROUP   
     2 ASP3        6 GROUP   
     3 LYS4       20 GROUP   
     4 PHE5       25 GROUP   
     5 GLY6       49 GROUP   
     6 CUB7       64 GROUP   
@<TRIPOS>SET

