#    Name: 6qrj_1_ANP
#    Modification time : Fri May 22 19:26:13 2020

@<TRIPOS>MOLECULE
6qrj_1_ANP
   31    33     1     0     1
SMALL
NO_CHARGES


@<TRIPOS>ATOM
      1 PG          4.6000  -29.7190  -14.2780 P.3       1 ANP601      0.0000 
      2 O1G         3.6400  -29.9510  -13.1490 O.co2     1 ANP601      0.0000 
      3 O2G         4.6130  -28.2980  -14.7470 O.co2     1 ANP601      0.0000 
      4 O3G         4.0110  -30.2050  -15.6020 O.co2     1 ANP601      0.0000 
      5 PB          6.8510  -30.7550  -15.4730 P.3       1 ANP601      0.0000 
      6 O1B         6.2930  -30.3580  -16.8980 O.co2     1 ANP601      0.0000 
      7 O2B         8.3290  -30.9800  -15.2610 O.co2     1 ANP601      0.0000 
      8 N3B         6.1080  -30.1710  -14.1680 N.3       1 ANP601      0.0000 
      9 PA          5.6240  -33.2360  -16.3450 P.3       1 ANP601      0.0000 
     10 O1A         4.9890  -34.2630  -15.4680 O.co2     1 ANP601      0.0000 
     11 O2A         4.8740  -32.3980  -17.3560 O.co2     1 ANP601      0.0000 
     12 O3A         6.4160  -32.3040  -15.2680 O.3       1 ANP601      0.0000 
     13 O5'         6.8570  -33.8710  -17.0670 O.3       1 ANP601      0.0000 
     14 C5'         7.7110  -34.7910  -16.4090 C.3       1 ANP601      0.0000 
     15 C4'         9.0520  -34.6930  -17.0970 C.3       1 ANP601      0.0000 
     16 O4'         8.9960  -35.1380  -18.4840 O.3       1 ANP601      0.0000 
     17 C3'         9.5730  -33.2690  -17.2320 C.3       1 ANP601      0.0000 
     18 O3'        10.1450  -33.0090  -15.9580 O.3       1 ANP601      0.0000 
     19 C2'        10.6060  -33.4480  -18.3360 C.3       1 ANP601      0.0000 
     20 O2'        11.7030  -33.9260  -17.5920 O.3       1 ANP601      0.0000 
     21 C1'         9.9970  -34.5110  -19.2480 C.3       1 ANP601      0.0000 
     22 N9          9.3510  -34.0800  -20.4590 N.pl3     1 ANP601      0.0000 
     23 C8          8.0030  -33.9120  -20.6780 C.2       1 ANP601      0.0000 
     24 N7          7.7330  -33.5090  -21.9060 N.2       1 ANP601      0.0000 
     25 C5          8.9650  -33.4680  -22.5280 C.ar      1 ANP601      0.0000 
     26 C6          9.3430  -33.1670  -23.8390 C.ar      1 ANP601      0.0000 
     27 N6          8.4910  -32.8170  -24.8020 N.pl3     1 ANP601      0.0000 
     28 N1         10.6590  -33.2750  -24.1310 N.ar      1 ANP601      0.0000 
     29 C2         11.5250  -33.6310  -23.1750 C.ar      1 ANP601      0.0000 
     30 N3         11.2740  -33.9200  -21.9040 N.ar      1 ANP601      0.0000 
     31 C4          9.9620  -33.8300  -21.6510 C.ar      1 ANP601      0.0000 
@<TRIPOS>BOND
     1    1    2 ar   
     2    1    3 ar   
     3    1    4 ar   
     4    1    8 1    
     5    5    6 ar   
     6    5    7 ar   
     7    5    8 1    
     8    5   12 1    
     9    9   10 ar   
    10    9   11 ar   
    11    9   12 1    
    12    9   13 1    
    13   13   14 1    
    14   14   15 1    
    15   15   16 1    
    16   15   17 1    
    17   16   21 1    
    18   17   18 1    
    19   17   19 1    
    20   19   20 1    
    21   19   21 1    
    22   21   22 1    
    23   22   23 1    
    24   22   31 1    
    25   23   24 2    
    26   24   25 1    
    27   25   26 ar   
    28   25   31 ar   
    29   26   27 1    
    30   26   28 ar   
    31   28   29 ar   
    32   29   30 ar   
    33   30   31 ar   
@<TRIPOS>SUBSTRUCTURE
     1 ANP601      1 GROUP   
@<TRIPOS>SET
ATOM$ORANGE STATIC     ATOMS   COLORGROUP SYSTEM 
20 14 14 15 15 17 17 19 19 21 21 23 23 25 25 26 26 29 \
29 31 31 

