#    Name: 6p9c_1_4J6_CAVITY_N1_6
#    Modification time : Fri May 22 19:29:12 2020

@<TRIPOS>MOLECULE
6p9c_1_4J6_CAVITY_N1_6
   84     0     6     0     0
SMALL
NO_CHARGES


@<TRIPOS>ATOM
      1 OG         26.2500  -18.4000  -37.9200 O.3       1 SER1        0.0000 
      2 OG         25.7100  -18.6800  -35.3900 O.3       1 SER1        0.0000 
      3 OG         26.8900  -17.6300  -36.8000 O.3       1 SER1        0.0000 
      4 OG         30.7700  -17.0100  -39.4700 O.3       1 SER1        0.0000 
      5 OG         25.0100  -17.6900  -33.6500 O.3       1 SER1        0.0000 
      6 OG         26.3500  -17.9100  -34.2800 O.3       1 SER1        0.0000 
      7 OG         26.1900  -16.6400  -35.0600 O.3       1 SER1        0.0000 
      8 OG         25.8200  -18.1900  -31.7500 O.3       1 SER1        0.0000 
      9 OG         25.6500  -16.9200  -32.5400 O.3       1 SER1        0.0000 
     10 OG         26.6200  -18.6900  -29.8500 O.3       1 SER1        0.0000 
     11 OG         26.4600  -17.4200  -30.6400 O.3       1 SER1        0.0000 
     12 N          26.0900  -17.1300  -38.7000 N.am      2 ALA2        0.0000 
     13 N          27.4300  -17.3500  -39.3300 N.am      2 ALA2        0.0000 
     14 N          25.9300  -15.8600  -39.4900 N.am      2 ALA2        0.0000 
     15 N          27.2700  -16.0800  -40.1100 N.am      2 ALA2        0.0000 
     16 N          26.0300  -21.2200  -33.8200 N.am      2 ALA2        0.0000 
     17 N          28.2400  -17.8400  -37.4300 N.am      2 ALA2        0.0000 
     18 N          26.7300  -16.3600  -37.5900 N.am      2 ALA2        0.0000 
     19 N          28.0800  -16.5800  -38.2200 N.am      2 ALA2        0.0000 
     20 N          29.4200  -16.7900  -38.8400 N.am      2 ALA2        0.0000 
     21 N          25.4900  -21.5000  -31.3000 N.am      2 ALA2        0.0000 
     22 N          26.8400  -21.7100  -31.9300 N.am      2 ALA2        0.0000 
     23 N          26.3000  -22.0000  -29.4000 N.am      2 ALA2        0.0000 
     24 N          24.7900  -20.5100  -29.5600 N.am      2 ALA2        0.0000 
     25 N          26.1400  -20.7300  -30.1800 N.am      2 ALA2        0.0000 
     26 O          26.8400  -15.8700  -33.9500 O.2       2 ALA2        0.0000 
     27 N          25.4400  -19.7400  -28.4400 N.am      2 ALA2        0.0000 
     28 OD1        26.1400  -18.8800  -41.5600 O.co2     3 ASP3        0.0000 
     29 OD1        27.8000  -17.6400  -31.2700 O.co2     3 ASP3        0.0000 
     30 OD1        29.1500  -17.8500  -31.8900 O.co2     3 ASP3        0.0000 
     31 OD1        27.6400  -16.3700  -32.0500 O.co2     3 ASP3        0.0000 
     32 CZ         27.8100  -21.6400  -40.6200 C.ar      4 PHE5        0.0000 
     33 CZ         26.3000  -20.1500  -40.7700 C.ar      4 PHE5        0.0000 
     34 CZ         28.4500  -20.8700  -39.5000 C.ar      4 PHE5        0.0000 
     35 CZ         26.9500  -19.3800  -39.6600 C.ar      4 PHE5        0.0000 
     36 CZ         26.4100  -19.6700  -37.1300 C.ar      4 PHE5        0.0000 
     37 CZ         27.7500  -19.8800  -37.7600 C.ar      4 PHE5        0.0000 
     38 CZ         27.3800  -21.4300  -34.4500 C.ar      4 PHE5        0.0000 
     39 CZ         27.2100  -20.1600  -35.2400 C.ar      4 PHE5        0.0000 
     40 CZ         29.0400  -18.3400  -35.5300 C.ar      4 PHE5        0.0000 
     41 CZ         30.3900  -18.5600  -36.1600 C.ar      4 PHE5        0.0000 
     42 CZ         30.2300  -17.2900  -36.9500 C.ar      4 PHE5        0.0000 
     43 CZ         29.6900  -17.5700  -34.4200 C.ar      4 PHE5        0.0000 
     44 CZ         31.0300  -17.7900  -35.0500 C.ar      4 PHE5        0.0000 
     45 CA         25.6600  -20.9200  -41.8900 C.3       5 GLY6        0.0000 
     46 CA         24.8000  -18.6700  -40.9300 C.3       5 GLY6        0.0000 
     47 CA         25.6000  -19.1700  -39.0300 C.3       5 GLY6        0.0000 
     48 CA         25.4400  -17.9000  -39.8200 C.3       5 GLY6        0.0000 
     49 CA         26.6300  -16.8500  -41.2300 C.3       5 GLY6        0.0000 
     50 CA         27.9100  -21.1500  -36.9800 C.3       5 GLY6        0.0000 
     51 CA         29.1000  -20.1000  -38.3900 C.3       5 GLY6        0.0000 
     52 CA         27.5400  -22.7000  -33.6700 C.3       5 GLY6        0.0000 
     53 CA         28.7200  -21.6500  -35.0800 C.3       5 GLY6        0.0000 
     54 CA         25.8700  -19.9500  -34.6100 C.3       5 GLY6        0.0000 
     55 CA         28.5600  -20.3800  -35.8600 C.3       5 GLY6        0.0000 
     56 CA         28.1800  -21.9300  -32.5600 C.3       5 GLY6        0.0000 
     57 CA         25.3300  -20.2300  -32.0800 C.3       5 GLY6        0.0000 
     58 CA         26.6800  -20.4500  -32.7100 C.3       5 GLY6        0.0000 
     59 CA         26.5200  -19.1800  -33.4900 C.3       5 GLY6        0.0000 
     60 CA         27.5400  -16.8600  -35.6900 C.3       5 GLY6        0.0000 
     61 CA         28.8800  -17.0700  -36.3200 C.3       5 GLY6        0.0000 
     62 CA         29.8500  -18.8400  -33.6400 C.3       5 GLY6        0.0000 
     63 CA         28.3400  -17.3600  -33.7900 C.3       5 GLY6        0.0000 
     64 CA         30.4900  -18.0700  -32.5200 C.3       5 GLY6        0.0000 
     65 DU         27.6500  -20.3700  -41.4000 H         6 CUB7        0.0000 
     66 DU         26.7900  -18.1100  -40.4400 H         6 CUB7        0.0000 
     67 DU         27.5900  -18.6100  -38.5500 H         6 CUB7        0.0000 
     68 DU         28.9400  -18.8300  -39.1700 H         6 CUB7        0.0000 
     69 DU         27.0500  -18.9000  -36.0200 H         6 CUB7        0.0000 
     70 DU         28.4000  -19.1100  -36.6500 H         6 CUB7        0.0000 
     71 DU         29.7400  -19.3300  -37.2800 H         6 CUB7        0.0000 
     72 DU         29.5800  -18.0600  -38.0600 H         6 CUB7        0.0000 
     73 DU         28.0200  -20.6600  -33.3400 H         6 CUB7        0.0000 
     74 DU         27.8600  -19.3900  -34.1200 H         6 CUB7        0.0000 
     75 DU         29.2000  -19.6100  -34.7500 H         6 CUB7        0.0000 
     76 DU         27.7000  -18.1300  -34.9100 H         6 CUB7        0.0000 
     77 DU         27.4800  -20.9400  -30.8100 H         6 CUB7        0.0000 
     78 DU         28.8300  -21.1600  -31.4400 H         6 CUB7        0.0000 
     79 DU         27.3200  -19.6800  -31.6000 H         6 CUB7        0.0000 
     80 DU         27.1600  -18.4100  -32.3800 H         6 CUB7        0.0000 
     81 DU         28.5000  -18.6200  -33.0100 H         6 CUB7        0.0000 
     82 DU         27.0000  -17.1400  -33.1600 H         6 CUB7        0.0000 
     83 DU         26.7800  -19.9600  -29.0700 H         6 CUB7        0.0000 
     84 DU         27.9700  -18.9100  -30.4800 H         6 CUB7        0.0000 
@<TRIPOS>BOND
@<TRIPOS>SUBSTRUCTURE
     1 SER1        1 GROUP   
     2 ALA2       12 GROUP   
     3 ASP3       28 GROUP   
     4 PHE5       32 GROUP   
     5 GLY6       45 GROUP   
     6 CUB7       65 GROUP   
@<TRIPOS>SET

