#    Name: 6p9c_1_4J6
#    Modification time : Fri May 22 19:29:10 2020

@<TRIPOS>MOLECULE
6p9c_1_4J6
   27    28     1     0     0
SMALL
NO_CHARGES


@<TRIPOS>ATOM
      1 CAA        26.5050  -16.5260  -40.2360           1 4J6301      0.0000 
      2 CAB        28.7190  -18.5070  -36.8360           1 4J6301      0.0000 
      3 NAC        33.1910  -19.7160  -28.0610           1 4J6301      0.0000 
      4 OAD        25.1240  -15.4920  -36.4750           1 4J6301      0.0000 
      5 OAE        26.9600  -15.6960  -33.0200           1 4J6301      0.0000 
      6 OAF        32.1090  -18.0840  -29.5630           1 4J6301      0.0000 
      7 OAG        34.4210  -18.4310  -29.7880           1 4J6301      0.0000 
      8 OAH        25.0810  -16.7580  -32.6890           1 4J6301      0.0000 
      9 OAI        27.1710  -18.7500  -39.5350           1 4J6301      0.0000 
     10 CAJ        25.5300  -15.9120  -37.7860           1 4J6301      0.0000 
     11 CAK        29.4070  -21.1400  -32.7460           1 4J6301      0.0000 
     12 CAL        31.8470  -19.7050  -31.5810           1 4J6301      0.0000 
     13 CAM        31.0520  -19.7790  -33.9180           1 4J6301      0.0000 
     14 NAN        25.5780  -17.5220  -35.5540           1 4J6301      0.0000 
     15 NAO        30.7600  -21.6930  -32.5210           1 4J6301      0.0000 
     16 NAP        32.8690  -20.2030  -30.6410           1 4J6301      0.0000 
     17 SAQ        28.6030  -18.6560  -33.5200           1 4J6301      0.0000 
     18 CAR        26.1450  -16.6050  -33.3350           1 4J6301      0.0000 
     19 CAS        26.3990  -17.4840  -34.5010           1 4J6301      0.0000 
     20 CAT        26.2580  -17.6790  -39.2560           1 4J6301      0.0000 
     21 CAU        27.4170  -18.8410  -36.1000           1 4J6301      0.0000 
     22 CAV        31.7060  -20.5950  -32.8090           1 4J6301      0.0000 
     23 CAW        29.5610  -20.1080  -33.8600           1 4J6301      0.0000 
     24 CAX        26.4110  -17.1620  -37.8230           1 4J6301      0.0000 
     25 CAY        26.1510  -18.1930  -36.7040           1 4J6301      0.0000 
     26 CAZ        27.4430  -18.2990  -34.6900           1 4J6301      0.0000 
     27 SBA        33.1550  -19.0620  -29.5300           1 4J6301      0.0000 
@<TRIPOS>BOND
     1    1   20 du   
     2    2   21 du   
     3    3   27 du   
     4    4   10 du   
     5    5   18 du   
     6    6   27 du   
     7    7   27 du   
     8    8   18 du   
     9    9   20 du   
    10   10   24 du   
    11   11   15 du   
    12   11   23 du   
    13   12   16 du   
    14   12   22 du   
    15   13   22 du   
    16   13   23 du   
    17   14   19 du   
    18   14   25 du   
    19   15   22 du   
    20   16   27 du   
    21   17   23 du   
    22   17   26 du   
    23   18   19 du   
    24   19   26 du   
    25   20   24 du   
    26   21   25 du   
    27   21   26 du   
    28   24   25 du   
@<TRIPOS>SUBSTRUCTURE
     1 4J6301      1 GROUP   
@<TRIPOS>SET

