#    Name: 6g7x_9_IMD_CAVITY_N1_ALL
#    Modification time : Fri May 22 19:28:48 2020

@<TRIPOS>MOLECULE
6g7x_9_IMD_CAVITY_N1_ALL
   91     0     7     0     0
SMALL
NO_CHARGES


@<TRIPOS>ATOM
      1 OG         29.2700  -12.5100   10.5000 O.3       1 SER1        0.0000 
      2 OG         28.3300  -11.6000   11.2400 O.3       1 SER1        0.0000 
      3 OG         28.8500  -10.4300   10.4600 O.3       1 SER1        0.0000 
      4 OG         27.9100   -9.5200   11.1900 O.3       1 SER1        0.0000 
      5 OG         32.1900  -14.0900   10.0800 O.3       1 SER1        0.0000 
      6 OG         30.3100  -12.2800   11.5500 O.3       1 SER1        0.0000 
      7 OG         29.3700  -11.3700   12.2900 O.3       1 SER1        0.0000 
      8 OG         29.8900  -10.2000   11.5100 O.3       1 SER1        0.0000 
      9 OG         32.8200  -11.7800   11.0800 O.3       1 SER1        0.0000 
     10 OG         31.8800  -10.8700   11.8200 O.3       1 SER1        0.0000 
     11 OG         29.4800  -10.2300   14.0700 O.3       1 SER1        0.0000 
     12 O          23.7300  -12.5600    9.6100 O.2       2 ALA2        0.0000 
     13 O          25.7100  -13.2400    9.9200 O.2       2 ALA2        0.0000 
     14 O          24.7700  -12.3300   10.6600 O.2       2 ALA2        0.0000 
     15 N          25.2900  -11.1600    9.8800 N.am      2 ALA2        0.0000 
     16 N          23.3100  -12.5900   12.1700 N.am      2 ALA2        0.0000 
     17 N          24.3500  -10.2500   10.6100 N.am      2 ALA2        0.0000 
     18 N          22.8900  -10.5100   12.1300 N.am      2 ALA2        0.0000 
     19 N          28.2200  -12.7400    9.4500 N.am      2 ALA2        0.0000 
     20 O          26.7600  -13.0000   10.9700 O.2       2 ALA2        0.0000 
     21 O          27.2800  -11.8300   10.1900 O.2       2 ALA2        0.0000 
     22 N          26.8600   -9.7500   10.1500 N.am      2 ALA2        0.0000 
     23 N          28.4300   -8.3500   10.4100 N.am      2 ALA2        0.0000 
     24 OD1        28.9500   -9.2900   12.2400 O.co2     3 ASP3        0.0000 
     25 OD1        29.4700   -8.1200   11.4600 O.co2     3 ASP3        0.0000 
     26 OD1        28.0100   -8.3800   12.9800 O.co2     3 ASP3        0.0000 
     27 OD1        28.5300   -7.2100   12.2000 O.co2     3 ASP3        0.0000 
     28 OD1        33.7600  -12.6900   10.3500 O.co2     3 ASP3        0.0000 
     29 OD1        30.4200  -11.1300   13.3400 O.co2     3 ASP3        0.0000 
     30 OD1        30.9400   -9.9600   12.5600 O.co2     3 ASP3        0.0000 
     31 OD1        29.0600   -8.1500   14.0300 O.co2     3 ASP3        0.0000 
     32 OD1        35.2300  -14.5300   11.4400 O.co2     3 ASP3        0.0000 
     33 OD1        35.7500  -13.3600   10.6600 O.co2     3 ASP3        0.0000 
     34 OD1        34.8100  -12.4500   11.4000 O.co2     3 ASP3        0.0000 
     35 OD1        33.8700  -11.5500   12.1300 O.co2     3 ASP3        0.0000 
     36 OD1        32.9300  -10.6400   12.8700 O.co2     3 ASP3        0.0000 
     37 OD1        31.4700  -10.9000   14.3800 O.co2     3 ASP3        0.0000 
     38 OD1        34.9100  -11.3100   13.1800 O.co2     3 ASP3        0.0000 
     39 NZ         27.1800  -15.0800   11.0100 N.4       4 LYS4        0.0000 
     40 NZ         27.7000  -13.9100   10.2300 N.4       4 LYS4        0.0000 
     41 NZ         28.6400  -16.9300   12.1100 N.4       4 LYS4        0.0000 
     42 NZ         27.7000  -16.0200   12.8400 N.4       4 LYS4        0.0000 
     43 NZ         28.2300  -14.8500   12.0600 N.4       4 LYS4        0.0000 
     44 NZ         28.7500  -13.6800   11.2800 N.4       4 LYS4        0.0000 
     45 NZ         31.2500  -13.1800   10.8100 N.4       4 LYS4        0.0000 
     46 NZ         29.2700  -14.6200   13.1100 N.4       4 LYS4        0.0000 
     47 NZ         29.7900  -13.4500   12.3300 N.4       4 LYS4        0.0000 
     48 NZ         27.5900   -6.3000   12.9400 N.4       4 LYS4        0.0000 
     49 NZ         33.2400  -13.8600   11.1300 N.4       4 LYS4        0.0000 
     50 CZ         25.3000  -13.2700   12.4900 C.ar      5 PHE5        0.0000 
     51 CZ         25.8200  -12.1000   11.7100 C.ar      5 PHE5        0.0000 
     52 CZ         26.3400  -10.9300   10.9300 C.ar      5 PHE5        0.0000 
     53 CZ         24.8800  -11.1900   12.4400 C.ar      5 PHE5        0.0000 
     54 CZ         25.4000  -10.0200   11.6600 C.ar      5 PHE5        0.0000 
     55 CZ         27.2900  -13.9400   12.8000 C.ar      5 PHE5        0.0000 
     56 CZ         27.8100  -12.7700   12.0200 C.ar      5 PHE5        0.0000 
     57 CZ         27.3900  -10.6900   11.9700 C.ar      5 PHE5        0.0000 
     58 CZ         26.4500   -9.7800   12.7100 C.ar      5 PHE5        0.0000 
     59 CZ         25.5100   -8.8800   13.4500 C.ar      5 PHE5        0.0000 
     60 CZ         28.3300  -13.7100   13.8500 C.ar      5 PHE5        0.0000 
     61 CZ         28.8500  -12.5400   13.0700 C.ar      5 PHE5        0.0000 
     62 CZ         28.4300  -10.4600   13.0200 C.ar      5 PHE5        0.0000 
     63 CZ         27.4900   -9.5500   13.7600 C.ar      5 PHE5        0.0000 
     64 CZ         26.5500   -8.6400   14.5000 C.ar      5 PHE5        0.0000 
     65 CZ         28.9600  -11.4000   14.8500 C.ar      5 PHE5        0.0000 
     66 CA         22.7900  -11.6500   10.3500 C.3       6 GLY6        0.0000 
     67 CA         25.1900  -14.4100   10.7000 C.3       6 GLY6        0.0000 
     68 CA         24.2500  -13.5000   11.4400 C.3       6 GLY6        0.0000 
     69 CA         26.6600  -16.2500   11.7900 C.3       6 GLY6        0.0000 
     70 CA         26.2400  -14.1800   11.7500 C.3       6 GLY6        0.0000 
     71 CA         27.8000  -10.6600    9.4100 C.3       6 GLY6        0.0000 
     72 CA         25.9200   -8.8500   10.8800 C.3       6 GLY6        0.0000 
     73 CA         24.4600   -9.1100   12.4000 C.3       6 GLY6        0.0000 
     74 CA         24.9800   -7.9400   11.6200 C.3       6 GLY6        0.0000 
     75 CA         26.0300   -7.7100   12.6700 C.3       6 GLY6        0.0000 
     76 CA         27.0700   -7.4700   13.7200 C.3       6 GLY6        0.0000 
     77 CA         34.1800  -14.7700   10.3900 C.3       6 GLY6        0.0000 
     78 CA         34.7000  -13.6000    9.6100 C.3       6 GLY6        0.0000 
     79 CA         30.3200  -14.3800   14.1600 C.3       6 GLY6        0.0000 
     80 CA         30.8400  -13.2100   13.3800 C.3       6 GLY6        0.0000 
     81 CA         29.9000  -12.3000   14.1200 C.3       6 GLY6        0.0000 
     82 CA         31.8900  -12.9800   14.4300 C.3       6 GLY6        0.0000 
     83 CA         30.9500  -12.0700   15.1600 C.3       6 GLY6        0.0000 
     84 DU         23.8300  -11.4200   11.3900 H         7 CUB7        0.0000 
     85 DU         26.9700   -8.6100   11.9300 H         7 CUB7        0.0000 
     86 DU         32.3000  -12.9500   11.8600 H         7 CUB7        0.0000 
     87 DU         31.3600  -12.0400   12.6000 H         7 CUB7        0.0000 
     88 DU         34.2900  -13.6200   12.1800 H         7 CUB7        0.0000 
     89 DU         33.3500  -12.7200   12.9100 H         7 CUB7        0.0000 
     90 DU         32.4100  -11.8100   13.6500 H         7 CUB7        0.0000 
     91 DU         34.3900  -12.4800   13.9600 H         7 CUB7        0.0000 
@<TRIPOS>BOND
@<TRIPOS>SUBSTRUCTURE
     1 SER1        1 GROUP   
     2 ALA2       12 GROUP   
     3 ASP3       24 GROUP   
     4 LYS4       39 GROUP   
     5 PHE5       50 GROUP   
     6 GLY6       66 GROUP   
     7 CUB7       84 GROUP   
@<TRIPOS>SET

