#    Name: 6g7x_9_IMD_CAVITY_N1_4
#    Modification time : Fri May 22 19:28:48 2020

@<TRIPOS>MOLECULE
6g7x_9_IMD_CAVITY_N1_4
   35     0     7     0     0
SMALL
NO_CHARGES


@<TRIPOS>ATOM
      1 OG         28.3300  -11.6000   11.2400 O.3       1 SER1        0.0000 
      2 OG         28.8500  -10.4300   10.4600 O.3       1 SER1        0.0000 
      3 OG         27.9100   -9.5200   11.1900 O.3       1 SER1        0.0000 
      4 OG         29.3700  -11.3700   12.2900 O.3       1 SER1        0.0000 
      5 OG         29.8900  -10.2000   11.5100 O.3       1 SER1        0.0000 
      6 OG         29.4800  -10.2300   14.0700 O.3       1 SER1        0.0000 
      7 N          26.8600   -9.7500   10.1500 N.am      2 ALA2        0.0000 
      8 N          28.4300   -8.3500   10.4100 N.am      2 ALA2        0.0000 
      9 OD1        28.9500   -9.2900   12.2400 O.co2     3 ASP3        0.0000 
     10 OD1        29.4700   -8.1200   11.4600 O.co2     3 ASP3        0.0000 
     11 OD1        28.0100   -8.3800   12.9800 O.co2     3 ASP3        0.0000 
     12 OD1        28.5300   -7.2100   12.2000 O.co2     3 ASP3        0.0000 
     13 OD1        30.4200  -11.1300   13.3400 O.co2     3 ASP3        0.0000 
     14 OD1        30.9400   -9.9600   12.5600 O.co2     3 ASP3        0.0000 
     15 OD1        29.0600   -8.1500   14.0300 O.co2     3 ASP3        0.0000 
     16 OD1        31.4700  -10.9000   14.3800 O.co2     3 ASP3        0.0000 
     17 NZ         27.5900   -6.3000   12.9400 N.4       4 LYS4        0.0000 
     18 CZ         26.3400  -10.9300   10.9300 C.ar      5 PHE5        0.0000 
     19 CZ         25.4000  -10.0200   11.6600 C.ar      5 PHE5        0.0000 
     20 CZ         27.3900  -10.6900   11.9700 C.ar      5 PHE5        0.0000 
     21 CZ         26.4500   -9.7800   12.7100 C.ar      5 PHE5        0.0000 
     22 CZ         25.5100   -8.8800   13.4500 C.ar      5 PHE5        0.0000 
     23 CZ         28.8500  -12.5400   13.0700 C.ar      5 PHE5        0.0000 
     24 CZ         28.4300  -10.4600   13.0200 C.ar      5 PHE5        0.0000 
     25 CZ         27.4900   -9.5500   13.7600 C.ar      5 PHE5        0.0000 
     26 CZ         26.5500   -8.6400   14.5000 C.ar      5 PHE5        0.0000 
     27 CZ         28.9600  -11.4000   14.8500 C.ar      5 PHE5        0.0000 
     28 CA         27.8000  -10.6600    9.4100 C.3       6 GLY6        0.0000 
     29 CA         25.9200   -8.8500   10.8800 C.3       6 GLY6        0.0000 
     30 CA         24.4600   -9.1100   12.4000 C.3       6 GLY6        0.0000 
     31 CA         24.9800   -7.9400   11.6200 C.3       6 GLY6        0.0000 
     32 CA         26.0300   -7.7100   12.6700 C.3       6 GLY6        0.0000 
     33 CA         27.0700   -7.4700   13.7200 C.3       6 GLY6        0.0000 
     34 CA         29.9000  -12.3000   14.1200 C.3       6 GLY6        0.0000 
     35 DU         26.9700   -8.6100   11.9300 H         7 CUB7        0.0000 
@<TRIPOS>BOND
@<TRIPOS>SUBSTRUCTURE
     1 SER1        1 GROUP   
     2 ALA2        7 GROUP   
     3 ASP3        9 GROUP   
     4 LYS4       17 GROUP   
     5 PHE5       18 GROUP   
     6 GLY6       28 GROUP   
     7 CUB7       35 GROUP   
@<TRIPOS>SET

