#    Name: 6g7x_4_IMD_CAVITY_N1_6
#    Modification time : Fri May 22 19:28:42 2020

@<TRIPOS>MOLECULE
6g7x_4_IMD_CAVITY_N1_6
   64     0     7     0     0
SMALL
NO_CHARGES


@<TRIPOS>ATOM
      1 OG        -12.2800  -11.6300   38.9100 O.3       1 SER1        0.0000 
      2 OG         -9.3500  -13.2200   38.4800 O.3       1 SER1        0.0000 
      3 OG        -10.2900  -12.3100   39.2200 O.3       1 SER1        0.0000 
      4 OG         -9.7700  -11.1400   38.4400 O.3       1 SER1        0.0000 
      5 OG         -9.2500   -9.9700   37.6600 O.3       1 SER1        0.0000 
      6 OG        -11.2300  -11.4000   39.9600 O.3       1 SER1        0.0000 
      7 OG        -10.1900   -9.0600   38.4000 O.3       1 SER1        0.0000 
      8 OG        -12.1700  -10.4900   40.6900 O.3       1 SER1        0.0000 
      9 N         -14.7800  -12.1300   39.3800 N.am      2 ALA2        0.0000 
     10 N          -7.9000  -10.8500   34.3600 N.am      2 ALA2        0.0000 
     11 O          -7.8900  -12.9600   36.9700 O.2       2 ALA2        0.0000 
     12 O          -7.3700  -11.7800   36.1900 O.2       2 ALA2        0.0000 
     13 N          -7.7900   -9.7100   36.1400 N.am      2 ALA2        0.0000 
     14 N          -8.7300   -8.8000   36.8800 N.am      2 ALA2        0.0000 
     15 OD1       -14.2600  -10.9600   38.6000 O.co2     3 ASP3        0.0000 
     16 OD1       -11.7600  -10.4600   38.1300 O.co2     3 ASP3        0.0000 
     17 OD1       -11.2400   -9.2900   37.3500 O.co2     3 ASP3        0.0000 
     18 OD1       -10.7200   -8.1200   36.5700 O.co2     3 ASP3        0.0000 
     19 OD1       -13.2200  -10.7300   39.6500 O.co2     3 ASP3        0.0000 
     20 OD1       -11.6600   -7.2100   37.3100 O.co2     3 ASP3        0.0000 
     21 OD1       -14.1600   -9.8200   40.3800 O.co2     3 ASP3        0.0000 
     22 OD1       -12.6900  -11.6600   41.4700 O.co2     3 ASP3        0.0000 
     23 OD1       -13.1100   -9.5900   41.4300 O.co2     3 ASP3        0.0000 
     24 NZ        -10.9200  -14.6200   38.2200 N.4       4 LYS4        0.0000 
     25 NZ        -11.8600  -13.7100   38.9500 N.4       4 LYS4        0.0000 
     26 NZ        -10.8100  -13.4800   40.0000 N.4       4 LYS4        0.0000 
     27 CZ        -13.4300  -13.0100   36.0800 C.ar      5 PHE5        0.0000 
     28 CZ        -10.5000  -14.5900   35.6500 C.ar      5 PHE5        0.0000 
     29 CZ         -9.9800  -13.4200   34.8700 C.ar      5 PHE5        0.0000 
     30 CZ         -9.4600  -12.2500   34.0900 C.ar      5 PHE5        0.0000 
     31 CZ         -8.9400  -11.0800   33.3100 C.ar      5 PHE5        0.0000 
     32 CZ        -11.4400  -13.6800   36.3900 C.ar      5 PHE5        0.0000 
     33 CZ        -12.3800  -12.7800   37.1200 C.ar      5 PHE5        0.0000 
     34 CZ        -11.8600  -11.6100   36.3400 C.ar      5 PHE5        0.0000 
     35 CZ        -10.8200   -9.2600   34.7800 C.ar      5 PHE5        0.0000 
     36 CZ        -12.8000  -10.7000   37.0800 C.ar      5 PHE5        0.0000 
     37 CZ        -12.2800   -9.5300   36.3000 C.ar      5 PHE5        0.0000 
     38 CZ        -11.7600   -8.3600   35.5200 C.ar      5 PHE5        0.0000 
     39 CZ         -8.9400  -13.1900   35.9200 C.ar      5 PHE5        0.0000 
     40 CZ         -8.4200  -12.0200   35.1400 C.ar      5 PHE5        0.0000 
     41 CZ         -9.8800  -12.2800   36.6600 C.ar      5 PHE5        0.0000 
     42 CZ         -9.3600  -11.1100   35.8800 C.ar      5 PHE5        0.0000 
     43 CZ         -8.8400   -9.9400   35.1000 C.ar      5 PHE5        0.0000 
     44 CZ        -10.8200  -11.3700   37.3900 C.ar      5 PHE5        0.0000 
     45 CZ        -10.3000  -10.2000   36.6100 C.ar      5 PHE5        0.0000 
     46 CA         -8.4200   -9.9100   32.5300 C.3       6 GLY6        0.0000 
     47 CA         -9.3600   -9.0000   33.2700 C.3       6 GLY6        0.0000 
     48 CA        -12.9000  -13.9500   37.9000 C.3       6 GLY6        0.0000 
     49 CA        -13.8400  -13.0400   38.6400 C.3       6 GLY6        0.0000 
     50 CA        -13.3200  -11.8700   37.8600 C.3       6 GLY6        0.0000 
     51 CA        -11.2400   -7.1800   34.7400 C.3       6 GLY6        0.0000 
     52 CA         -7.3800   -9.6800   33.5800 C.3       6 GLY6        0.0000 
     53 CA         -8.3200   -8.7700   34.3200 C.3       6 GLY6        0.0000 
     54 CA         -9.2600   -7.8600   35.0500 C.3       6 GLY6        0.0000 
     55 CA         -8.8300  -12.0500   37.7000 C.3       6 GLY6        0.0000 
     56 CA         -8.3100  -10.8800   36.9200 C.3       6 GLY6        0.0000 
     57 DU        -11.9600  -14.8600   37.1700 H         7 CUB7        0.0000 
     58 DU         -9.4600  -14.3600   36.7000 H         7 CUB7        0.0000 
     59 DU        -10.4000  -13.4500   37.4400 H         7 CUB7        0.0000 
     60 DU        -11.3400  -12.5400   38.1700 H         7 CUB7        0.0000 
     61 DU         -9.7800   -9.0300   35.8300 H         7 CUB7        0.0000 
     62 DU        -12.8000  -12.8100   39.6900 H         7 CUB7        0.0000 
     63 DU        -13.7400  -11.9000   40.4300 H         7 CUB7        0.0000 
     64 DU        -14.6800  -10.9900   41.1600 H         7 CUB7        0.0000 
@<TRIPOS>BOND
@<TRIPOS>SUBSTRUCTURE
     1 SER1        1 GROUP   
     2 ALA2        9 GROUP   
     3 ASP3       15 GROUP   
     4 LYS4       24 GROUP   
     5 PHE5       27 GROUP   
     6 GLY6       46 GROUP   
     7 CUB7       57 GROUP   
@<TRIPOS>SET

