#    Name: 6g7x_9_IMD_CAVITY_N1_6
#    Modification time : Fri May 22 19:28:48 2020

@<TRIPOS>MOLECULE
6g7x_9_IMD_CAVITY_N1_6
   67     0     7     0     0
SMALL
NO_CHARGES


@<TRIPOS>ATOM
      1 OG         29.2700  -12.5100   10.5000 O.3       1 SER1        0.0000 
      2 OG         28.3300  -11.6000   11.2400 O.3       1 SER1        0.0000 
      3 OG         28.8500  -10.4300   10.4600 O.3       1 SER1        0.0000 
      4 OG         27.9100   -9.5200   11.1900 O.3       1 SER1        0.0000 
      5 OG         30.3100  -12.2800   11.5500 O.3       1 SER1        0.0000 
      6 OG         29.3700  -11.3700   12.2900 O.3       1 SER1        0.0000 
      7 OG         29.8900  -10.2000   11.5100 O.3       1 SER1        0.0000 
      8 OG         32.8200  -11.7800   11.0800 O.3       1 SER1        0.0000 
      9 OG         31.8800  -10.8700   11.8200 O.3       1 SER1        0.0000 
     10 OG         29.4800  -10.2300   14.0700 O.3       1 SER1        0.0000 
     11 O          24.7700  -12.3300   10.6600 O.2       2 ALA2        0.0000 
     12 N          25.2900  -11.1600    9.8800 N.am      2 ALA2        0.0000 
     13 N          24.3500  -10.2500   10.6100 N.am      2 ALA2        0.0000 
     14 N          22.8900  -10.5100   12.1300 N.am      2 ALA2        0.0000 
     15 N          28.2200  -12.7400    9.4500 N.am      2 ALA2        0.0000 
     16 O          26.7600  -13.0000   10.9700 O.2       2 ALA2        0.0000 
     17 O          27.2800  -11.8300   10.1900 O.2       2 ALA2        0.0000 
     18 N          26.8600   -9.7500   10.1500 N.am      2 ALA2        0.0000 
     19 N          28.4300   -8.3500   10.4100 N.am      2 ALA2        0.0000 
     20 OD1        28.9500   -9.2900   12.2400 O.co2     3 ASP3        0.0000 
     21 OD1        29.4700   -8.1200   11.4600 O.co2     3 ASP3        0.0000 
     22 OD1        28.0100   -8.3800   12.9800 O.co2     3 ASP3        0.0000 
     23 OD1        28.5300   -7.2100   12.2000 O.co2     3 ASP3        0.0000 
     24 OD1        30.4200  -11.1300   13.3400 O.co2     3 ASP3        0.0000 
     25 OD1        30.9400   -9.9600   12.5600 O.co2     3 ASP3        0.0000 
     26 OD1        29.0600   -8.1500   14.0300 O.co2     3 ASP3        0.0000 
     27 OD1        33.8700  -11.5500   12.1300 O.co2     3 ASP3        0.0000 
     28 OD1        32.9300  -10.6400   12.8700 O.co2     3 ASP3        0.0000 
     29 OD1        31.4700  -10.9000   14.3800 O.co2     3 ASP3        0.0000 
     30 NZ         28.7500  -13.6800   11.2800 N.4       4 LYS4        0.0000 
     31 NZ         31.2500  -13.1800   10.8100 N.4       4 LYS4        0.0000 
     32 NZ         29.2700  -14.6200   13.1100 N.4       4 LYS4        0.0000 
     33 NZ         29.7900  -13.4500   12.3300 N.4       4 LYS4        0.0000 
     34 NZ         27.5900   -6.3000   12.9400 N.4       4 LYS4        0.0000 
     35 CZ         25.3000  -13.2700   12.4900 C.ar      5 PHE5        0.0000 
     36 CZ         25.8200  -12.1000   11.7100 C.ar      5 PHE5        0.0000 
     37 CZ         26.3400  -10.9300   10.9300 C.ar      5 PHE5        0.0000 
     38 CZ         24.8800  -11.1900   12.4400 C.ar      5 PHE5        0.0000 
     39 CZ         25.4000  -10.0200   11.6600 C.ar      5 PHE5        0.0000 
     40 CZ         27.2900  -13.9400   12.8000 C.ar      5 PHE5        0.0000 
     41 CZ         27.8100  -12.7700   12.0200 C.ar      5 PHE5        0.0000 
     42 CZ         27.3900  -10.6900   11.9700 C.ar      5 PHE5        0.0000 
     43 CZ         26.4500   -9.7800   12.7100 C.ar      5 PHE5        0.0000 
     44 CZ         25.5100   -8.8800   13.4500 C.ar      5 PHE5        0.0000 
     45 CZ         28.3300  -13.7100   13.8500 C.ar      5 PHE5        0.0000 
     46 CZ         28.8500  -12.5400   13.0700 C.ar      5 PHE5        0.0000 
     47 CZ         28.4300  -10.4600   13.0200 C.ar      5 PHE5        0.0000 
     48 CZ         27.4900   -9.5500   13.7600 C.ar      5 PHE5        0.0000 
     49 CZ         26.5500   -8.6400   14.5000 C.ar      5 PHE5        0.0000 
     50 CZ         28.9600  -11.4000   14.8500 C.ar      5 PHE5        0.0000 
     51 CA         27.8000  -10.6600    9.4100 C.3       6 GLY6        0.0000 
     52 CA         25.9200   -8.8500   10.8800 C.3       6 GLY6        0.0000 
     53 CA         24.4600   -9.1100   12.4000 C.3       6 GLY6        0.0000 
     54 CA         24.9800   -7.9400   11.6200 C.3       6 GLY6        0.0000 
     55 CA         26.0300   -7.7100   12.6700 C.3       6 GLY6        0.0000 
     56 CA         27.0700   -7.4700   13.7200 C.3       6 GLY6        0.0000 
     57 CA         30.3200  -14.3800   14.1600 C.3       6 GLY6        0.0000 
     58 CA         30.8400  -13.2100   13.3800 C.3       6 GLY6        0.0000 
     59 CA         29.9000  -12.3000   14.1200 C.3       6 GLY6        0.0000 
     60 CA         31.8900  -12.9800   14.4300 C.3       6 GLY6        0.0000 
     61 CA         30.9500  -12.0700   15.1600 C.3       6 GLY6        0.0000 
     62 DU         23.8300  -11.4200   11.3900 H         7 CUB7        0.0000 
     63 DU         26.9700   -8.6100   11.9300 H         7 CUB7        0.0000 
     64 DU         32.3000  -12.9500   11.8600 H         7 CUB7        0.0000 
     65 DU         31.3600  -12.0400   12.6000 H         7 CUB7        0.0000 
     66 DU         33.3500  -12.7200   12.9100 H         7 CUB7        0.0000 
     67 DU         32.4100  -11.8100   13.6500 H         7 CUB7        0.0000 
@<TRIPOS>BOND
@<TRIPOS>SUBSTRUCTURE
     1 SER1        1 GROUP   
     2 ALA2       11 GROUP   
     3 ASP3       20 GROUP   
     4 LYS4       30 GROUP   
     5 PHE5       35 GROUP   
     6 GLY6       51 GROUP   
     7 CUB7       62 GROUP   
@<TRIPOS>SET

