#    Name: 6g7x_14_IMD_CAVITY_N1_6
#    Modification time : Fri May 22 19:28:54 2020

@<TRIPOS>MOLECULE
6g7x_14_IMD_CAVITY_N1_6
   50     0     7     0     0
SMALL
NO_CHARGES


@<TRIPOS>ATOM
      1 OG         -0.7900   10.0900  -16.0100 O.3       1 SER1        0.0000 
      2 OG         -0.2700   11.2600  -16.7900 O.3       1 SER1        0.0000 
      3 OG          0.2500   12.4300  -17.5700 O.3       1 SER1        0.0000 
      4 OG         -1.2100   12.1700  -16.0600 O.3       1 SER1        0.0000 
      5 OG         -0.2700    9.1500  -14.1800 O.3       1 SER1        0.0000 
      6 OG         -0.6900   11.2300  -14.2300 O.3       1 SER1        0.0000 
      7 OG         -0.1700   12.4000  -15.0100 O.3       1 SER1        0.0000 
      8 OG          0.7800    9.3900  -13.1400 O.3       1 SER1        0.0000 
      9 OG          0.8800   12.6400  -13.9600 O.3       1 SER1        0.0000 
     10 N           1.8300    9.6200  -12.0900 N.am      2 ALA2        0.0000 
     11 O           1.4100   11.7000  -12.1300 O.2       2 ALA2        0.0000 
     12 N           1.9300   10.7600  -10.3000 N.am      2 ALA2        0.0000 
     13 N           0.9900   11.6700   -9.5700 N.am      2 ALA2        0.0000 
     14 O           1.5200   12.8400  -10.3500 O.2       2 ALA2        0.0000 
     15 OD1        -2.3700   10.7900  -18.8900 O.co2     3 ASP3        0.0000 
     16 OD1        -0.3800   10.1200  -18.5800 O.co2     3 ASP3        0.0000 
     17 OD1        -1.3200   11.0300  -17.8400 O.co2     3 ASP3        0.0000 
     18 OD1        -0.8000   12.2000  -18.6200 O.co2     3 ASP3        0.0000 
     19 OD1        -2.2500    9.8300  -14.5000 O.co2     3 ASP3        0.0000 
     20 OD1        -1.7300   11.0000  -15.2800 O.co2     3 ASP3        0.0000 
     21 OD1        -0.6900   13.3400  -16.8400 O.co2     3 ASP3        0.0000 
     22 OD1        -0.7900    7.9800  -13.4000 O.co2     3 ASP3        0.0000 
     23 NZ         -1.6300   14.2500  -16.1000 N.4       4 LYS4        0.0000 
     24 NZ          0.3600   13.5700  -15.7900 N.4       4 LYS4        0.0000 
     25 NZ         -0.5800   14.4800  -15.0500 N.4       4 LYS4        0.0000 
     26 NZ         -0.0600   13.5400  -13.2200 N.4       4 LYS4        0.0000 
     27 NZ          0.9900   13.7800  -12.1700 N.4       4 LYS4        0.0000 
     28 CZ         -1.7300    8.8900  -12.6700 C.ar      5 PHE5        0.0000 
     29 CZ         -1.2100   10.0600  -13.4500 C.ar      5 PHE5        0.0000 
     30 CZ         -1.6300   12.1400  -13.4900 C.ar      5 PHE5        0.0000 
     31 CZ         -1.1100   13.3100  -14.2700 C.ar      5 PHE5        0.0000 
     32 CZ         -2.0400   14.2200  -13.5400 C.ar      5 PHE5        0.0000 
     33 CZ         -0.6800    9.1200  -11.6200 C.ar      5 PHE5        0.0000 
     34 CZ         -0.1600   10.2900  -12.4000 C.ar      5 PHE5        0.0000 
     35 CZ          0.3600   11.4600  -13.1800 C.ar      5 PHE5        0.0000 
     36 CZ         -1.0000   14.4500  -12.4900 C.ar      5 PHE5        0.0000 
     37 CZ          0.8900   10.5300  -11.3500 C.ar      5 PHE5        0.0000 
     38 CZ         -0.0500   11.4300  -10.6100 C.ar      5 PHE5        0.0000 
     39 CZ          0.4700   12.6100  -11.3900 C.ar      5 PHE5        0.0000 
     40 CZ         -0.4700   13.5100  -10.6600 C.ar      5 PHE5        0.0000 
     41 CZ          0.4700   10.5000   -8.7900 C.ar      5 PHE5        0.0000 
     42 CA         -2.2600   11.9400  -17.1100 C.3       6 GLY6        0.0000 
     43 CA         -2.6700   11.9100  -14.5400 C.3       6 GLY6        0.0000 
     44 CA         -2.1500   13.0800  -15.3200 C.3       6 GLY6        0.0000 
     45 CA          1.3100    8.4500  -11.3100 C.3       6 GLY6        0.0000 
     46 CA          2.3500   10.7900  -12.8700 C.3       6 GLY6        0.0000 
     47 CA          0.3700    9.3600  -10.5700 C.3       6 GLY6        0.0000 
     48 CA          1.9300   12.8700  -12.9100 C.3       6 GLY6        0.0000 
     49 CA          1.4100    9.5900   -9.5200 C.3       6 GLY6        0.0000 
     50 DU          0.2600    8.2100  -12.3600 H         7 CUB7        0.0000 
@<TRIPOS>BOND
@<TRIPOS>SUBSTRUCTURE
     1 SER1        1 GROUP   
     2 ALA2       10 GROUP   
     3 ASP3       15 GROUP   
     4 LYS4       23 GROUP   
     5 PHE5       28 GROUP   
     6 GLY6       42 GROUP   
     7 CUB7       50 GROUP   
@<TRIPOS>SET

