#    Name: 6g7x_21_IMD_CAVITY_N1_4
#    Modification time : Fri May 22 19:29:00 2020

@<TRIPOS>MOLECULE
6g7x_21_IMD_CAVITY_N1_4
   26     0     6     0     0
SMALL
NO_CHARGES


@<TRIPOS>ATOM
      1 OG         26.1500    8.8300   26.0300 O.3       1 SER1        0.0000 
      2 OG         26.6700   10.0100   25.2500 O.3       1 SER1        0.0000 
      3 OG         25.7300   10.9100   25.9900 O.3       1 SER1        0.0000 
      4 OG         26.2500   12.0800   25.2100 O.3       1 SER1        0.0000 
      5 OG         24.7900   11.8200   26.7300 O.3       1 SER1        0.0000 
      6 OG         28.2300   11.4100   25.5200 O.3       1 SER1        0.0000 
      7 OG         27.2900   12.3200   26.2600 O.3       1 SER1        0.0000 
      8 N          22.1700   10.1800   25.4100 N.am      2 ALA2        0.0000 
      9 N          24.1600    9.5100   25.7200 N.am      2 ALA2        0.0000 
     10 OD1        26.0400    7.6900   24.2500 O.co2     3 ASP3        0.0000 
     11 OD1        26.5600    8.8600   23.4700 O.co2     3 ASP3        0.0000 
     12 OD1        27.1900   11.1800   24.4700 O.co2     3 ASP3        0.0000 
     13 CZ         22.5900   10.2100   22.8500 C.ar      4 PHE5        0.0000 
     14 CZ         25.5100    8.6300   22.4200 C.ar      4 PHE5        0.0000 
     15 CZ         24.5700    9.5400   23.1600 C.ar      4 PHE5        0.0000 
     16 CZ         23.6300   10.4500   23.8900 C.ar      4 PHE5        0.0000 
     17 CZ         25.6200    9.7700   24.2100 C.ar      4 PHE5        0.0000 
     18 CZ         24.6800   10.6800   24.9400 C.ar      4 PHE5        0.0000 
     19 CA         22.0600    9.0400   23.6300 C.3       5 GLY6        0.0000 
     20 CA         24.9900    7.4600   23.2000 C.3       5 GLY6        0.0000 
     21 CA         24.0500    8.3700   23.9400 C.3       5 GLY6        0.0000 
     22 CA         23.1100    9.2800   24.6700 C.3       5 GLY6        0.0000 
     23 CA         23.2200   10.4200   26.4600 C.3       5 GLY6        0.0000 
     24 CA         23.7400   11.5900   25.6800 C.3       5 GLY6        0.0000 
     25 CA         27.7100   12.3500   23.6900 C.3       5 GLY6        0.0000 
     26 DU         25.1000    8.6000   24.9900 H         6 CUB7        0.0000 
@<TRIPOS>BOND
@<TRIPOS>SUBSTRUCTURE
     1 SER1        1 GROUP   
     2 ALA2        8 GROUP   
     3 ASP3       10 GROUP   
     4 PHE5       13 GROUP   
     5 GLY6       19 GROUP   
     6 CUB7       26 GROUP   
@<TRIPOS>SET

