#    Name: 6g7x_4_IMD_CAVITY_N1_4
#    Modification time : Fri May 22 19:28:42 2020

@<TRIPOS>MOLECULE
6g7x_4_IMD_CAVITY_N1_4
   32     0     6     0     0
SMALL
NO_CHARGES


@<TRIPOS>ATOM
      1 OG        -12.2800  -11.6300   38.9100 O.3       1 SER1        0.0000 
      2 OG         -9.7700  -11.1400   38.4400 O.3       1 SER1        0.0000 
      3 OG         -9.2500   -9.9700   37.6600 O.3       1 SER1        0.0000 
      4 OG        -10.1900   -9.0600   38.4000 O.3       1 SER1        0.0000 
      5 N          -7.7900   -9.7100   36.1400 N.am      2 ALA2        0.0000 
      6 N          -8.7300   -8.8000   36.8800 N.am      2 ALA2        0.0000 
      7 OD1       -14.2600  -10.9600   38.6000 O.co2     3 ASP3        0.0000 
      8 OD1       -11.7600  -10.4600   38.1300 O.co2     3 ASP3        0.0000 
      9 OD1       -11.2400   -9.2900   37.3500 O.co2     3 ASP3        0.0000 
     10 OD1       -10.7200   -8.1200   36.5700 O.co2     3 ASP3        0.0000 
     11 OD1       -13.2200  -10.7300   39.6500 O.co2     3 ASP3        0.0000 
     12 OD1       -11.6600   -7.2100   37.3100 O.co2     3 ASP3        0.0000 
     13 CZ        -13.4300  -13.0100   36.0800 C.ar      4 PHE5        0.0000 
     14 CZ        -12.3800  -12.7800   37.1200 C.ar      4 PHE5        0.0000 
     15 CZ        -11.8600  -11.6100   36.3400 C.ar      4 PHE5        0.0000 
     16 CZ        -10.8200   -9.2600   34.7800 C.ar      4 PHE5        0.0000 
     17 CZ        -12.8000  -10.7000   37.0800 C.ar      4 PHE5        0.0000 
     18 CZ        -12.2800   -9.5300   36.3000 C.ar      4 PHE5        0.0000 
     19 CZ        -11.7600   -8.3600   35.5200 C.ar      4 PHE5        0.0000 
     20 CZ         -9.8800  -12.2800   36.6600 C.ar      4 PHE5        0.0000 
     21 CZ         -9.3600  -11.1100   35.8800 C.ar      4 PHE5        0.0000 
     22 CZ         -8.8400   -9.9400   35.1000 C.ar      4 PHE5        0.0000 
     23 CZ        -10.8200  -11.3700   37.3900 C.ar      4 PHE5        0.0000 
     24 CZ        -10.3000  -10.2000   36.6100 C.ar      4 PHE5        0.0000 
     25 CA         -9.3600   -9.0000   33.2700 C.3       5 GLY6        0.0000 
     26 CA        -13.3200  -11.8700   37.8600 C.3       5 GLY6        0.0000 
     27 CA        -11.2400   -7.1800   34.7400 C.3       5 GLY6        0.0000 
     28 CA         -8.3200   -8.7700   34.3200 C.3       5 GLY6        0.0000 
     29 CA         -9.2600   -7.8600   35.0500 C.3       5 GLY6        0.0000 
     30 CA         -8.3100  -10.8800   36.9200 C.3       5 GLY6        0.0000 
     31 DU        -11.3400  -12.5400   38.1700 H         6 CUB7        0.0000 
     32 DU         -9.7800   -9.0300   35.8300 H         6 CUB7        0.0000 
@<TRIPOS>BOND
@<TRIPOS>SUBSTRUCTURE
     1 SER1        1 GROUP   
     2 ALA2        5 GROUP   
     3 ASP3        7 GROUP   
     4 PHE5       13 GROUP   
     5 GLY6       25 GROUP   
     6 CUB7       31 GROUP   
@<TRIPOS>SET

