#    Name: 6g7x_21_IMD_CAVITY_N1_8
#    Modification time : Fri May 22 19:29:00 2020

@<TRIPOS>MOLECULE
6g7x_21_IMD_CAVITY_N1_8
   78     0     7     0     0
SMALL
NO_CHARGES


@<TRIPOS>ATOM
      1 OG         26.1500    8.8300   26.0300 O.3       1 SER1        0.0000 
      2 OG         26.6700   10.0100   25.2500 O.3       1 SER1        0.0000 
      3 OG         25.7300   10.9100   25.9900 O.3       1 SER1        0.0000 
      4 OG         26.2500   12.0800   25.2100 O.3       1 SER1        0.0000 
      5 OG         24.7900   11.8200   26.7300 O.3       1 SER1        0.0000 
      6 OG         25.3100   12.9900   25.9500 O.3       1 SER1        0.0000 
      7 OG         28.2300   11.4100   25.5200 O.3       1 SER1        0.0000 
      8 OG         27.2900   12.3200   26.2600 O.3       1 SER1        0.0000 
      9 OG         26.3500   13.2300   27.0000 O.3       1 SER1        0.0000 
     10 OG         29.2800   11.6400   26.5700 O.3       1 SER1        0.0000 
     11 OG         28.3400   12.5500   27.3100 O.3       1 SER1        0.0000 
     12 N          21.1200   12.0600   21.7500 N.am      2 ALA2        0.0000 
     13 N          20.7100   12.0300   24.3200 N.am      2 ALA2        0.0000 
     14 N          22.1700   10.1800   25.4100 N.am      2 ALA2        0.0000 
     15 O          21.7500   12.2600   25.3700 O.2       2 ALA2        0.0000 
     16 N          24.1600    9.5100   25.7200 N.am      2 ALA2        0.0000 
     17 O          22.8000   12.5000   26.4100 O.2       2 ALA2        0.0000 
     18 O          23.3200   13.6700   25.6300 O.2       2 ALA2        0.0000 
     19 N          24.3700   13.9000   26.6800 N.am      2 ALA2        0.0000 
     20 N          30.7400   11.9100   25.0600 N.am      2 ALA2        0.0000 
     21 OD1        26.0400    7.6900   24.2500 O.co2     3 ASP3        0.0000 
     22 OD1        26.5600    8.8600   23.4700 O.co2     3 ASP3        0.0000 
     23 OD1        27.1900   11.1800   24.4700 O.co2     3 ASP3        0.0000 
     24 OD1        28.3300   14.6600   24.7000 O.co2     3 ASP3        0.0000 
     25 OD1        28.8600   13.7200   26.5300 O.co2     3 ASP3        0.0000 
     26 OD1        29.3800   14.8900   25.7500 O.co2     3 ASP3        0.0000 
     27 NZ         25.8300   14.1600   25.1700 N.4       4 LYS4        0.0000 
     28 NZ         26.3500   15.3300   24.3900 N.4       4 LYS4        0.0000 
     29 NZ         24.8900   15.0700   25.9000 N.4       4 LYS4        0.0000 
     30 NZ         25.4100   16.2400   25.1200 N.4       4 LYS4        0.0000 
     31 NZ         26.8700   14.4000   26.2200 N.4       4 LYS4        0.0000 
     32 NZ         27.3900   15.5700   25.4400 N.4       4 LYS4        0.0000 
     33 CZ         22.5900   10.2100   22.8500 C.ar      5 PHE5        0.0000 
     34 CZ         21.6500   11.1200   23.5800 C.ar      5 PHE5        0.0000 
     35 CZ         22.1700   12.2900   22.8000 C.ar      5 PHE5        0.0000 
     36 CZ         25.5100    8.6300   22.4200 C.ar      5 PHE5        0.0000 
     37 CZ         24.5700    9.5400   23.1600 C.ar      5 PHE5        0.0000 
     38 CZ         23.6300   10.4500   23.8900 C.ar      5 PHE5        0.0000 
     39 CZ         22.6900   11.3500   24.6300 C.ar      5 PHE5        0.0000 
     40 CZ         23.2100   12.5300   23.8500 C.ar      5 PHE5        0.0000 
     41 CZ         24.7700   16.0400   21.5100 C.ar      5 PHE5        0.0000 
     42 CZ         25.6200    9.7700   24.2100 C.ar      5 PHE5        0.0000 
     43 CZ         24.6800   10.6800   24.9400 C.ar      5 PHE5        0.0000 
     44 CZ         24.2600   12.7600   24.9000 C.ar      5 PHE5        0.0000 
     45 CZ         24.7800   13.9300   24.1200 C.ar      5 PHE5        0.0000 
     46 CZ         25.3000   15.1000   23.3400 C.ar      5 PHE5        0.0000 
     47 CZ         25.8200   16.2700   22.5600 C.ar      5 PHE5        0.0000 
     48 CZ         26.7700   13.2500   24.4300 C.ar      5 PHE5        0.0000 
     49 CA         20.6000   10.8900   22.5300 C.3       6 GLY6        0.0000 
     50 CA         19.6600   11.8000   23.2700 C.3       6 GLY6        0.0000 
     51 CA         22.0600    9.0400   23.6300 C.3       6 GLY6        0.0000 
     52 CA         21.1300    9.9500   24.3600 C.3       6 GLY6        0.0000 
     53 CA         21.7500   14.3700   22.7600 C.3       6 GLY6        0.0000 
     54 CA         24.9900    7.4600   23.2000 C.3       6 GLY6        0.0000 
     55 CA         24.0500    8.3700   23.9400 C.3       6 GLY6        0.0000 
     56 CA         23.1100    9.2800   24.6700 C.3       6 GLY6        0.0000 
     57 CA         22.2700   13.4300   24.5900 C.3       6 GLY6        0.0000 
     58 CA         22.7900   14.6000   23.8100 C.3       6 GLY6        0.0000 
     59 CA         23.3100   15.7800   23.0300 C.3       6 GLY6        0.0000 
     60 CA         21.3300   14.3400   25.3200 C.3       6 GLY6        0.0000 
     61 CA         23.2200   10.4200   26.4600 C.3       6 GLY6        0.0000 
     62 CA         23.7400   11.5900   25.6800 C.3       6 GLY6        0.0000 
     63 CA         22.9000   15.7500   25.5900 C.3       6 GLY6        0.0000 
     64 CA         27.7100   12.3500   23.6900 C.3       6 GLY6        0.0000 
     65 CA         27.2900   14.4300   23.6500 C.3       6 GLY6        0.0000 
     66 CA         26.8700   16.5000   23.6100 C.3       6 GLY6        0.0000 
     67 CA         29.2700   13.7500   23.9600 C.3       6 GLY6        0.0000 
     68 CA         28.8500   15.8300   23.9200 C.3       6 GLY6        0.0000 
     69 DU         21.2300   13.2000   23.5400 H         7 CUB7        0.0000 
     70 DU         25.1000    8.6000   24.9900 H         7 CUB7        0.0000 
     71 DU         23.8400   14.8400   24.8500 H         7 CUB7        0.0000 
     72 DU         24.3600   16.0100   24.0700 H         7 CUB7        0.0000 
     73 DU         28.7500   12.5800   24.7400 H         7 CUB7        0.0000 
     74 DU         27.8100   13.4900   25.4800 H         7 CUB7        0.0000 
     75 DU         29.8000   12.8100   25.7900 H         7 CUB7        0.0000 
     76 DU         30.3200   13.9800   25.0100 H         7 CUB7        0.0000 
     77 DU         32.3100   13.3100   25.3200 H         7 CUB7        0.0000 
     78 DU         30.8500   13.0500   26.8400 H         7 CUB7        0.0000 
@<TRIPOS>BOND
@<TRIPOS>SUBSTRUCTURE
     1 SER1        1 GROUP   
     2 ALA2       12 GROUP   
     3 ASP3       21 GROUP   
     4 LYS4       27 GROUP   
     5 PHE5       33 GROUP   
     6 GLY6       49 GROUP   
     7 CUB7       69 GROUP   
@<TRIPOS>SET

