#    Name: 6g7x_14_IMD
#    Modification time : Fri May 22 19:28:53 2020

@<TRIPOS>MOLECULE
6g7x_14_IMD
    5     5     1     0     0
SMALL
NO_CHARGES


@<TRIPOS>ATOM
      1 N1         -0.5480    7.7570  -12.9420 N.pl3     1 IMD302      0.0000 
      2 C2         -1.5950    7.3660  -12.1820 C.2       1 IMD302      0.0000 
      3 N3         -2.6370    8.1930  -12.4230 N.2       1 IMD302      0.0000 
      4 C4         -2.2490    9.1010  -13.3470 C.2       1 IMD302      0.0000 
      5 C5         -0.9230    8.8320  -13.6700 C.2       1 IMD302      0.0000 
@<TRIPOS>BOND
     1    1    2 1    
     2    1    5 1    
     3    2    3 2    
     4    3    4 1    
     5    4    5 2    
@<TRIPOS>SUBSTRUCTURE
     1 IMD302      1 GROUP   
@<TRIPOS>SET

