#    Name: 6g7x_9_IMD
#    Modification time : Fri May 22 19:28:47 2020

@<TRIPOS>MOLECULE
6g7x_9_IMD
    5     5     1     0     0
SMALL
NO_CHARGES


@<TRIPOS>ATOM
      1 N1         27.9920   -8.4110   14.7090 N.pl3     1 IMD301      0.0000 
      2 C2         27.2180   -7.4510   14.1440 C.2       1 IMD301      0.0000 
      3 N3         27.4620   -7.4320   12.8160 N.2       1 IMD301      0.0000 
      4 C4         28.3890   -8.3820   12.5460 C.2       1 IMD301      0.0000 
      5 C5         28.7220   -9.0050   13.7460 C.2       1 IMD301      0.0000 
@<TRIPOS>BOND
     1    1    2 1    
     2    1    5 1    
     3    2    3 2    
     4    3    4 1    
     5    4    5 2    
@<TRIPOS>SUBSTRUCTURE
     1 IMD301      1 GROUP   
@<TRIPOS>SET

