#    Name: 6g7x_14_IMD_CAVITY_N1_4
#    Modification time : Fri May 22 19:28:54 2020

@<TRIPOS>MOLECULE
6g7x_14_IMD_CAVITY_N1_4
   21     0     6     0     0
SMALL
NO_CHARGES


@<TRIPOS>ATOM
      1 OG         -0.7900   10.0900  -16.0100 O.3       1 SER1        0.0000 
      2 OG         -0.2700    9.1500  -14.1800 O.3       1 SER1        0.0000 
      3 OG         -0.6900   11.2300  -14.2300 O.3       1 SER1        0.0000 
      4 OG         -0.1700   12.4000  -15.0100 O.3       1 SER1        0.0000 
      5 OG          0.7800    9.3900  -13.1400 O.3       1 SER1        0.0000 
      6 N           1.8300    9.6200  -12.0900 N.am      2 ALA2        0.0000 
      7 OD1        -2.2500    9.8300  -14.5000 O.co2     3 ASP3        0.0000 
      8 OD1        -1.7300   11.0000  -15.2800 O.co2     3 ASP3        0.0000 
      9 OD1        -0.7900    7.9800  -13.4000 O.co2     3 ASP3        0.0000 
     10 CZ         -1.7300    8.8900  -12.6700 C.ar      4 PHE5        0.0000 
     11 CZ         -1.2100   10.0600  -13.4500 C.ar      4 PHE5        0.0000 
     12 CZ         -1.6300   12.1400  -13.4900 C.ar      4 PHE5        0.0000 
     13 CZ         -0.6800    9.1200  -11.6200 C.ar      4 PHE5        0.0000 
     14 CZ         -0.1600   10.2900  -12.4000 C.ar      4 PHE5        0.0000 
     15 CZ          0.3600   11.4600  -13.1800 C.ar      4 PHE5        0.0000 
     16 CZ          0.8900   10.5300  -11.3500 C.ar      4 PHE5        0.0000 
     17 CA         -2.6700   11.9100  -14.5400 C.3       5 GLY6        0.0000 
     18 CA          1.3100    8.4500  -11.3100 C.3       5 GLY6        0.0000 
     19 CA          2.3500   10.7900  -12.8700 C.3       5 GLY6        0.0000 
     20 CA          0.3700    9.3600  -10.5700 C.3       5 GLY6        0.0000 
     21 DU          0.2600    8.2100  -12.3600 H         6 CUB7        0.0000 
@<TRIPOS>BOND
@<TRIPOS>SUBSTRUCTURE
     1 SER1        1 GROUP   
     2 ALA2        6 GROUP   
     3 ASP3        7 GROUP   
     4 PHE5       10 GROUP   
     5 GLY6       17 GROUP   
     6 CUB7       21 GROUP   
@<TRIPOS>SET

