#    Name: 6g7x_14_IMD_CAVITY_N1_8
#    Modification time : Fri May 22 19:28:54 2020

@<TRIPOS>MOLECULE
6g7x_14_IMD_CAVITY_N1_8
   88     0     7     0     0
SMALL
NO_CHARGES


@<TRIPOS>ATOM
      1 OG         -0.7900   10.0900  -16.0100 O.3       1 SER1        0.0000 
      2 OG         -0.2700   11.2600  -16.7900 O.3       1 SER1        0.0000 
      3 OG          0.2500   12.4300  -17.5700 O.3       1 SER1        0.0000 
      4 OG         -1.2100   12.1700  -16.0600 O.3       1 SER1        0.0000 
      5 OG         -0.2700    9.1500  -14.1800 O.3       1 SER1        0.0000 
      6 OG         -0.6900   11.2300  -14.2300 O.3       1 SER1        0.0000 
      7 OG         -0.1700   12.4000  -15.0100 O.3       1 SER1        0.0000 
      8 OG          0.7800    9.3900  -13.1400 O.3       1 SER1        0.0000 
      9 OG          0.8800   12.6400  -13.9600 O.3       1 SER1        0.0000 
     10 N          -5.4000   11.2400  -20.2500 N.am      2 ALA2        0.0000 
     11 N          -3.8300   12.6400  -19.9800 N.am      2 ALA2        0.0000 
     12 N           1.8300    9.6200  -12.0900 N.am      2 ALA2        0.0000 
     13 O           1.4100   11.7000  -12.1300 O.2       2 ALA2        0.0000 
     14 N           1.9300   10.7600  -10.3000 N.am      2 ALA2        0.0000 
     15 N           0.9900   11.6700   -9.5700 N.am      2 ALA2        0.0000 
     16 O           1.5200   12.8400  -10.3500 O.2       2 ALA2        0.0000 
     17 OD1        -1.5300    8.7400  -21.4100 O.co2     3 ASP3        0.0000 
     18 OD1        -1.4300    9.8900  -19.6300 O.co2     3 ASP3        0.0000 
     19 OD1        -0.9100   11.0600  -20.4100 O.co2     3 ASP3        0.0000 
     20 OD1        -2.3700   10.7900  -18.8900 O.co2     3 ASP3        0.0000 
     21 OD1        -0.3800   10.1200  -18.5800 O.co2     3 ASP3        0.0000 
     22 OD1         0.1400   11.2900  -19.3600 O.co2     3 ASP3        0.0000 
     23 OD1        -1.3200   11.0300  -17.8400 O.co2     3 ASP3        0.0000 
     24 OD1        -0.8000   12.2000  -18.6200 O.co2     3 ASP3        0.0000 
     25 OD1        -0.2800   13.3700  -19.4000 O.co2     3 ASP3        0.0000 
     26 OD1        -1.7400   13.1100  -17.8900 O.co2     3 ASP3        0.0000 
     27 OD1        -2.1600   15.1900  -17.9300 O.co2     3 ASP3        0.0000 
     28 OD1        -2.2500    9.8300  -14.5000 O.co2     3 ASP3        0.0000 
     29 OD1        -1.7300   11.0000  -15.2800 O.co2     3 ASP3        0.0000 
     30 OD1        -0.6900   13.3400  -16.8400 O.co2     3 ASP3        0.0000 
     31 OD1        -2.0500   16.3300  -16.1400 O.co2     3 ASP3        0.0000 
     32 OD1        -0.7900    7.9800  -13.4000 O.co2     3 ASP3        0.0000 
     33 NZ         -2.4700    9.6500  -20.6800 N.4       4 LYS4        0.0000 
     34 NZ         -1.6300   14.2500  -16.1000 N.4       4 LYS4        0.0000 
     35 NZ          0.3600   13.5700  -15.7900 N.4       4 LYS4        0.0000 
     36 NZ         -0.5800   14.4800  -15.0500 N.4       4 LYS4        0.0000 
     37 NZ         -1.5200   15.3900  -14.3200 N.4       4 LYS4        0.0000 
     38 NZ         -0.0600   13.5400  -13.2200 N.4       4 LYS4        0.0000 
     39 NZ         -0.4800   15.6200  -13.2700 N.4       4 LYS4        0.0000 
     40 NZ         -1.4200   16.5300  -12.5300 N.4       4 LYS4        0.0000 
     41 NZ          0.9900   13.7800  -12.1700 N.4       4 LYS4        0.0000 
     42 NZ          1.5100   14.9500  -12.9500 N.4       4 LYS4        0.0000 
     43 CZ         -1.7300    8.8900  -12.6700 C.ar      5 PHE5        0.0000 
     44 CZ         -1.2100   10.0600  -13.4500 C.ar      5 PHE5        0.0000 
     45 CZ         -1.6300   12.1400  -13.4900 C.ar      5 PHE5        0.0000 
     46 CZ         -1.1100   13.3100  -14.2700 C.ar      5 PHE5        0.0000 
     47 CZ         -2.0400   14.2200  -13.5400 C.ar      5 PHE5        0.0000 
     48 CZ         -2.9800   15.1300  -12.8000 C.ar      5 PHE5        0.0000 
     49 CZ         -0.6800    9.1200  -11.6200 C.ar      5 PHE5        0.0000 
     50 CZ         -0.1600   10.2900  -12.4000 C.ar      5 PHE5        0.0000 
     51 CZ          0.3600   11.4600  -13.1800 C.ar      5 PHE5        0.0000 
     52 CZ         -1.0000   14.4500  -12.4900 C.ar      5 PHE5        0.0000 
     53 CZ         -1.9400   15.3600  -11.7500 C.ar      5 PHE5        0.0000 
     54 CZ         -2.8800   16.2700  -11.0100 C.ar      5 PHE5        0.0000 
     55 CZ          0.8900   10.5300  -11.3500 C.ar      5 PHE5        0.0000 
     56 CZ         -0.0500   11.4300  -10.6100 C.ar      5 PHE5        0.0000 
     57 CZ          0.4700   12.6100  -11.3900 C.ar      5 PHE5        0.0000 
     58 CZ         -0.4700   13.5100  -10.6600 C.ar      5 PHE5        0.0000 
     59 CZ          0.0500   14.6800  -11.4400 C.ar      5 PHE5        0.0000 
     60 CZ         -1.4100   14.4200   -9.9200 C.ar      5 PHE5        0.0000 
     61 CZ         -0.8900   15.5900  -10.7000 C.ar      5 PHE5        0.0000 
     62 CZ          0.4700   10.5000   -8.7900 C.ar      5 PHE5        0.0000 
     63 CZ          0.0600   12.5800   -8.8300 C.ar      5 PHE5        0.0000 
     64 CA         -3.7300   13.7800  -18.2000 C.3       6 GLY6        0.0000 
     65 CA          0.6600   12.4600  -20.1400 C.3       6 GLY6        0.0000 
     66 CA         -2.2600   11.9400  -17.1100 C.3       6 GLY6        0.0000 
     67 CA         -2.6800   14.0100  -17.1500 C.3       6 GLY6        0.0000 
     68 CA         -3.6200   14.9200  -16.4100 C.3       6 GLY6        0.0000 
     69 CA         -2.6700   11.9100  -14.5400 C.3       6 GLY6        0.0000 
     70 CA         -2.1500   13.0800  -15.3200 C.3       6 GLY6        0.0000 
     71 CA         -2.5700   15.1600  -15.3600 C.3       6 GLY6        0.0000 
     72 CA         -2.4600   16.3000  -13.5800 C.3       6 GLY6        0.0000 
     73 CA         -3.9200   16.0300  -12.0600 C.3       6 GLY6        0.0000 
     74 CA          1.3100    8.4500  -11.3100 C.3       6 GLY6        0.0000 
     75 CA          2.3500   10.7900  -12.8700 C.3       6 GLY6        0.0000 
     76 CA          0.3700    9.3600  -10.5700 C.3       6 GLY6        0.0000 
     77 CA          1.9300   12.8700  -12.9100 C.3       6 GLY6        0.0000 
     78 CA          0.5700   15.8600  -12.2200 C.3       6 GLY6        0.0000 
     79 CA          1.4100    9.5900   -9.5200 C.3       6 GLY6        0.0000 
     80 CA          2.0400   14.0100  -11.1300 C.3       6 GLY6        0.0000 
     81 CA          0.5800   13.7500   -9.6100 C.3       6 GLY6        0.0000 
     82 CA          1.1000   14.9200  -10.3900 C.3       6 GLY6        0.0000 
     83 CA         -0.3600   14.6600   -8.8700 C.3       6 GLY6        0.0000 
     84 DU         -3.4100   10.5600  -19.9400 H         7 CUB7        0.0000 
     85 DU         -2.8900   11.7300  -20.7200 H         7 CUB7        0.0000 
     86 DU         -1.8500   11.9600  -19.6700 H         7 CUB7        0.0000 
     87 DU         -2.7900   12.8700  -18.9300 H         7 CUB7        0.0000 
     88 DU          0.2600    8.2100  -12.3600 H         7 CUB7        0.0000 
@<TRIPOS>BOND
@<TRIPOS>SUBSTRUCTURE
     1 SER1        1 GROUP   
     2 ALA2       10 GROUP   
     3 ASP3       17 GROUP   
     4 LYS4       33 GROUP   
     5 PHE5       43 GROUP   
     6 GLY6       64 GROUP   
     7 CUB7       84 GROUP   
@<TRIPOS>SET

