#    Name: 6g7x_4_IMD
#    Modification time : Fri May 22 19:28:41 2020

@<TRIPOS>MOLECULE
6g7x_4_IMD
    5     5     1     0     0
SMALL
NO_CHARGES


@<TRIPOS>ATOM
      1 N1        -12.7740   -8.5940   35.4350 N.pl3     1 IMD301      0.0000 
      2 C2        -12.0460   -7.4950   35.1290 C.2       1 IMD301      0.0000 
      3 N3        -10.9910   -7.4390   35.9740 N.2       1 IMD301      0.0000 
      4 C4        -11.0520   -8.5070   36.8010 C.2       1 IMD301      0.0000 
      5 C5        -12.1830   -9.2400   36.4630 C.2       1 IMD301      0.0000 
@<TRIPOS>BOND
     1    1    2 1    
     2    1    5 1    
     3    2    3 2    
     4    3    4 1    
     5    4    5 2    
@<TRIPOS>SUBSTRUCTURE
     1 IMD301      1 GROUP   
@<TRIPOS>SET

