#    Name: 6an9_1_ADP
#    Modification time : Fri May 22 19:34:27 2020

@<TRIPOS>MOLECULE
6an9_1_ADP
   39    41     1     0     1
SMALL
NO_CHARGES


@<TRIPOS>ATOM
      1 PB         38.5980    6.8680   29.6360 P.3       1 ADP2001     0.0000 
      2 O1B        37.8860    6.5310   28.3770 O.co2     1 ADP2001     0.0000 
      3 O2B        38.4830    8.2890   30.1040 O.co2     1 ADP2001     0.0000 
      4 O3B        38.2810    5.8940   30.8040 O.co2     1 ADP2001     0.0000 
      5 PA         41.0230    6.4500   28.0070 P.3       1 ADP2001     0.0000 
      6 O1A        40.5170    7.4090   26.9190 O.co2     1 ADP2001     0.0000 
      7 O2A        42.3980    6.6150   28.5260 O.co2     1 ADP2001     0.0000 
      8 O3A        40.1580    6.5390   29.3570 O.3       1 ADP2001     0.0000 
      9 O5'        40.9310    4.9290   27.4890 O.3       1 ADP2001     0.0000 
     10 C5'        41.3630    3.8270   28.3420 C.3       1 ADP2001     0.0000 
     11 C4'        41.4100    2.5940   27.4510 C.3       1 ADP2001     0.0000 
     12 O4'        42.0460    1.5150   28.1280 O.3       1 ADP2001     0.0000 
     13 C3'        40.0520    2.1080   27.0710 C.3       1 ADP2001     0.0000 
     14 O3'        40.0440    1.9660   25.6260 O.3       1 ADP2001     0.0000 
     15 C2'        39.9730    0.7710   27.8140 C.3       1 ADP2001     0.0000 
     16 O2'        39.0920   -0.1150   27.1270 O.3       1 ADP2001     0.0000 
     17 C1'        41.4440    0.2840   27.8430 C.3       1 ADP2001     0.0000 
     18 N9         41.6030   -0.7410   28.8700 N.pl3     1 ADP2001     0.0000 
     19 C8         41.4010   -0.6230   30.1850 C.2       1 ADP2001     0.0000 
     20 N7         41.5900   -1.8120   30.7550 N.2       1 ADP2001     0.0000 
     21 C5         41.9700   -2.6530   29.7880 C.ar      1 ADP2001     0.0000 
     22 C6         42.3260   -4.0400   29.7150 C.ar      1 ADP2001     0.0000 
     23 N6         42.3000   -4.7660   30.8600 N.pl3     1 ADP2001     0.0000 
     24 N1         42.6770   -4.5500   28.5080 N.ar      1 ADP2001     0.0000 
     25 C2         42.6960   -3.8380   27.3980 C.ar      1 ADP2001     0.0000 
     26 N3         42.3280   -2.5400   27.3460 N.ar      1 ADP2001     0.0000 
     27 C4         41.9800   -1.9620   28.5490 C.ar      1 ADP2001     0.0000 
     28 H5'1       42.3500    4.0330   28.7600 H         1 ADP2001     0.0000 
     29 H5'2       40.6550    3.6790   29.1600 H         1 ADP2001     0.0000 
     30 H4'        41.9650    2.8400   26.5350 H         1 ADP2001     0.0000 
     31 H3'        39.2780    2.8020   27.4260 H         1 ADP2001     0.0000 
     32 HO3'       39.1760    1.6510   25.3380 H         1 ADP2001     0.0000 
     33 H2'        39.6250    0.9450   28.8420 H         1 ADP2001     0.0000 
     34 HO2'       38.2040    0.2670   27.1030 H         1 ADP2001     0.0000 
     35 H1'        41.7390   -0.0860   26.8510 H         1 ADP2001     0.0000 
     36 H8         41.0370    0.2640   30.6880 H         1 ADP2001     0.0000 
     37 HN61       42.5860   -5.7350   30.8490 H         1 ADP2001     0.0000 
     38 HN62       42.0660   -4.3200   31.7350 H         1 ADP2001     0.0000 
     39 H2         42.9490   -4.3380   26.4720 H         1 ADP2001     0.0000 
@<TRIPOS>BOND
     1    1    2 ar   
     2    1    3 ar   
     3    1    4 ar   
     4    1    8 1    
     5    5    6 ar   
     6    5    7 ar   
     7    5    8 1    
     8    5    9 1    
     9    9   10 1    
    10   10   11 1    
    11   10   28 1    
    12   10   29 1    
    13   11   12 1    
    14   11   13 1    
    15   11   30 1    
    16   12   17 1    
    17   13   14 1    
    18   13   15 1    
    19   13   31 1    
    20   14   32 1    
    21   15   16 1    
    22   15   17 1    
    23   15   33 1    
    24   16   34 1    
    25   17   18 1    
    26   17   35 1    
    27   18   19 1    
    28   18   27 1    
    29   19   20 2    
    30   19   36 1    
    31   20   21 1    
    32   21   22 ar   
    33   21   27 ar   
    34   22   23 1    
    35   22   24 ar   
    36   23   37 1    
    37   23   38 1    
    38   24   25 ar   
    39   25   26 ar   
    40   25   39 1    
    41   26   27 ar   
@<TRIPOS>SUBSTRUCTURE
     1 ADP2001     1 GROUP   
@<TRIPOS>SET
ATOM$ORANGE STATIC     ATOMS   COLORGROUP SYSTEM 
20 10 10 11 11 13 13 15 15 17 17 19 19 21 21 22 22 25 \
25 27 27 

