#    Name: 6n9u_1_TTP
#    Modification time : Fri May 22 19:36:32 2020

@<TRIPOS>MOLECULE
6n9u_1_TTP
   29    30     1     0     0
SMALL
NO_CHARGES


@<TRIPOS>ATOM
      1 PA        160.1780  166.2600   87.8400 P.3       1 TTP801      0.0000 
      2 O1A       160.0500  164.9930   88.6460 O.co2     1 TTP801      0.0000 
      3 O2A       159.2780  167.3410   88.3860 O.co2     1 TTP801      0.0000 
      4 O3A       159.7350  165.9920   86.2860 O.3       1 TTP801      0.0000 
      5 PB        158.6850  166.8440   85.3660 P.3       1 TTP801      0.0000 
      6 O1B       159.2580  167.0350   83.9860 O.co2     1 TTP801      0.0000 
      7 O2B       158.4540  168.1690   86.0440 O.co2     1 TTP801      0.0000 
      8 O3B       157.2430  166.0720   85.2920 O.3       1 TTP801      0.0000 
      9 PG        155.9020  166.3900   86.0870 P.3       1 TTP801      0.0000 
     10 O1G       156.1530  167.6070   86.9440 O.co2     1 TTP801      0.0000 
     11 O2G       154.7900  166.6700   85.1090 O.co2     1 TTP801      0.0000 
     12 O3G       155.5320  165.2150   86.9550 O.co2     1 TTP801      0.0000 
     13 O5'       161.7320  166.7820   87.8670 O.3       1 TTP801      0.0000 
     14 C5'       161.9420  168.1440   87.6650 C.3       1 TTP801      0.0000 
     15 C4'       163.1610  168.2830   86.7480 C.3       1 TTP801      0.0000 
     16 O4'       164.2530  167.5110   87.2780 O.3       1 TTP801      0.0000 
     17 C3'       162.8480  167.5530   85.4580 C.3       1 TTP801      0.0000 
     18 O3'       162.1560  168.4310   84.5250 O.3       1 TTP801      0.0000 
     19 C2'       164.2290  167.2020   84.9370 C.3       1 TTP801      0.0000 
     20 C1'       165.0460  167.0270   86.2050 C.3       1 TTP801      0.0000 
     21 N1        165.3470  165.6020   86.4250 N.am      1 TTP801      0.0000 
     22 C2        166.7160  165.0820   86.2100 C.2       1 TTP801      0.0000 
     23 O2        167.5340  165.8620   85.8640 O.2       1 TTP801      0.0000 
     24 N3        167.1160  163.7580   86.3860 N.am      1 TTP801      0.0000 
     25 C4        166.1260  162.9400   86.7840 C.2       1 TTP801      0.0000 
     26 O4        166.4190  161.7530   86.9560 O.2       1 TTP801      0.0000 
     27 C5        164.7150  163.3290   87.0330 C.2       1 TTP801      0.0000 
     28 C5M       163.6790  162.3090   87.4850 C.3       1 TTP801      0.0000 
     29 C6        164.3760  164.6490   86.8470 C.2       1 TTP801      0.0000 
@<TRIPOS>BOND
     1    1    2 ar   
     2    1    3 ar   
     3    1    4 1    
     4    1   13 1    
     5    4    5 1    
     6    5    6 ar   
     7    5    7 ar   
     8    5    8 1    
     9    8    9 1    
    10    9   10 ar   
    11    9   11 ar   
    12    9   12 ar   
    13   13   14 1    
    14   14   15 1    
    15   15   16 1    
    16   15   17 1    
    17   16   20 1    
    18   17   18 1    
    19   17   19 1    
    20   19   20 1    
    21   20   21 1    
    22   21   22 1    
    23   21   29 1    
    24   22   23 2    
    25   22   24 1    
    26   24   25 1    
    27   25   26 2    
    28   25   27 1    
    29   27   28 1    
    30   27   29 2    
@<TRIPOS>SUBSTRUCTURE
     1 TTP801      1 GROUP   
@<TRIPOS>SET

