#    Name: 6n9u_1_TTP_CAVITY_N1_12
#    Modification time : Fri May 22 19:36:34 2020

@<TRIPOS>MOLECULE
6n9u_1_TTP_CAVITY_N1_12
   91     0     7     0     0
SMALL
NO_CHARGES


@<TRIPOS>ATOM
      1 OG        157.5600  165.6100   84.0400 O.3       1 SER1        0.0000 
      2 OG        151.0100  169.5200   83.4000 O.3       1 SER1        0.0000 
      3 OG        159.9700  166.3100   84.6900 O.3       1 SER1        0.0000 
      4 OG        154.7600  167.4900   85.4900 O.3       1 SER1        0.0000 
      5 OG        152.7100  167.6100   86.0400 O.3       1 SER1        0.0000 
      6 OG        162.3900  167.0000   85.3400 O.3       1 SER1        0.0000 
      7 OG        163.3100  167.8300   84.4900 O.3       1 SER1        0.0000 
      8 OG        161.2600  167.9500   85.0400 O.3       1 SER1        0.0000 
      9 O         154.7300  168.4600   81.1000 O.2       2 ALA2        0.0000 
     10 O         156.4300  166.5600   83.7400 O.2       2 ALA2        0.0000 
     11 O         155.3100  167.5000   83.4400 O.2       2 ALA2        0.0000 
     12 O         158.8500  167.2500   84.3900 O.2       2 ALA2        0.0000 
     13 O         156.8000  167.3700   84.9400 O.2       2 ALA2        0.0000 
     14 O         162.1900  168.7800   84.2000 O.2       2 ALA2        0.0000 
     15 O         160.1400  168.9000   84.7500 O.2       2 ALA2        0.0000 
     16 N         163.6700  172.0500   89.0000 N.am      2 ALA2        0.0000 
     17 N         164.5900  172.8700   88.1600 N.am      2 ALA2        0.0000 
     18 OD1       153.2400  168.5900   79.6000 O.co2     3 ASP3        0.0000 
     19 OD1       153.6100  169.4100   80.8000 O.co2     3 ASP3        0.0000 
     20 OD1       156.6400  164.7800   84.8800 O.co2     3 ASP3        0.0000 
     21 OD1       155.5100  165.7300   84.5900 O.co2     3 ASP3        0.0000 
     22 OD1       154.3900  166.6800   84.2900 O.co2     3 ASP3        0.0000 
     23 OD1       152.3400  166.8000   84.8400 O.co2     3 ASP3        0.0000 
     24 OD1       155.1600  163.9400   87.7800 O.co2     3 ASP3        0.0000 
     25 OD1       156.0900  164.7700   86.9300 O.co2     3 ASP3        0.0000 
     26 OD1       157.0100  165.6000   86.0900 O.co2     3 ASP3        0.0000 
     27 OD1       157.9300  166.4300   85.2400 O.co2     3 ASP3        0.0000 
     28 OD1       154.0400  164.8900   87.4800 O.co2     3 ASP3        0.0000 
     29 OD1       154.9600  165.7200   86.6400 O.co2     3 ASP3        0.0000 
     30 OD1       155.8800  166.5500   85.7900 O.co2     3 ASP3        0.0000 
     31 OD1       153.8400  166.6700   86.3400 O.co2     3 ASP3        0.0000 
     32 OD1       158.5000  165.4700   87.5900 O.co2     3 ASP3        0.0000 
     33 OD1       159.4200  166.3000   86.7400 O.co2     3 ASP3        0.0000 
     34 OD1       160.3400  167.1200   85.8900 O.co2     3 ASP3        0.0000 
     35 OD1       157.3800  166.4200   87.2900 O.co2     3 ASP3        0.0000 
     36 OD1       159.2200  168.0700   85.5900 O.co2     3 ASP3        0.0000 
     37 OD1       155.3300  166.5400   87.8400 O.co2     3 ASP3        0.0000 
     38 OD1       158.8700  166.2900   88.7900 O.co2     3 ASP3        0.0000 
     39 OD1       159.7900  167.1100   87.9400 O.co2     3 ASP3        0.0000 
     40 OD1       165.5500  169.3300   88.4000 O.co2     3 ASP3        0.0000 
     41 OD1       164.4200  170.2800   88.1000 O.co2     3 ASP3        0.0000 
     42 OD1       165.3400  171.1100   87.2500 O.co2     3 ASP3        0.0000 
     43 OD1       164.7900  171.1000   89.3000 O.co2     3 ASP3        0.0000 
     44 NZ        153.4400  166.8200   80.7400 N.4       4 LYS4        0.0000 
     45 NZ        152.3200  167.7600   80.4500 N.4       4 LYS4        0.0000 
     46 NZ        151.1900  168.7100   80.1500 N.4       4 LYS4        0.0000 
     47 NZ        152.8900  166.8100   82.7900 N.4       4 LYS4        0.0000 
     48 NZ        150.8500  166.9300   83.3400 N.4       4 LYS4        0.0000 
     49 NZ        151.7700  167.7500   82.4900 N.4       4 LYS4        0.0000 
     50 NZ        150.6400  168.7000   82.2000 N.4       4 LYS4        0.0000 
     51 NZ        154.2100  167.4800   87.5400 N.4       4 LYS4        0.0000 
     52 NZ        164.8100  167.7000   85.9900 N.4       4 LYS4        0.0000 
     53 NZ        160.7100  167.9400   87.0900 N.4       4 LYS4        0.0000 
     54 NZ        161.6400  168.7700   86.2500 N.4       4 LYS4        0.0000 
     55 NZ        160.5100  169.7100   85.9500 N.4       4 LYS4        0.0000 
     56 NZ        166.3000  167.5700   87.4900 N.4       4 LYS4        0.0000 
     57 NZ        165.1800  168.5200   87.2000 N.4       4 LYS4        0.0000 
     58 NZ        164.0500  169.4600   86.9000 N.4       4 LYS4        0.0000 
     59 NZ        162.0100  169.5800   87.4500 N.4       4 LYS4        0.0000 
     60 CZ        154.9400  166.6900   82.2400 C.ar      5 PHE5        0.0000 
     61 CZ        162.2200  164.4100   85.2800 C.ar      5 PHE5        0.0000 
     62 CZ        161.1000  165.3600   84.9900 C.ar      5 PHE5        0.0000 
     63 CZ        164.6400  165.1100   85.9400 C.ar      5 PHE5        0.0000 
     64 CZ        162.5900  165.2300   86.4900 C.ar      5 PHE5        0.0000 
     65 CZ        163.5100  166.0500   85.6400 C.ar      5 PHE5        0.0000 
     66 CA        153.8100  167.6300   81.9400 C.3       6 GLY6        0.0000 
     67 CA        152.6900  168.5800   81.6500 C.3       6 GLY6        0.0000 
     68 CA        151.5600  169.5300   81.3500 C.3       6 GLY6        0.0000 
     69 CA        153.2600  167.6200   83.9900 C.3       6 GLY6        0.0000 
     70 CA        159.0500  165.4800   85.5400 C.3       6 GLY6        0.0000 
     71 CA        161.6700  164.4000   87.3300 C.3       6 GLY6        0.0000 
     72 CA        160.5500  165.3500   87.0400 C.3       6 GLY6        0.0000 
     73 CA        162.9600  166.0400   87.6900 C.3       6 GLY6        0.0000 
     74 CA        160.9200  166.1700   88.2400 C.3       6 GLY6        0.0000 
     75 CA        161.8400  166.9900   87.3900 C.3       6 GLY6        0.0000 
     76 CA        163.6800  168.6500   85.7000 C.3       6 GLY6        0.0000 
     77 CA        162.5600  169.5900   85.4000 C.3       6 GLY6        0.0000 
     78 CA        164.2600  167.6900   88.0400 C.3       6 GLY6        0.0000 
     79 CA        162.2100  167.8100   88.5900 C.3       6 GLY6        0.0000 
     80 CA        163.1300  168.6400   87.7500 C.3       6 GLY6        0.0000 
     81 CA        162.9300  170.4100   86.6000 C.3       6 GLY6        0.0000 
     82 CA        164.6300  168.5100   89.2400 C.3       6 GLY6        0.0000 
     83 CA        163.5000  169.4500   88.9500 C.3       6 GLY6        0.0000 
     84 CA        162.3800  170.4000   88.6500 C.3       6 GLY6        0.0000 
     85 CA        163.3000  171.2300   87.8000 C.3       6 GLY6        0.0000 
     86 CA        164.2200  172.0600   86.9600 C.3       6 GLY6        0.0000 
     87 CA        162.1700  172.1800   87.5100 C.3       6 GLY6        0.0000 
     88 DU        163.7200  164.2800   86.7800 H         7 CUB7        0.0000 
     89 DU        161.4700  166.1800   86.1900 H         7 CUB7        0.0000 
     90 DU        163.8800  166.8700   86.8400 H         7 CUB7        0.0000 
     91 DU        162.7600  167.8200   86.5400 H         7 CUB7        0.0000 
@<TRIPOS>BOND
@<TRIPOS>SUBSTRUCTURE
     1 SER1        1 GROUP   
     2 ALA2        9 GROUP   
     3 ASP3       18 GROUP   
     4 LYS4       44 GROUP   
     5 PHE5       60 GROUP   
     6 GLY6       66 GROUP   
     7 CUB7       88 GROUP   
@<TRIPOS>SET

