#    Name: 5yb7_4_FAD
#    Modification time : Fri May 22 19:16:59 2020

@<TRIPOS>MOLECULE
5yb7_4_FAD
   53    58     1     0     1
SMALL
NO_CHARGES


@<TRIPOS>ATOM
      1 PA         20.8860   -7.1060   -0.4150 P.3       1 FAD601      0.0000 
      2 O1A        22.3630   -7.4550   -0.3480 O.co2     1 FAD601      0.0000 
      3 O2A        19.8230   -7.4460    0.5980 O.co2     1 FAD601      0.0000 
      4 O5B        20.5500   -5.5280   -0.6870 O.3       1 FAD601      0.0000 
      5 C5B        21.3990   -4.4590   -0.4700 C.3       1 FAD601      0.0000 
      6 C4B        21.0190   -3.3650    0.5140 C.3       1 FAD601      0.0000 
      7 O4B        19.7110   -2.7070    0.5870 O.3       1 FAD601      0.0000 
      8 C3B        21.3120   -3.8100    1.9110 C.3       1 FAD601      0.0000 
      9 O3B        22.6860   -3.5470    2.2050 O.3       1 FAD601      0.0000 
     10 C2B        20.2910   -3.0240    2.7400 C.3       1 FAD601      0.0000 
     11 O2B        20.8940   -2.6920    4.0010 O.3       1 FAD601      0.0000 
     12 C1B        19.9140   -1.9050    1.7530 C.3       1 FAD601      0.0000 
     13 N9A        18.7530   -1.0860    2.1200 N.pl3     1 FAD601      0.0000 
     14 C8A        17.5600   -1.5400    2.6190 C.2       1 FAD601      0.0000 
     15 N7A        16.7110   -0.5270    2.8440 N.2       1 FAD601      0.0000 
     16 C5A        17.3480    0.6390    2.4990 C.ar      1 FAD601      0.0000 
     17 C6A        17.0090    2.0950    2.5330 C.ar      1 FAD601      0.0000 
     18 N6A        15.7770    2.5480    2.9420 N.pl3     1 FAD601      0.0000 
     19 N1A        17.9410    2.9460    2.0540 N.ar      1 FAD601      0.0000 
     20 C2A        19.1730    2.5030    1.6180 C.ar      1 FAD601      0.0000 
     21 N3A        19.5550    1.2040    1.6120 N.ar      1 FAD601      0.0000 
     22 C4A        18.7020    0.2490    2.0260 C.ar      1 FAD601      0.0000 
     23 N1         23.5160  -17.0990   -2.2470 N.2       1 FAD601      0.0000 
     24 C2         24.2880  -18.0510   -2.8170 C.2       1 FAD601      0.0000 
     25 O2         24.4910  -17.9070   -4.0500 O.2       1 FAD601      0.0000 
     26 N3         24.8190  -19.0830   -2.1040 N.am      1 FAD601      0.0000 
     27 C4         24.6150  -19.2110   -0.7630 C.2       1 FAD601      0.0000 
     28 O4         25.0970  -20.1070   -0.0340 O.2       1 FAD601      0.0000 
     29 C4X        23.7350  -18.2410   -0.0840 C.2       1 FAD601      0.0000 
     30 N5         23.4900  -18.3420    1.2300 N.2       1 FAD601      0.0000 
     31 C5X        22.7310  -17.4060    1.8660 C.ar      1 FAD601      0.0000 
     32 C6         22.5010  -17.5230    3.2490 C.ar      1 FAD601      0.0000 
     33 C7         21.7290  -16.5900    3.8950 C.ar      1 FAD601      0.0000 
     34 C7M        21.4530  -16.7000    5.3610 C.3       1 FAD601      0.0000 
     35 C8         21.1570  -15.4460    3.1260 C.ar      1 FAD601      0.0000 
     36 C8M        20.3040  -14.4140    3.8000 C.3       1 FAD601      0.0000 
     37 C9         21.3770  -15.3120    1.7620 C.ar      1 FAD601      0.0000 
     38 C9A        22.1430  -16.2550    1.0910 C.ar      1 FAD601      0.0000 
     39 N10        22.4120  -16.1440   -0.3030 N.pl3     1 FAD601      0.0000 
     40 C10        23.2080  -17.1340   -0.9260 C.2       1 FAD601      0.0000 
     41 C1'        21.8380  -15.0890   -1.1230 C.3       1 FAD601      0.0000 
     42 C2'        22.7330  -13.8950   -1.3860 C.3       1 FAD601      0.0000 
     43 O2'        23.4040  -13.5120   -0.1910 O.3       1 FAD601      0.0000 
     44 C3'        21.7950  -12.8210   -1.9320 C.3       1 FAD601      0.0000 
     45 O3'        21.0580  -13.3550   -3.0750 O.3       1 FAD601      0.0000 
     46 C4'        22.4500  -11.5030   -2.2900 C.3       1 FAD601      0.0000 
     47 O4'        23.6040  -11.1990   -1.4520 O.3       1 FAD601      0.0000 
     48 C5'        21.3600  -10.4360   -2.2260 C.3       1 FAD601      0.0000 
     49 O5'        21.8250   -9.3180   -2.9630 O.3       1 FAD601      0.0000 
     50 P          20.8800   -8.0720   -3.2470 P.3       1 FAD601      0.0000 
     51 O1P        21.8980   -7.0000   -3.5700 O.co2     1 FAD601      0.0000 
     52 O2P        19.6080   -8.4890   -3.9940 O.co2     1 FAD601      0.0000 
     53 O3P        20.2040   -7.7400   -1.7630 O.3       1 FAD601      0.0000 
@<TRIPOS>BOND
     1    1    2 ar   
     2    1    3 ar   
     3    1    4 1    
     4    1   53 1    
     5    4    5 1    
     6    5    6 1    
     7    6    7 1    
     8    6    8 1    
     9    7   12 1    
    10    8    9 1    
    11    8   10 1    
    12   10   11 1    
    13   10   12 1    
    14   12   13 1    
    15   13   14 1    
    16   13   22 1    
    17   14   15 2    
    18   15   16 1    
    19   16   17 ar   
    20   16   22 ar   
    21   17   18 1    
    22   17   19 ar   
    23   19   20 ar   
    24   20   21 ar   
    25   21   22 ar   
    26   23   24 1    
    27   23   40 2    
    28   24   25 2    
    29   24   26 am   
    30   26   27 am   
    31   27   28 2    
    32   27   29 1    
    33   29   30 2    
    34   29   40 1    
    35   30   31 1    
    36   31   32 ar   
    37   31   38 ar   
    38   32   33 ar   
    39   33   34 1    
    40   33   35 ar   
    41   35   36 1    
    42   35   37 ar   
    43   37   38 ar   
    44   38   39 1    
    45   39   40 1    
    46   39   41 1    
    47   41   42 1    
    48   42   43 1    
    49   42   44 1    
    50   44   45 1    
    51   44   46 1    
    52   46   47 1    
    53   46   48 1    
    54   48   49 1    
    55   49   50 1    
    56   50   51 ar   
    57   50   52 ar   
    58   50   53 1    
@<TRIPOS>SUBSTRUCTURE
     1 FAD601      1 GROUP   
@<TRIPOS>SET
ATOM$ORANGE STATIC     ATOMS   COLORGROUP SYSTEM 
54 5 5 6 6 8 8 10 10 12 12 14 14 16 16 17 17 20 \
20 22 22 24 24 27 27 29 29 31 31 32 32 33 33 34 34 35 \
35 36 36 37 37 38 38 40 40 41 41 42 42 44 44 46 46 48 \
48 

