#    Name: 6mea_2_APR_CAVITY_N1_ALL
#    Modification time : Fri May 22 19:37:41 2020

@<TRIPOS>MOLECULE
6mea_2_APR_CAVITY_N1_ALL
   71     0     4     0     0
SMALL
NO_CHARGES


@<TRIPOS>ATOM
      1 O          33.7000   23.8800   12.5000 O.2       1 ALA2        0.0000 
      2 O          33.4400   23.1300   14.4700 O.2       1 ALA2        0.0000 
      3 O          34.8000   22.5000   14.4100 O.2       1 ALA2        0.0000 
      4 O          34.0000   24.3900   13.8800 O.2       1 ALA2        0.0000 
      5 O          35.3600   23.7600   13.8200 O.2       1 ALA2        0.0000 
      6 N          33.7300   23.6300   15.8500 N.am      1 ALA2        0.0000 
      7 N          34.2900   24.9000   15.2600 N.am      1 ALA2        0.0000 
      8 N          32.6700   24.7700   17.2900 N.am      1 ALA2        0.0000 
      9 N          33.2300   26.0400   16.7000 N.am      1 ALA2        0.0000 
     10 O          31.3700   29.0700   17.6100 O.2       1 ALA2        0.0000 
     11 O          32.7300   28.4400   17.5600 O.2       1 ALA2        0.0000 
     12 O          31.1000   28.3100   19.5800 O.2       1 ALA2        0.0000 
     13 O          33.0200   28.9400   18.9400 O.2       1 ALA2        0.0000 
     14 O          34.3800   28.3100   18.8800 O.2       1 ALA2        0.0000 
     15 N          31.9600   30.0800   20.3800 N.am      1 ALA2        0.0000 
     16 N          33.3200   29.4500   20.3200 N.am      1 ALA2        0.0000 
     17 O          33.8800   30.7200   19.7300 O.2       1 ALA2        0.0000 
     18 O          35.2400   30.0800   19.6700 O.2       1 ALA2        0.0000 
     19 N          33.6100   29.9600   21.7000 N.am      1 ALA2        0.0000 
     20 N          32.8100   31.8500   21.1700 N.am      1 ALA2        0.0000 
     21 N          34.1700   31.2200   21.1100 N.am      1 ALA2        0.0000 
     22 O          33.3700   33.1200   20.5900 O.2       1 ALA2        0.0000 
     23 N          36.6500   33.1200   19.8800 N.am      1 ALA2        0.0000 
     24 N          36.3900   32.3600   21.8500 N.am      1 ALA2        0.0000 
     25 O          37.7500   31.7300   21.7900 O.2       1 ALA2        0.0000 
     26 N          36.9500   33.6200   21.2600 N.am      1 ALA2        0.0000 
     27 N          36.6800   32.8700   23.2300 N.am      1 ALA2        0.0000 
     28 N          38.0400   32.2400   23.1700 N.am      1 ALA2        0.0000 
     29 O          39.4000   31.6100   23.1100 O.2       1 ALA2        0.0000 
     30 N          37.7800   31.4800   25.1300 N.am      1 ALA2        0.0000 
     31 O          39.1400   30.8500   25.0700 O.2       1 ALA2        0.0000 
     32 O          38.3400   32.7500   24.5500 O.2       1 ALA2        0.0000 
     33 O          39.7000   32.1200   24.4900 O.2       1 ALA2        0.0000 
     34 CZ         32.0800   23.7600   14.5200 C.ar      2 PHE5        0.0000 
     35 CZ         32.6400   25.0200   13.9400 C.ar      2 PHE5        0.0000 
     36 CZ         32.3700   24.2700   15.9000 C.ar      2 PHE5        0.0000 
     37 CZ         31.5700   26.1600   15.3800 C.ar      2 PHE5        0.0000 
     38 CZ         32.9300   25.5300   15.3200 C.ar      2 PHE5        0.0000 
     39 CZ         31.3100   25.4000   17.3400 C.ar      2 PHE5        0.0000 
     40 CZ         30.5100   27.3000   16.8200 C.ar      2 PHE5        0.0000 
     41 CZ         31.8700   26.6700   16.7600 C.ar      2 PHE5        0.0000 
     42 CA         33.2000   26.2800   13.3600 C.3       3 GLY6        0.0000 
     43 CA         34.5600   25.6500   13.3000 C.3       3 GLY6        0.0000 
     44 CA         33.4900   26.7900   14.7400 C.3       3 GLY6        0.0000 
     45 CA         34.8500   26.1600   14.6800 C.3       3 GLY6        0.0000 
     46 CA         32.4300   27.9300   16.1800 C.3       3 GLY6        0.0000 
     47 CA         33.7900   27.3000   16.1200 C.3       3 GLY6        0.0000 
     48 CA         31.6000   25.9100   18.7200 C.3       3 GLY6        0.0000 
     49 CA         30.8100   27.8100   18.2000 C.3       3 GLY6        0.0000 
     50 CA         32.1700   27.1700   18.1400 C.3       3 GLY6        0.0000 
     51 CA         34.0900   27.8100   17.5000 C.3       3 GLY6        0.0000 
     52 CA         32.4600   27.6800   19.5200 C.3       3 GLY6        0.0000 
     53 CA         33.5800   30.2100   18.3500 C.3       3 GLY6        0.0000 
     54 CA         34.9400   29.5800   18.2900 C.3       3 GLY6        0.0000 
     55 CA         32.7600   28.1900   20.9000 C.3       3 GLY6        0.0000 
     56 CA         34.6800   28.8200   20.2600 C.3       3 GLY6        0.0000 
     57 CA         34.4400   31.9800   19.1500 C.3       3 GLY6        0.0000 
     58 CA         34.9700   29.3300   21.6400 C.3       3 GLY6        0.0000 
     59 CA         36.8900   29.9600   20.9900 C.3       3 GLY6        0.0000 
     60 CA         37.4500   31.2200   20.4100 C.3       3 GLY6        0.0000 
     61 CA         35.8300   31.1000   22.4300 C.3       3 GLY6        0.0000 
     62 CA         37.1900   30.4700   22.3700 C.3       3 GLY6        0.0000 
     63 CA         39.1100   31.1000   21.7300 C.3       3 GLY6        0.0000 
     64 CA         37.4800   30.9800   23.7500 C.3       3 GLY6        0.0000 
     65 CA         38.8400   30.3500   23.6900 C.3       3 GLY6        0.0000 
     66 DU         35.8000   31.3500   19.0900 H         4 CUB7        0.0000 
     67 DU         35.5300   30.5900   21.0500 H         4 CUB7        0.0000 
     68 DU         34.7300   32.4900   20.5300 H         4 CUB7        0.0000 
     69 DU         36.0900   31.8500   20.4700 H         4 CUB7        0.0000 
     70 DU         35.2900   33.7500   19.9400 H         4 CUB7        0.0000 
     71 DU         35.0300   32.9900   21.9100 H         4 CUB7        0.0000 
@<TRIPOS>BOND
@<TRIPOS>SUBSTRUCTURE
     1 ALA2        1 GROUP   
     2 PHE5       34 GROUP   
     3 GLY6       42 GROUP   
     4 CUB7       66 GROUP   
@<TRIPOS>SET

