#    Name: 6mea_2_APR
#    Modification time : Fri May 22 19:37:39 2020

@<TRIPOS>MOLECULE
6mea_2_APR
   36    39     1     0     0
SMALL
NO_CHARGES


@<TRIPOS>ATOM
      1 N1         39.7590   31.4270   24.6140 N.ar      1 APR500      0.0000 
      2 C2         38.5060   31.8240   24.8630 C.ar      1 APR500      0.0000 
      3 N3         37.5130   32.0550   24.0000 N.ar      1 APR500      0.0000 
      4 C4         37.9110   31.8370   22.7390 C.ar      1 APR500      0.0000 
      5 C5         39.1650   31.4200   22.3260 C.ar      1 APR500      0.0000 
      6 C6         40.1300   31.2110   23.3320 C.ar      1 APR500      0.0000 
      7 N6         41.3810   30.8180   23.0880 N.pl3     1 APR500      0.0000 
      8 N7         39.2050   31.2790   20.9470 N.2       1 APR500      0.0000 
      9 C8         37.9940   31.6070   20.5670 C.2       1 APR500      0.0000 
     10 N9         37.1600   31.9560   21.5960 N.pl3     1 APR500      0.0000 
     11 C1'        35.7490   32.3190   21.5480 C.3       1 APR500      0.0000 
     12 C2'        35.2000   32.7400   20.1920 C.3       1 APR500      0.0000 
     13 O2'        35.5560   34.0710   19.8370 O.3       1 APR500      0.0000 
     14 C3'        33.7040   32.5810   20.4770 C.3       1 APR500      0.0000 
     15 O3'        33.1880   33.6830   21.2140 O.3       1 APR500      0.0000 
     16 O4'        34.9930   31.1770   21.8990 O.3       1 APR500      0.0000 
     17 C4'        33.6670   31.3120   21.3350 C.3       1 APR500      0.0000 
     18 C5'        33.2890   30.0400   20.6130 C.3       1 APR500      0.0000 
     19 O5'        33.6920   30.1480   19.2310 O.3       1 APR500      0.0000 
     20 PA         34.0590   28.8860   18.2700 P.3       1 APR500      0.0000 
     21 O1A        33.8930   29.5430   17.0080 O.co2     1 APR500      0.0000 
     22 O2A        35.2370   28.4430   18.9410 O.co2     1 APR500      0.0000 
     23 O3A        32.8300   27.9620   18.6630 O.3       1 APR500      0.0000 
     24 PB         31.3800   27.6570   18.0600 P.3       1 APR500      0.0000 
     25 O1B        30.9010   26.6370   19.0310 O.co2     1 APR500      0.0000 
     26 O2B        30.9030   28.9510   17.7660 O.co2     1 APR500      0.0000 
     27 O5D        31.8150   27.0070   16.6960 O.3       1 APR500      0.0000 
     28 C5D        32.0910   25.5980   16.6270 C.3       1 APR500      0.0000 
     29 O4D        33.9660   26.0400   15.1900 O.3       1 APR500      0.0000 
     30 O1D        36.2090   25.5280   15.5520 O.3       1 APR500      0.0000 
     31 C1D        35.0370   25.1440   14.9020 C.3       1 APR500      0.0000 
     32 O2D        35.2690   22.7300   14.8200 O.3       1 APR500      0.0000 
     33 C2D        34.5660   23.7990   15.4360 C.3       1 APR500      0.0000 
     34 O3D        32.8690   23.4610   13.7000 O.3       1 APR500      0.0000 
     35 C3D        33.0860   23.8330   15.0590 C.3       1 APR500      0.0000 
     36 C4D        32.7280   25.3010   15.2940 C.3       1 APR500      0.0000 
@<TRIPOS>BOND
     1    1    2 ar   
     2    1    6 ar   
     3    2    3 ar   
     4    3    4 ar   
     5    4    5 ar   
     6    4   10 1    
     7    5    6 ar   
     8    5    8 1    
     9    6    7 1    
    10    8    9 2    
    11    9   10 1    
    12   10   11 1    
    13   11   12 1    
    14   11   16 1    
    15   12   13 1    
    16   12   14 1    
    17   14   15 1    
    18   14   17 1    
    19   16   17 1    
    20   17   18 1    
    21   18   19 1    
    22   19   20 1    
    23   20   21 ar   
    24   20   22 ar   
    25   20   23 1    
    26   23   24 1    
    27   24   25 ar   
    28   24   26 ar   
    29   24   27 1    
    30   27   28 1    
    31   28   36 1    
    32   29   31 1    
    33   29   36 1    
    34   30   31 1    
    35   31   33 1    
    36   32   33 1    
    37   33   35 1    
    38   34   35 1    
    39   35   36 1    
@<TRIPOS>SUBSTRUCTURE
     1 APR500      1 GROUP   
@<TRIPOS>SET

