#    Name: 6ncp_1_HIS_HIS_HIS_HIS_HIS_CAVITY_N1_8
#    Modification time : Fri May 22 19:41:41 2020

@<TRIPOS>MOLECULE
6ncp_1_HIS_HIS_HIS_HIS_HIS_CAVITY_N1_8
   92     0     5     0     0
SMALL
NO_CHARGES


@<TRIPOS>ATOM
      1 OG         77.5300   74.3600    2.0900 O.3       1 SER1        0.0000 
      2 OG         76.1300   74.6300    2.5500 O.3       1 SER1        0.0000 
      3 OG         80.9100   73.3900    3.1400 O.3       1 SER1        0.0000 
      4 OG         79.5600   72.4100    4.4400 O.3       1 SER1        0.0000 
      5 OG         79.5100   73.6500    3.6100 O.3       1 SER1        0.0000 
      6 OG         79.4600   74.9000    2.7700 O.3       1 SER1        0.0000 
      7 OG         78.1600   72.6700    4.9100 O.3       1 SER1        0.0000 
      8 OG         78.1100   73.9100    4.0700 O.3       1 SER1        0.0000 
      9 OG         78.0600   75.1600    3.2400 O.3       1 SER1        0.0000 
     10 OG         80.1400   71.9500    6.4300 O.3       1 SER1        0.0000 
     11 OG         78.7400   72.2100    6.9000 O.3       1 SER1        0.0000 
     12 OG         80.6700   72.7500    7.5900 O.3       1 SER1        0.0000 
     13 OG         79.2700   73.0100    8.0500 O.3       1 SER1        0.0000 
     14 OG         83.8700   76.7600    5.3000 O.3       1 SER1        0.0000 
     15 OG         81.2100   73.5400    8.7400 O.3       1 SER1        0.0000 
     16 OG         84.5400   73.8100    8.9600 O.3       1 SER1        0.0000 
     17 OG         84.5000   75.0600    8.1300 O.3       1 SER1        0.0000 
     18 OG         84.4500   76.3000    7.2900 O.3       1 SER1        0.0000 
     19 OG         84.4000   77.5500    6.4600 O.3       1 SER1        0.0000 
     20 OG         83.1400   74.0700    9.4300 O.3       1 SER1        0.0000 
     21 OG         83.0900   75.3200    8.5900 O.3       1 SER1        0.0000 
     22 OG         81.7400   74.3300    9.9000 O.3       1 SER1        0.0000 
     23 OG         83.6300   76.1100    9.7500 O.3       1 SER1        0.0000 
     24 N          79.6000   71.1600    5.2800 N.am      2 ALA2        0.0000 
     25 O          78.2000   71.4200    5.7400 O.2       2 ALA2        0.0000 
     26 O          81.5400   71.6900    5.9600 O.2       2 ALA2        0.0000 
     27 NZ         76.7600   72.9300    5.3800 N.4       3 LYS4        0.0000 
     28 NZ         76.7100   74.1700    4.5400 N.4       3 LYS4        0.0000 
     29 NZ         76.6600   75.4200    3.7100 N.4       3 LYS4        0.0000 
     30 NZ         75.2600   75.6800    4.1800 N.4       3 LYS4        0.0000 
     31 NZ         82.7500   76.4100    2.1600 N.4       3 LYS4        0.0000 
     32 NZ         81.4900   72.9400    5.1300 N.4       3 LYS4        0.0000 
     33 NZ         81.4500   74.1800    4.2900 N.4       3 LYS4        0.0000 
     34 NZ         81.4000   75.4300    3.4600 N.4       3 LYS4        0.0000 
     35 NZ         77.3400   72.4800    7.3700 N.4       3 LYS4        0.0000 
     36 NZ         77.2900   73.7200    6.5300 N.4       3 LYS4        0.0000 
     37 NZ         77.2400   74.9700    5.7000 N.4       3 LYS4        0.0000 
     38 NZ         77.2000   76.2100    4.8600 N.4       3 LYS4        0.0000 
     39 NZ         75.8000   76.4700    5.3300 N.4       3 LYS4        0.0000 
     40 NZ         83.4300   73.4700    5.8100 N.4       3 LYS4        0.0000 
     41 NZ         83.2900   77.2100    3.3100 N.4       3 LYS4        0.0000 
     42 NZ         82.0300   73.7300    6.2800 N.4       3 LYS4        0.0000 
     43 NZ         81.9800   74.9800    5.4500 N.4       3 LYS4        0.0000 
     44 NZ         81.9300   76.2200    4.6100 N.4       3 LYS4        0.0000 
     45 NZ         77.8200   74.5200    7.6900 N.4       3 LYS4        0.0000 
     46 NZ         77.7800   75.7600    6.8500 N.4       3 LYS4        0.0000 
     47 NZ         83.9600   74.2600    6.9700 N.4       3 LYS4        0.0000 
     48 NZ         83.9100   75.5100    6.1400 N.4       3 LYS4        0.0000 
     49 NZ         81.0700   77.2800    6.2400 N.4       3 LYS4        0.0000 
     50 NZ         81.0200   78.5200    5.4000 N.4       3 LYS4        0.0000 
     51 NZ         79.7100   76.2900    7.5400 N.4       3 LYS4        0.0000 
     52 NZ         78.3600   75.3100    8.8400 N.4       3 LYS4        0.0000 
     53 NZ         78.3100   76.5500    8.0100 N.4       3 LYS4        0.0000 
     54 NZ         81.6500   76.8300    8.2300 N.4       3 LYS4        0.0000 
     55 NZ         80.2500   77.0900    8.7000 N.4       3 LYS4        0.0000 
     56 NZ         82.1800   77.6200    9.3800 N.4       3 LYS4        0.0000 
     57 NZ         80.7800   77.8800    9.8500 N.4       3 LYS4        0.0000 
     58 CA         76.1700   73.3800    3.3900 C.3       4 GLY6        0.0000 
     59 CA         80.9600   72.1400    3.9700 C.3       4 GLY6        0.0000 
     60 CA         81.8900   77.4700    3.7800 C.3       4 GLY6        0.0000 
     61 CA         85.3600   74.0000    6.5000 C.3       4 GLY6        0.0000 
     62 CA         84.0100   73.0200    7.8000 C.3       4 GLY6        0.0000 
     63 CA         83.8200   78.0000    4.4700 C.3       4 GLY6        0.0000 
     64 CA         82.6100   73.2800    8.2700 C.3       4 GLY6        0.0000 
     65 CA         82.5600   74.5300    7.4400 C.3       4 GLY6        0.0000 
     66 CA         82.4200   78.2600    4.9400 C.3       4 GLY6        0.0000 
     67 CA         83.0000   77.8100    6.9200 C.3       4 GLY6        0.0000 
     68 CA         83.5800   77.3600    8.9100 C.3       4 GLY6        0.0000 
     69 CA         84.1600   76.9100   10.9000 C.3       4 GLY6        0.0000 
     70 CA         82.7600   77.1700   11.3700 C.3       4 GLY6        0.0000 
     71 DU         80.0900   73.2000    5.6000 H         5 CUB7        0.0000 
     72 DU         80.0400   74.4400    4.7600 H         5 CUB7        0.0000 
     73 DU         80.0000   75.6900    3.9300 H         5 CUB7        0.0000 
     74 DU         78.6900   73.4600    6.0600 H         5 CUB7        0.0000 
     75 DU         78.6400   74.7100    5.2300 H         5 CUB7        0.0000 
     76 DU         78.6000   75.9500    4.4000 H         5 CUB7        0.0000 
     77 DU         80.6300   73.9900    6.7500 H         5 CUB7        0.0000 
     78 DU         80.5800   75.2400    5.9200 H         5 CUB7        0.0000 
     79 DU         80.5300   76.4800    5.0800 H         5 CUB7        0.0000 
     80 DU         79.2200   74.2500    7.2200 H         5 CUB7        0.0000 
     81 DU         79.1800   75.5000    6.3900 H         5 CUB7        0.0000 
     82 DU         79.1300   76.7500    5.5500 H         5 CUB7        0.0000 
     83 DU         82.5100   75.7700    6.6000 H         5 CUB7        0.0000 
     84 DU         82.4700   77.0200    5.7700 H         5 CUB7        0.0000 
     85 DU         81.1600   74.7900    7.9100 H         5 CUB7        0.0000 
     86 DU         81.1100   76.0300    7.0700 H         5 CUB7        0.0000 
     87 DU         79.7600   75.0500    8.3700 H         5 CUB7        0.0000 
     88 DU         83.0500   76.5600    7.7600 H         5 CUB7        0.0000 
     89 DU         81.6900   75.5800    9.0600 H         5 CUB7        0.0000 
     90 DU         80.2900   75.8400    9.5300 H         5 CUB7        0.0000 
     91 DU         82.2300   76.3700   10.2200 H         5 CUB7        0.0000 
     92 DU         80.8300   76.6400   10.6900 H         5 CUB7        0.0000 
@<TRIPOS>BOND
@<TRIPOS>SUBSTRUCTURE
     1 SER1        1 GROUP   
     2 ALA2       24 GROUP   
     3 LYS4       27 GROUP   
     4 GLY6       58 GROUP   
     5 CUB7       71 GROUP   
@<TRIPOS>SET

