#    Name: 6ncp_1_HIS_HIS_HIS_HIS_HIS
#    Modification time : Fri May 22 19:41:39 2020

@<TRIPOS>MOLECULE
6ncp_1_HIS_HIS_HIS_HIS_HIS
   51    55     5     0     0
SMALL
NO_CHARGES


@<TRIPOS>ATOM
      1 N          79.1490   77.5050    0.2570 N.4       1 HIS12       0.0000 
      2 CA         79.3930   78.2570    1.4830 C.3       1 HIS12       0.0000 
      3 C          78.9030   77.4870    2.7110 C.2       1 HIS12       0.0000 
      4 O          78.0660   77.9780    3.4680 O.2       1 HIS12       0.0000 
      5 CB         78.7160   79.6290    1.4120 C.3       1 HIS12       0.0000 
      6 CG         77.2600   79.5720    1.0600 C.2       1 HIS12       0.0000 
      7 ND1        76.3400   78.8610    1.8030 N.pl3     1 HIS12       0.0000 
      8 CD2        76.5630   80.1450    0.0500 C.2       1 HIS12       0.0000 
      9 CE1        75.1430   78.9920    1.2620 C.2       1 HIS12       0.0000 
     10 NE2        75.2500   79.7670    0.1970 N.2       1 HIS12       0.0000 
     11 N          79.4310   76.2820    2.9060 N.am      2 HIS13       0.0000 
     12 CA         78.9940   75.4380    4.0110 C.3       2 HIS13       0.0000 
     13 C          79.4610   76.0120    5.3450 C.2       2 HIS13       0.0000 
     14 O          80.6380   76.3480    5.5110 O.2       2 HIS13       0.0000 
     15 CB         79.5300   74.0190    3.8290 C.3       2 HIS13       0.0000 
     16 CG         79.1390   73.0760    4.9240 C.2       2 HIS13       0.0000 
     17 ND1        77.8250   72.7980    5.2330 N.pl3     2 HIS13       0.0000 
     18 CD2        79.8900   72.3450    5.7810 C.2       2 HIS13       0.0000 
     19 CE1        77.7830   71.9380    6.2350 C.2       2 HIS13       0.0000 
     20 NE2        79.0230   71.6480    6.5870 N.2       2 HIS13       0.0000 
     21 N          78.5350   76.1220    6.2980 N.am      3 HIS14       0.0000 
     22 CA         78.8540   76.5860    7.6450 C.3       3 HIS14       0.0000 
     23 C          79.3370   75.4060    8.4780 C.2       3 HIS14       0.0000 
     24 O          78.6170   74.4110    8.6280 O.2       3 HIS14       0.0000 
     25 CB         77.6440   77.2360    8.3140 C.3       3 HIS14       0.0000 
     26 CG         76.6680   77.8380    7.3560 C.2       3 HIS14       0.0000 
     27 ND1        76.9880   78.8950    6.5320 N.pl3     3 HIS14       0.0000 
     28 CD2        75.3730   77.5380    7.0970 C.2       3 HIS14       0.0000 
     29 CE1        75.9340   79.2160    5.8040 C.2       3 HIS14       0.0000 
     30 NE2        74.9410   78.4080    6.1260 N.2       3 HIS14       0.0000 
     31 N          80.5400   75.5240    9.0310 N.am      4 HIS15       0.0000 
     32 CA         81.1100   74.4340    9.8020 C.3       4 HIS15       0.0000 
     33 C          80.3850   74.2890   11.1420 C.2       4 HIS15       0.0000 
     34 O          79.5740   75.1330   11.5380 O.2       4 HIS15       0.0000 
     35 CB         82.6080   74.6560    9.9970 C.3       4 HIS15       0.0000 
     36 CG         83.4120   74.4370    8.7520 C.2       4 HIS15       0.0000 
     37 ND1        84.7710   74.2100    8.7680 N.pl3     4 HIS15       0.0000 
     38 CD2        83.0430   74.4080    7.4490 C.2       4 HIS15       0.0000 
     39 CE1        85.2050   74.0510    7.5300 C.2       4 HIS15       0.0000 
     40 NE2        84.1760   74.1660    6.7110 N.2       4 HIS15       0.0000 
     41 N          80.6870   73.1870   11.8300 N.am      5 HIS16       0.0000 
     42 CA         80.0350   72.7750   13.0790 C.3       5 HIS16       0.0000 
     43 C          79.7030   73.9240   14.0300 C.2       5 HIS16       0.0000 
     44 O          78.5530   74.3570   14.1150 O.2       5 HIS16       0.0000 
     45 CB         80.9290   71.7640   13.8020 C.3       5 HIS16       0.0000 
     46 CG         80.2100   70.9030   14.7960 C.2       5 HIS16       0.0000 
     47 ND1        78.8560   70.6520   14.7310 N.pl3     5 HIS16       0.0000 
     48 CD2        80.6660   70.2210   15.8750 C.2       5 HIS16       0.0000 
     49 CE1        78.5080   69.8600   15.7300 C.2       5 HIS16       0.0000 
     50 NE2        79.5880   69.5830   16.4380 N.2       5 HIS16       0.0000 
     51 OXT        80.5740   74.4480   14.7260 O.3       5 HIS16       0.0000 
@<TRIPOS>BOND
     1    1    2 1    
     2    2    3 1    
     3    2    5 1    
     4    3    4 2    
     5    3   11 am   
     6    5    6 1    
     7    6    7 1    
     8    6    8 2    
     9    7    9 1    
    10    8   10 1    
    11    9   10 2    
    12   11   12 1    
    13   12   13 1    
    14   12   15 1    
    15   13   14 2    
    16   13   21 am   
    17   15   16 1    
    18   16   17 1    
    19   16   18 2    
    20   17   19 1    
    21   18   20 1    
    22   19   20 2    
    23   21   22 1    
    24   22   23 1    
    25   22   25 1    
    26   23   24 2    
    27   23   31 am   
    28   25   26 1    
    29   26   27 1    
    30   26   28 2    
    31   27   29 1    
    32   28   30 1    
    33   29   30 2    
    34   31   32 1    
    35   32   33 1    
    36   32   35 1    
    37   33   34 2    
    38   33   41 am   
    39   35   36 1    
    40   36   37 1    
    41   36   38 2    
    42   37   39 1    
    43   38   40 1    
    44   39   40 2    
    45   41   42 1    
    46   42   43 1    
    47   42   45 1    
    48   43   44 2    
    49   43   51 1    
    50   45   46 1    
    51   46   47 1    
    52   46   48 2    
    53   47   49 1    
    54   48   50 1    
    55   49   50 2    
@<TRIPOS>SUBSTRUCTURE
     1 HIS12       1 RESIDUE 
     2 HIS13      11 RESIDUE 
     3 HIS14      21 RESIDUE 
     4 HIS15      31 RESIDUE 
     5 HIS16      41 RESIDUE 
@<TRIPOS>SET

