#    Name: 6no1_1_ADP
#    Modification time : Fri May 22 19:32:51 2020

@<TRIPOS>MOLECULE
6no1_1_ADP
   42    44     1     0     1
SMALL
NO_CHARGES


@<TRIPOS>ATOM
      1 PB         15.9380   33.7680   -3.2370 P.3       1 ADP301      0.0000 
      2 O1B        15.4050   35.1610   -3.0930 O.co2     1 ADP301      0.0000 
      3 O2B        14.9640   32.8240   -3.9480 O.co2     1 ADP301      0.0000 
      4 O3B        16.3060   33.1340   -1.8940 O.co2     1 ADP301      0.0000 
      5 PA         18.7240   33.1380   -3.8780 P.3       1 ADP301      0.0000 
      6 O1A        19.7680   34.1830   -3.8860 O.co2     1 ADP301      0.0000 
      7 O2A        18.6550   32.3000   -2.6050 O.co2     1 ADP301      0.0000 
      8 O3A        17.2750   33.7590   -4.1070 O.3       1 ADP301      0.0000 
      9 O5'        18.9160   32.1130   -5.0940 O.3       1 ADP301      0.0000 
     10 C5'        18.0780   30.9690   -5.3610 C.3       1 ADP301      0.0000 
     11 C4'        18.9210   29.7230   -5.2880 C.3       1 ADP301      0.0000 
     12 O4'        19.8670   29.7040   -6.3740 O.3       1 ADP301      0.0000 
     13 C3'        19.7830   29.5850   -4.0440 C.3       1 ADP301      0.0000 
     14 O3'        19.0280   29.0560   -2.9600 O.3       1 ADP301      0.0000 
     15 C2'        20.8690   28.6070   -4.5050 C.3       1 ADP301      0.0000 
     16 O2'        20.4740   27.2540   -4.3040 O.3       1 ADP301      0.0000 
     17 C1'        20.9840   28.9110   -6.0090 C.3       1 ADP301      0.0000 
     18 N9         22.2000   29.6260   -6.3850 N.pl3     1 ADP301      0.0000 
     19 C8         22.5540   30.9010   -6.0280 C.2       1 ADP301      0.0000 
     20 N7         23.7130   31.2880   -6.5040 N.2       1 ADP301      0.0000 
     21 C5         24.1530   30.1890   -7.2280 C.ar      1 ADP301      0.0000 
     22 C6         25.3200   29.9530   -7.9800 C.ar      1 ADP301      0.0000 
     23 N6         26.3000   30.8500   -8.1340 N.pl3     1 ADP301      0.0000 
     24 N1         25.4490   28.7480   -8.5780 N.ar      1 ADP301      0.0000 
     25 C2         24.4740   27.8480   -8.4260 C.ar      1 ADP301      0.0000 
     26 N3         23.3310   27.9580   -7.7430 N.ar      1 ADP301      0.0000 
     27 C4         23.2300   29.1580   -7.1630 C.ar      1 ADP301      0.0000 
     28 HOB2       13.9900   33.0000   -3.8670 H         1 ADP301      0.0000 
     29 HOB3       15.8240   33.1770   -1.0270 H         1 ADP301      0.0000 
     30 HOA2       19.0350   32.5370   -1.7180 H         1 ADP301      0.0000 
     31 H5'1       17.2850   30.9110   -4.6170 H         1 ADP301      0.0000 
     32 H5'2       17.6440   31.0520   -6.3560 H         1 ADP301      0.0000 
     33 H4'        18.2960   28.8460   -5.4530 H         1 ADP301      0.0000 
     34 H3'        20.2010   30.5380   -3.7230 H         1 ADP301      0.0000 
     35 HO3'       19.3530   29.5140   -2.1410 H         1 ADP301      0.0000 
     36 H2'        21.8090   28.8180   -3.9970 H         1 ADP301      0.0000 
     37 HO2'       21.3280   26.7620   -4.1800 H         1 ADP301      0.0000 
     38 H1'        20.9350   28.0020   -6.6060 H         1 ADP301      0.0000 
     39 H8         21.9290   31.5400   -5.4050 H         1 ADP301      0.0000 
     40 HN61       27.1200   30.6240   -8.6890 H         1 ADP301      0.0000 
     41 HN62       26.2320   31.7640   -7.6960 H         1 ADP301      0.0000 
     42 H2         24.6470   26.9000   -8.9340 H         1 ADP301      0.0000 
@<TRIPOS>BOND
     1    1    2 ar   
     2    1    3 ar   
     3    1    4 ar   
     4    1    8 1    
     5    3   28 1    
     6    4   29 1    
     7    5    6 ar   
     8    5    7 ar   
     9    5    8 1    
    10    5    9 1    
    11    7   30 1    
    12    9   10 1    
    13   10   11 1    
    14   10   31 1    
    15   10   32 1    
    16   11   12 1    
    17   11   13 1    
    18   11   33 1    
    19   12   17 1    
    20   13   14 1    
    21   13   15 1    
    22   13   34 1    
    23   14   35 1    
    24   15   16 1    
    25   15   17 1    
    26   15   36 1    
    27   16   37 1    
    28   17   18 1    
    29   17   38 1    
    30   18   19 1    
    31   18   27 1    
    32   19   20 2    
    33   19   39 1    
    34   20   21 1    
    35   21   22 ar   
    36   21   27 ar   
    37   22   23 1    
    38   22   24 ar   
    39   23   40 1    
    40   23   41 1    
    41   24   25 ar   
    42   25   26 ar   
    43   25   42 1    
    44   26   27 ar   
@<TRIPOS>SUBSTRUCTURE
     1 ADP301      1 GROUP   
@<TRIPOS>SET
ATOM$ORANGE STATIC     ATOMS   COLORGROUP SYSTEM 
20 10 10 11 11 13 13 15 15 17 17 19 19 21 21 22 22 25 \
25 27 27 

