#    Name: 6pwc_1_ARG_PRO_TYR_ILE_LEU_CAVITY_N1_6
#    Modification time : Fri May 22 19:36:08 2020

@<TRIPOS>MOLECULE
6pwc_1_ARG_PRO_TYR_ILE_LEU_CAVITY_N1_6
   44     0     4     0     0
SMALL
NO_CHARGES


@<TRIPOS>ATOM
      1 OG         94.3800  121.9500  139.6000 O.3       1 SER1        0.0000 
      2 N          93.1800  123.6700  133.5900 N.am      2 ALA2        0.0000 
      3 N          92.7800  125.1100  133.7100 N.am      2 ALA2        0.0000 
      4 CA         92.3900  120.2300  134.6400 C.3       3 GLY6        0.0000 
      5 CA         91.7500  123.2800  133.3900 C.3       3 GLY6        0.0000 
      6 CA         94.0700  119.0100  136.2000 C.3       3 GLY6        0.0000 
      7 CA         93.6700  120.4500  136.3200 C.3       3 GLY6        0.0000 
      8 CA         93.1000  121.7300  137.9200 C.3       3 GLY6        0.0000 
      9 CA         93.2600  121.8900  136.4400 C.3       3 GLY6        0.0000 
     10 CA         92.8600  123.3300  136.5500 C.3       3 GLY6        0.0000 
     11 CA         92.4500  124.7700  136.6700 C.3       3 GLY6        0.0000 
     12 CA         92.6200  124.9400  135.1900 C.3       3 GLY6        0.0000 
     13 CA         95.3500  119.2300  137.8800 C.3       3 GLY6        0.0000 
     14 CA         94.7800  120.5100  139.4800 C.3       3 GLY6        0.0000 
     15 CA         94.9400  120.6700  138.0000 C.3       3 GLY6        0.0000 
     16 CA         94.5400  122.1100  138.1200 C.3       3 GLY6        0.0000 
     17 CA         94.1300  123.5500  138.2300 C.3       3 GLY6        0.0000 
     18 CA         94.2900  123.7200  136.7500 C.3       3 GLY6        0.0000 
     19 CA         94.6200  124.0500  133.7900 C.3       3 GLY6        0.0000 
     20 CA         93.8900  125.1600  136.8700 C.3       3 GLY6        0.0000 
     21 CA         94.0500  125.3300  135.3900 C.3       3 GLY6        0.0000 
     22 CA         94.2100  125.4900  133.9100 C.3       3 GLY6        0.0000 
     23 CA         96.7800  119.6200  138.0800 C.3       3 GLY6        0.0000 
     24 CA         96.2200  120.8900  139.6800 C.3       3 GLY6        0.0000 
     25 CA         96.3800  121.0600  138.2000 C.3       3 GLY6        0.0000 
     26 CA         95.8900  124.2700  135.4700 C.3       3 GLY6        0.0000 
     27 CA         96.0500  124.4400  133.9900 C.3       3 GLY6        0.0000 
     28 CA         95.4900  125.7100  135.5900 C.3       3 GLY6        0.0000 
     29 CA         98.2200  120.0100  138.2800 C.3       3 GLY6        0.0000 
     30 CA         97.4900  124.8300  134.1900 C.3       3 GLY6        0.0000 
     31 DU         93.8300  120.6200  134.8300 H         4 CUB7        0.0000 
     32 DU         93.4300  122.0600  134.9500 H         4 CUB7        0.0000 
     33 DU         93.0200  123.5000  135.0700 H         4 CUB7        0.0000 
     34 DU         95.1000  120.8400  136.5200 H         4 CUB7        0.0000 
     35 DU         94.7000  122.2800  136.6300 H         4 CUB7        0.0000 
     36 DU         94.4600  123.8900  135.2700 H         4 CUB7        0.0000 
     37 DU         96.5400  121.2300  136.7200 H         4 CUB7        0.0000 
     38 DU         95.9700  122.5000  138.3200 H         4 CUB7        0.0000 
     39 DU         96.3000  122.8400  135.3500 H         4 CUB7        0.0000 
     40 DU         95.5700  123.9400  138.4300 H         4 CUB7        0.0000 
     41 DU         95.7300  124.1100  136.9500 H         4 CUB7        0.0000 
     42 DU         97.8100  121.4500  138.4000 H         4 CUB7        0.0000 
     43 DU         97.4100  122.8900  138.5100 H         4 CUB7        0.0000 
     44 DU         97.3300  124.6600  135.6700 H         4 CUB7        0.0000 
@<TRIPOS>BOND
@<TRIPOS>SUBSTRUCTURE
     1 SER1        1 GROUP   
     2 ALA2        2 GROUP   
     3 GLY6        4 GROUP   
     4 CUB7       31 GROUP   
@<TRIPOS>SET

