#    Name: 6pwc_1_ARG_PRO_TYR_ILE_LEU_CAVITY_N1_4
#    Modification time : Fri May 22 19:36:08 2020

@<TRIPOS>MOLECULE
6pwc_1_ARG_PRO_TYR_ILE_LEU_CAVITY_N1_4
   16     0     3     0     0
SMALL
NO_CHARGES


@<TRIPOS>ATOM
      1 N          93.1800  123.6700  133.5900 N.am      1 ALA2        0.0000 
      2 CA         92.3900  120.2300  134.6400 C.3       2 GLY6        0.0000 
      3 CA         94.0700  119.0100  136.2000 C.3       2 GLY6        0.0000 
      4 CA         93.6700  120.4500  136.3200 C.3       2 GLY6        0.0000 
      5 CA         93.2600  121.8900  136.4400 C.3       2 GLY6        0.0000 
      6 CA         95.3500  119.2300  137.8800 C.3       2 GLY6        0.0000 
      7 CA         94.9400  120.6700  138.0000 C.3       2 GLY6        0.0000 
      8 CA         94.6200  124.0500  133.7900 C.3       2 GLY6        0.0000 
      9 CA         96.0500  124.4400  133.9900 C.3       2 GLY6        0.0000 
     10 DU         93.8300  120.6200  134.8300 H         3 CUB7        0.0000 
     11 DU         93.4300  122.0600  134.9500 H         3 CUB7        0.0000 
     12 DU         93.0200  123.5000  135.0700 H         3 CUB7        0.0000 
     13 DU         95.1000  120.8400  136.5200 H         3 CUB7        0.0000 
     14 DU         94.7000  122.2800  136.6300 H         3 CUB7        0.0000 
     15 DU         96.5400  121.2300  136.7200 H         3 CUB7        0.0000 
     16 DU         96.3000  122.8400  135.3500 H         3 CUB7        0.0000 
@<TRIPOS>BOND
@<TRIPOS>SUBSTRUCTURE
     1 ALA2        1 GROUP   
     2 GLY6        2 GROUP   
     3 CUB7       10 GROUP   
@<TRIPOS>SET

