#    Name: 6pwc_1_ARG_PRO_TYR_ILE_LEU
#    Modification time : Fri May 22 19:36:07 2020

@<TRIPOS>MOLECULE
6pwc_1_ARG_PRO_TYR_ILE_LEU
   27    27     5     0     0
SMALL
NO_CHARGES


@<TRIPOS>ATOM
      1 N          86.8830  115.3250  124.2930 N.4       1 ARG9        0.0000 
      2 CA         87.4250  116.2770  125.2540 C.3       1 ARG9        0.0000 
      3 C          88.6650  115.7060  125.9400 C.2       1 ARG9        0.0000 
      4 O          88.7590  114.4950  126.1420 O.2       1 ARG9        0.0000 
      5 CB         86.3620  116.6450  126.2940 C.3       1 ARG9        0.0000 
      6 N          89.6170  116.5690  126.2960 N.am      2 PRO10       0.0000 
      7 CA         90.7740  116.0990  127.0630 C.3       2 PRO10       0.0000 
      8 C          90.4030  115.8180  128.5100 C.2       2 PRO10       0.0000 
      9 O          89.4700  116.4040  129.0640 O.2       2 PRO10       0.0000 
     10 CB         91.7680  117.2610  126.9580 C.3       2 PRO10       0.0000 
     11 CG         90.9140  118.4580  126.7400 C.3       2 PRO10       0.0000 
     12 CD         89.7510  117.9860  125.9130 C.3       2 PRO10       0.0000 
     13 N          91.1550  114.9020  129.1230 N.am      3 TYR11       0.0000 
     14 CA         90.9110  114.5060  130.5010 C.3       3 TYR11       0.0000 
     15 C          91.9430  115.0350  131.4850 C.2       3 TYR11       0.0000 
     16 O          91.6320  115.1470  132.6740 O.2       3 TYR11       0.0000 
     17 CB         90.8600  112.9750  130.6160 C.3       3 TYR11       0.0000 
     18 N          93.1450  115.3690  131.0280 N.am      4 ILE12       0.0000 
     19 CA         94.2070  115.8670  131.8940 C.3       4 ILE12       0.0000 
     20 C          94.2200  117.3860  131.8320 C.2       4 ILE12       0.0000 
     21 O          94.0440  117.9790  130.7600 O.2       4 ILE12       0.0000 
     22 CB         95.5750  115.2850  131.4910 C.3       4 ILE12       0.0000 
     23 N          94.4260  118.0180  132.9820 N.am      5 LEU13       0.0000 
     24 CA         94.4680  119.4730  133.0610 C.3       5 LEU13       0.0000 
     25 C          95.8150  120.0080  132.5870 C.2       5 LEU13       0.0000 
     26 O          95.8840  121.0380  131.9160 O.2       5 LEU13       0.0000 
     27 CB         94.1880  119.9420  134.4900 C.3       5 LEU13       0.0000 
@<TRIPOS>BOND
     1    1    2 1    
     2    2    3 1    
     3    2    5 1    
     4    3    4 2    
     5    3    6 am   
     6    6    7 1    
     7    6   12 1    
     8    7    8 1    
     9    7   10 1    
    10    8    9 2    
    11    8   13 am   
    12   10   11 1    
    13   11   12 1    
    14   13   14 1    
    15   14   15 1    
    16   14   17 1    
    17   15   16 2    
    18   15   18 am   
    19   18   19 1    
    20   19   20 1    
    21   19   22 1    
    22   20   21 2    
    23   20   23 am   
    24   23   24 1    
    25   24   25 1    
    26   24   27 1    
    27   25   26 2    
@<TRIPOS>SUBSTRUCTURE
     1 ARG9        1 RESIDUE 
     2 PRO10       6 RESIDUE 
     3 TYR11      13 RESIDUE 
     4 ILE12      18 RESIDUE 
     5 LEU13      23 RESIDUE 
@<TRIPOS>SET

