#    Name: 6nkp_1_BTN_CAVITY_N1_12
#    Modification time : Fri May 22 19:29:00 2020

@<TRIPOS>MOLECULE
6nkp_1_BTN_CAVITY_N1_12
   96     0     5     0     0
SMALL
NO_CHARGES


@<TRIPOS>ATOM
      1 OG        -27.8500  -17.2100   15.8900 O.3       1 SER1        0.0000 
      2 OG        -26.0000  -16.1700   15.9400 O.3       1 SER1        0.0000 
      3 OG        -25.5900  -19.1500   17.4400 O.3       1 SER1        0.0000 
      4 OG        -26.3100  -17.8500   17.2000 O.3       1 SER1        0.0000 
      5 OG        -27.0300  -16.5600   16.9600 O.3       1 SER1        0.0000 
      6 OG        -25.8000  -18.8800   19.5300 O.3       1 SER1        0.0000 
      7 OG        -24.9800  -18.2300   20.6100 O.3       1 SER1        0.0000 
      8 OG        -26.7300  -17.3100   21.3900 O.3       1 SER1        0.0000 
      9 OG        -27.7600  -17.7000   22.4100 O.3       1 SER1        0.0000 
     10 OG        -21.1800  -20.8100   23.4700 O.3       1 SER1        0.0000 
     11 OG        -18.6200  -21.0700   23.7600 O.3       1 SER1        0.0000 
     12 OG        -19.6500  -21.4500   24.7800 O.3       1 SER1        0.0000 
     13 OG        -20.3600  -20.1500   24.5400 O.3       1 SER1        0.0000 
     14 OG        -20.6800  -21.8300   25.8000 O.3       1 SER1        0.0000 
     15 OG        -19.8500  -21.1800   26.8700 O.3       1 SER1        0.0000 
     16 OG        -20.8800  -21.5600   27.8900 O.3       1 SER1        0.0000 
     17 OG        -18.3200  -21.8200   28.1800 O.3       1 SER1        0.0000 
     18 OG        -19.0300  -20.5300   27.9500 O.3       1 SER1        0.0000 
     19 OG        -17.5000  -21.1700   29.2600 O.3       1 SER1        0.0000 
     20 OG        -18.2100  -19.8800   29.0200 O.3       1 SER1        0.0000 
     21 N         -26.7200  -14.8800   15.7100 N.am      2 ALA2        0.0000 
     22 N         -27.7500  -15.2600   16.7300 N.am      2 ALA2        0.0000 
     23 N         -28.4600  -13.9700   16.4900 N.am      2 ALA2        0.0000 
     24 O         -25.8900  -14.2300   16.7800 O.2       2 ALA2        0.0000 
     25 N         -24.7700  -18.5000   18.5100 N.am      2 ALA2        0.0000 
     26 N         -26.2100  -15.9000   18.0400 N.am      2 ALA2        0.0000 
     27 N         -26.9200  -14.6100   17.8000 N.am      2 ALA2        0.0000 
     28 N         -27.2400  -16.2900   19.0600 N.am      2 ALA2        0.0000 
     29 N         -22.9200  -17.4600   18.5700 N.am      2 ALA2        0.0000 
     30 N         -24.6700  -16.5500   19.3500 N.am      2 ALA2        0.0000 
     31 N         -25.7000  -16.9300   20.3700 N.am      2 ALA2        0.0000 
     32 N         -26.4200  -15.6400   20.1300 N.am      2 ALA2        0.0000 
     33 N         -27.4500  -16.0200   21.1500 N.am      2 ALA2        0.0000 
     34 N         -21.3900  -20.5400   25.5600 N.am      2 ALA2        0.0000 
     35 N         -22.1100  -19.2400   25.3200 N.am      2 ALA2        0.0000 
     36 N         -23.8600  -18.3300   26.1100 N.am      2 ALA2        0.0000 
     37 N         -17.8000  -20.4100   24.8300 N.am      2 ALA2        0.0000 
     38 N         -18.5100  -19.1200   24.5900 N.am      2 ALA2        0.0000 
     39 N         -19.5400  -19.5000   25.6100 N.am      2 ALA2        0.0000 
     40 N         -20.5700  -19.8800   26.6300 N.am      2 ALA2        0.0000 
     41 N         -21.2900  -18.5900   26.4000 N.am      2 ALA2        0.0000 
     42 N         -16.9700  -19.7600   25.9000 N.am      2 ALA2        0.0000 
     43 N         -18.0000  -20.1400   26.9200 N.am      2 ALA2        0.0000 
     44 N         -18.7200  -18.8500   26.6900 N.am      2 ALA2        0.0000 
     45 N         -15.4400  -20.4000   27.2100 N.am      2 ALA2        0.0000 
     46 N         -16.4700  -20.7900   28.2400 N.am      2 ALA2        0.0000 
     47 N         -17.1800  -19.4900   28.0000 N.am      2 ALA2        0.0000 
     48 N         -16.6700  -20.5200   30.3300 N.am      2 ALA2        0.0000 
     49 CZ        -23.2300  -19.1400   19.8200 C.ar      3 PHE5        0.0000 
     50 CZ        -24.2600  -19.5200   20.8500 C.ar      3 PHE5        0.0000 
     51 CZ        -22.7200  -20.1600   22.1600 C.ar      3 PHE5        0.0000 
     52 CZ        -23.7500  -20.5500   23.1800 C.ar      3 PHE5        0.0000 
     53 CZ        -24.4700  -19.2500   22.9400 C.ar      3 PHE5        0.0000 
     54 CZ        -25.1900  -17.9600   22.7000 C.ar      3 PHE5        0.0000 
     55 CZ        -20.1500  -20.4200   22.4500 C.ar      3 PHE5        0.0000 
     56 CZ        -20.8700  -19.1300   22.2100 C.ar      3 PHE5        0.0000 
     57 CZ        -22.9300  -19.8900   24.2500 C.ar      3 PHE5        0.0000 
     58 CZ        -23.6500  -18.6000   24.0100 C.ar      3 PHE5        0.0000 
     59 CZ        -25.4000  -17.6900   24.7900 C.ar      3 PHE5        0.0000 
     60 CA        -24.4600  -16.8200   17.2500 C.3       4 GLY6        0.0000 
     61 CA        -25.1800  -15.5200   17.0200 C.3       4 GLY6        0.0000 
     62 CA        -24.0500  -19.7900   18.7500 C.3       4 GLY6        0.0000 
     63 CA        -25.0800  -20.1700   19.7700 C.3       4 GLY6        0.0000 
     64 CA        -22.1000  -16.8100   19.6400 C.3       4 GLY6        0.0000 
     65 CA        -23.8500  -15.9000   20.4200 C.3       4 GLY6        0.0000 
     66 CA        -24.1600  -17.5700   21.6800 C.3       4 GLY6        0.0000 
     67 CA        -24.8800  -16.2800   21.4400 C.3       4 GLY6        0.0000 
     68 CA        -25.9100  -16.6600   22.4600 C.3       4 GLY6        0.0000 
     69 CA        -21.5900  -17.8300   21.9700 C.3       4 GLY6        0.0000 
     70 CA        -22.3100  -16.5400   21.7300 C.3       4 GLY6        0.0000 
     71 CA        -23.3400  -16.9200   22.7500 C.3       4 GLY6        0.0000 
     72 CA        -22.2100  -21.1900   24.4900 C.3       4 GLY6        0.0000 
     73 CA        -24.3700  -17.3000   23.7700 C.3       4 GLY6        0.0000 
     74 CA        -18.3000  -19.3900   22.5000 C.3       4 GLY6        0.0000 
     75 CA        -19.3300  -19.7700   23.5200 C.3       4 GLY6        0.0000 
     76 CA        -20.7700  -17.1800   23.0400 C.3       4 GLY6        0.0000 
     77 CA        -21.8000  -17.5600   24.0600 C.3       4 GLY6        0.0000 
     78 CA        -22.8300  -17.9500   25.0900 C.3       4 GLY6        0.0000 
     79 CA        -23.5500  -16.6500   24.8500 C.3       4 GLY6        0.0000 
     80 CA        -21.7100  -22.2200   26.8200 C.3       4 GLY6        0.0000 
     81 CA        -22.4200  -20.9200   26.5800 C.3       4 GLY6        0.0000 
     82 CA        -20.2600  -18.2100   25.3800 C.3       4 GLY6        0.0000 
     83 CA        -19.7500  -19.2300   27.7100 C.3       4 GLY6        0.0000 
     84 CA        -17.9000  -18.2000   27.7600 C.3       4 GLY6        0.0000 
     85 DU        -25.4900  -17.2000   18.2800 H         5 CUB7        0.0000 
     86 DU        -26.5200  -17.5800   19.3000 H         5 CUB7        0.0000 
     87 DU        -23.9500  -17.8400   19.5900 H         5 CUB7        0.0000 
     88 DU        -28.4800  -16.4000   22.1700 H         5 CUB7        0.0000 
     89 DU        -22.4100  -18.4900   20.9000 H         5 CUB7        0.0000 
     90 DU        -23.1300  -17.1900   20.6600 H         5 CUB7        0.0000 
     91 DU        -23.4400  -18.8700   21.9200 H         5 CUB7        0.0000 
     92 DU        -21.9000  -19.5100   23.2300 H         5 CUB7        0.0000 
     93 DU        -22.6200  -18.2200   22.9900 H         5 CUB7        0.0000 
     94 DU        -21.0800  -18.8600   24.3000 H         5 CUB7        0.0000 
     95 DU        -18.8200  -20.8000   25.8500 H         5 CUB7        0.0000 
     96 DU        -17.2900  -21.4400   27.1600 H         5 CUB7        0.0000 
@<TRIPOS>BOND
@<TRIPOS>SUBSTRUCTURE
     1 SER1        1 GROUP   
     2 ALA2       21 GROUP   
     3 PHE5       49 GROUP   
     4 GLY6       60 GROUP   
     5 CUB7       85 GROUP   
@<TRIPOS>SET

