#    Name: 6nkp_1_BTN
#    Modification time : Fri May 22 19:28:59 2020

@<TRIPOS>MOLECULE
6nkp_1_BTN
   30    31     1     0     0
SMALL
NO_CHARGES


@<TRIPOS>ATOM
      1 C11       -16.9960  -19.9550   27.8910 C.2       1 BTN14       0.0000 
      2 O11       -15.7460  -19.9060   27.9700 O.co2     1 BTN14       0.0000 
      3 C10       -17.6310  -20.2390   26.5520 C.3       1 BTN14       0.0000 
      4 C9        -19.0830  -19.7670   26.5140 C.3       1 BTN14       0.0000 
      5 C8        -19.6200  -19.8350   25.0850 C.3       1 BTN14       0.0000 
      6 C7        -21.0840  -19.4290   25.0280 C.3       1 BTN14       0.0000 
      7 C2        -21.7040  -19.6350   23.6400 C.3       1 BTN14       0.0000 
      8 S1        -21.1460  -18.5270   22.5100 S.3       1 BTN14       0.0000 
      9 C6        -22.7450  -18.2130   21.7340 C.3       1 BTN14       0.0000 
     10 C5        -23.8290  -18.7250   22.6610 C.3       1 BTN14       0.0000 
     11 N1        -24.5080  -17.6850   23.4110 N.am      1 BTN14       0.0000 
     12 C3        -24.3670  -17.8270   24.7260 C.2       1 BTN14       0.0000 
     13 O3        -24.9850  -17.0120   25.6780 O.2       1 BTN14       0.0000 
     14 N2        -23.5830  -18.8550   24.9980 N.am      1 BTN14       0.0000 
     15 C4        -23.2080  -19.5510   23.7770 C.3       1 BTN14       0.0000 
     16 H101      -17.5930  -21.3110   26.3540 H         1 BTN14       0.0000 
     17 H102      -17.0660  -19.7340   25.7690 H         1 BTN14       0.0000 
     18 H91       -19.1470  -18.7430   26.8820 H         1 BTN14       0.0000 
     19 H92       -19.6910  -20.3960   27.1650 H         1 BTN14       0.0000 
     20 H81       -19.0350  -19.1730   24.4460 H         1 BTN14       0.0000 
     21 H82       -19.5100  -20.8500   24.7040 H         1 BTN14       0.0000 
     22 H71       -21.1720  -18.3790   25.3040 H         1 BTN14       0.0000 
     23 H72       -21.6430  -20.0150   25.7570 H         1 BTN14       0.0000 
     24 H2        -21.4050  -20.6140   23.2640 H         1 BTN14       0.0000 
     25 H61       -22.8750  -17.1450   21.5590 H         1 BTN14       0.0000 
     26 H62       -22.8020  -18.7200   20.7710 H         1 BTN14       0.0000 
     27 H5        -24.5170  -19.2520   21.9990 H         1 BTN14       0.0000 
     28 HN1       -25.0130  -16.9620   22.9850 H         1 BTN14       0.0000 
     29 HN2       -23.2880  -19.1210   25.8940 H         1 BTN14       0.0000 
     30 H4        -23.5620  -20.5820   23.7700 H         1 BTN14       0.0000 
@<TRIPOS>BOND
     1    1    2 ar   
     2    1    3 1    
     3    3    4 1    
     4    3   16 1    
     5    3   17 1    
     6    4    5 1    
     7    4   18 1    
     8    4   19 1    
     9    5    6 1    
    10    5   20 1    
    11    5   21 1    
    12    6    7 1    
    13    6   22 1    
    14    6   23 1    
    15    7    8 1    
    16    7   15 1    
    17    7   24 1    
    18    8    9 1    
    19    9   10 1    
    20    9   25 1    
    21    9   26 1    
    22   10   11 1    
    23   10   15 1    
    24   10   27 1    
    25   11   12 am   
    26   11   28 1    
    27   12   13 2    
    28   12   14 am   
    29   14   15 1    
    30   14   29 1    
    31   15   30 1    
@<TRIPOS>SUBSTRUCTURE
     1 BTN14       1 GROUP   
@<TRIPOS>SET

