#    Name: 6hgf_1_HCY
#    Modification time : Fri May 22 19:37:42 2020

@<TRIPOS>MOLECULE
6hgf_1_HCY
   26    29     1     0     0
SMALL
NO_CHARGES


@<TRIPOS>ATOM
      1 C1        -41.1600  -16.3850    8.8390 C.3       1 HCY501      0.0000 
      2 C2        -41.2540  -16.7180   10.3160 C.3       1 HCY501      0.0000 
      3 C3        -39.9930  -17.3940   10.7890 C.2       1 HCY501      0.0000 
      4 C4        -38.7440  -17.0070   10.1390 C.2       1 HCY501      0.0000 
      5 C5        -38.6870  -16.1270    9.1430 C.2       1 HCY501      0.0000 
      6 C6        -37.3730  -15.5360    8.7400 C.3       1 HCY501      0.0000 
      7 C7        -37.1260  -15.7690    7.2380 C.3       1 HCY501      0.0000 
      8 C8        -38.3070  -15.2260    6.4400 C.3       1 HCY501      0.0000 
      9 C9        -39.6340  -15.8970    6.8870 C.3       1 HCY501      0.0000 
     10 C10       -39.8960  -15.6450    8.4080 C.3       1 HCY501      0.0000 
     11 C12       -40.5360  -15.7700    4.4650 C.3       1 HCY501      0.0000 
     12 C11       -40.8950  -15.6310    5.9530 C.3       1 HCY501      0.0000 
     13 C13       -39.2980  -14.9560    4.1040 C.3       1 HCY501      0.0000 
     14 C14       -38.1000  -15.4680    4.9470 C.3       1 HCY501      0.0000 
     15 C15       -36.9120  -14.7330    4.2990 C.3       1 HCY501      0.0000 
     16 C16       -37.2950  -14.6390    2.8000 C.3       1 HCY501      0.0000 
     17 C17       -38.7290  -15.1920    2.6770 C.3       1 HCY501      0.0000 
     18 C18       -39.4980  -13.4140    4.2590 C.3       1 HCY501      0.0000 
     19 C19       -40.0480  -14.1450    8.7840 C.3       1 HCY501      0.0000 
     20 C20       -39.5620  -14.4460    1.5880 C.2       1 HCY501      0.0000 
     21 C21       -40.7550  -15.1980    0.9800 C.3       1 HCY501      0.0000 
     22 O1        -40.0190  -18.2310   11.6740 O.2       1 HCY501      0.0000 
     23 O2        -41.5550  -14.4200    6.2280 O.3       1 HCY501      0.0000 
     24 O3        -38.7390  -16.5840    2.4430 O.3       1 HCY501      0.0000 
     25 O4        -39.2830  -13.3200    1.2060 O.2       1 HCY501      0.0000 
     26 O5        -41.5760  -14.2030    0.4010 O.3       1 HCY501      0.0000 
@<TRIPOS>BOND
     1    1    2 1    
     2    1   10 1    
     3    2    3 1    
     4    3    4 1    
     5    3   22 2    
     6    4    5 2    
     7    5    6 1    
     8    5   10 1    
     9    6    7 1    
    10    7    8 1    
    11    8    9 1    
    12    8   14 1    
    13    9   10 1    
    14    9   12 1    
    15   10   19 1    
    16   11   12 1    
    17   11   13 1    
    18   12   23 1    
    19   13   14 1    
    20   13   17 1    
    21   13   18 1    
    22   14   15 1    
    23   15   16 1    
    24   16   17 1    
    25   17   20 1    
    26   17   24 1    
    27   20   21 1    
    28   20   25 2    
    29   21   26 1    
@<TRIPOS>SUBSTRUCTURE
     1 HCY501      1 GROUP   
@<TRIPOS>SET

