#    Name: 6eg5_5_ACP
#    Modification time : Fri May 22 19:24:01 2020

@<TRIPOS>MOLECULE
6eg5_5_ACP
   31    33     1     0     1
SMALL
NO_CHARGES


@<TRIPOS>ATOM
      1 PG          8.3570   49.7330   93.7810 P.3       1 ACP703      0.0000 
      2 O1G         7.2560   49.0070   92.8560 O.co2     1 ACP703      0.0000 
      3 O2G         9.1830   50.8330   92.9430 O.co2     1 ACP703      0.0000 
      4 O3G         7.6460   50.3770   94.9050 O.co2     1 ACP703      0.0000 
      5 PB         10.7540   49.3590   95.4830 P.3       1 ACP703      0.0000 
      6 O1B        11.6030   50.3980   94.5860 O.co2     1 ACP703      0.0000 
      7 O2B        11.6810   48.3320   96.0090 O.co2     1 ACP703      0.0000 
      8 C3B         9.5420   48.5200   94.4230 C.3       1 ACP703      0.0000 
      9 PA         10.6750   50.8420   97.9860 P.3       1 ACP703      0.0000 
     10 O1A        12.1700   50.6470   97.9040 O.co2     1 ACP703      0.0000 
     11 O2A        10.1330   52.2430   98.1380 O.co2     1 ACP703      0.0000 
     12 O3A         9.9860   50.1400   96.6890 O.3       1 ACP703      0.0000 
     13 O5'        10.1280   49.9860   99.2450 O.3       1 ACP703      0.0000 
     14 C5'         8.7160   49.9120   99.4250 C.3       1 ACP703      0.0000 
     15 C4'         8.2550   49.0870  100.6290 C.3       1 ACP703      0.0000 
     16 O4'         8.9920   49.2960  101.8400 O.3       1 ACP703      0.0000 
     17 C3'         6.7960   49.4190  100.9150 C.3       1 ACP703      0.0000 
     18 O3'         5.9750   48.3390  100.4700 O.3       1 ACP703      0.0000 
     19 C2'         6.6980   49.6740  102.4050 C.3       1 ACP703      0.0000 
     20 O2'         5.9500   48.6420  103.0570 O.3       1 ACP703      0.0000 
     21 C1'         8.1320   49.7120  102.9100 C.3       1 ACP703      0.0000 
     22 N9          8.5450   51.0790  103.2940 N.pl3     1 ACP703      0.0000 
     23 C8          9.1440   51.9200  102.4470 C.2       1 ACP703      0.0000 
     24 N7          9.4450   53.1010  103.0380 N.2       1 ACP703      0.0000 
     25 C5          9.0150   53.0370  104.2990 C.ar      1 ACP703      0.0000 
     26 C6          9.0180   53.9610  105.4580 C.ar      1 ACP703      0.0000 
     27 N6          9.5520   55.2040  105.3520 N.pl3     1 ACP703      0.0000 
     28 N1          8.4650   53.5100  106.6110 N.ar      1 ACP703      0.0000 
     29 C2          7.9290   52.2730  106.7090 C.ar      1 ACP703      0.0000 
     30 N3          7.9030   51.3940  105.6820 N.ar      1 ACP703      0.0000 
     31 C4          8.4190   51.7010  104.4690 C.ar      1 ACP703      0.0000 
@<TRIPOS>BOND
     1    1    2 ar   
     2    1    3 ar   
     3    1    4 ar   
     4    1    8 1    
     5    5    6 ar   
     6    5    7 ar   
     7    5    8 1    
     8    5   12 1    
     9    9   10 ar   
    10    9   11 ar   
    11    9   12 1    
    12    9   13 1    
    13   13   14 1    
    14   14   15 1    
    15   15   16 1    
    16   15   17 1    
    17   16   21 1    
    18   17   18 1    
    19   17   19 1    
    20   19   20 1    
    21   19   21 1    
    22   21   22 1    
    23   22   23 1    
    24   22   31 1    
    25   23   24 2    
    26   24   25 1    
    27   25   26 ar   
    28   25   31 ar   
    29   26   27 1    
    30   26   28 ar   
    31   28   29 ar   
    32   29   30 ar   
    33   30   31 ar   
@<TRIPOS>SUBSTRUCTURE
     1 ACP703      1 GROUP   
@<TRIPOS>SET
ATOM$ORANGE STATIC     ATOMS   COLORGROUP SYSTEM 
22 8 8 14 14 15 15 17 17 19 19 21 21 23 23 25 25 26 \
26 29 29 31 31 

