#    Name: 6eg5_4_GTP_CAVITY_N1_12
#    Modification time : Fri May 22 19:23:57 2020

@<TRIPOS>MOLECULE
6eg5_4_GTP_CAVITY_N1_12
   75     0     7     0     0
SMALL
NO_CHARGES


@<TRIPOS>ATOM
      1 OG         18.3300  -13.2900  -45.0200 O.3       1 SER1        0.0000 
      2 OG         20.2600  -15.8100  -43.9400 O.3       1 SER1        0.0000 
      3 OG         18.9400  -15.1300  -44.1500 O.3       1 SER1        0.0000 
      4 OG         19.5600  -16.9700  -43.2800 O.3       1 SER1        0.0000 
      5 OG         18.2400  -16.2800  -43.5000 O.3       1 SER1        0.0000 
      6 OG         18.4600  -12.6200  -43.6800 O.3       1 SER1        0.0000 
      7 OG         21.7100  -15.8200  -42.3900 O.3       1 SER1        0.0000 
      8 OG         20.3900  -15.1400  -42.6000 O.3       1 SER1        0.0000 
      9 OG         19.0700  -14.4600  -42.8200 O.3       1 SER1        0.0000 
     10 OG         18.3700  -15.6100  -42.1600 O.3       1 SER1        0.0000 
     11 OG         18.5900  -11.9500  -42.3500 O.3       1 SER1        0.0000 
     12 OG         19.2000  -13.7800  -41.4800 O.3       1 SER1        0.0000 
     13 OG         17.8900  -13.1000  -41.7000 O.3       1 SER1        0.0000 
     14 OG         20.7400  -10.8000  -41.4500 O.3       1 SER1        0.0000 
     15 OG         20.0400  -11.9600  -40.8000 O.3       1 SER1        0.0000 
     16 OG         19.4700  -12.4400  -38.8100 O.3       1 SER1        0.0000 
     17 O          26.9000  -13.9200  -47.2300 O.2       2 ALA2        0.0000 
     18 N          26.1900  -15.0700  -46.5800 N.am      2 ALA2        0.0000 
     19 N          24.8800  -14.3900  -46.7900 N.am      2 ALA2        0.0000 
     20 O          27.7300  -12.0900  -46.5500 O.2       2 ALA2        0.0000 
     21 O          27.0300  -13.2500  -45.9000 O.2       2 ALA2        0.0000 
     22 N          21.6700  -13.5100  -45.2400 N.am      2 ALA2        0.0000 
     23 N          20.9600  -14.6600  -44.5900 N.am      2 ALA2        0.0000 
     24 N          19.6400  -13.9800  -44.8000 N.am      2 ALA2        0.0000 
     25 O          21.5800  -16.5000  -43.7200 O.2       2 ALA2        0.0000 
     26 N          22.5000  -11.6800  -44.5600 N.am      2 ALA2        0.0000 
     27 N          23.1200  -13.5200  -43.6900 N.am      2 ALA2        0.0000 
     28 N          21.8000  -12.8300  -43.9000 N.am      2 ALA2        0.0000 
     29 N          22.4100  -14.6700  -43.0400 N.am      2 ALA2        0.0000 
     30 N          19.7800  -13.3000  -43.4700 N.am      2 ALA2        0.0000 
     31 O          25.9700  -11.2200  -43.4400 O.2       2 ALA2        0.0000 
     32 O          23.3400   -9.8500  -43.8700 O.2       2 ALA2        0.0000 
     33 N          20.6100  -11.4800  -42.7900 N.am      2 ALA2        0.0000 
     34 N          19.2900  -10.7900  -43.0000 N.am      2 ALA2        0.0000 
     35 O          26.1100  -10.5500  -42.1100 O.2       2 ALA2        0.0000 
     36 O          24.7900   -9.8600  -42.3200 O.2       2 ALA2        0.0000 
     37 O          23.4700   -9.1800  -42.5400 O.2       2 ALA2        0.0000 
     38 O          21.4500   -9.6500  -42.1000 O.2       2 ALA2        0.0000 
     39 O          21.3600  -12.6400  -40.5900 O.2       2 ALA2        0.0000 
     40 O          18.0200  -12.4300  -40.3600 O.2       2 ALA2        0.0000 
     41 O          17.3100  -13.5800  -39.7100 O.2       2 ALA2        0.0000 
     42 O          18.1500  -11.7500  -39.0300 O.2       2 ALA2        0.0000 
     43 O          18.7600  -13.5900  -38.1600 O.2       2 ALA2        0.0000 
     44 OD1        23.5600  -13.7100  -47.0100 O.co2     3 ASP3        0.0000 
     45 OD1        25.7100  -12.5700  -46.1100 O.co2     3 ASP3        0.0000 
     46 OD1        23.6900  -13.0400  -45.6800 O.co2     3 ASP3        0.0000 
     47 OD1        26.5500  -10.7400  -45.4300 O.co2     3 ASP3        0.0000 
     48 OD1        25.8400  -11.8900  -44.7800 O.co2     3 ASP3        0.0000 
     49 OD1        23.8200  -12.3600  -44.3400 O.co2     3 ASP3        0.0000 
     50 OD1        25.3600   -9.3800  -44.3100 O.co2     3 ASP3        0.0000 
     51 OD1        24.6600  -10.5400  -43.6600 O.co2     3 ASP3        0.0000 
     52 NZ         25.5800  -13.2400  -47.4500 N.4       4 LYS4        0.0000 
     53 NZ         20.5200  -14.4700  -41.2700 N.4       4 LYS4        0.0000 
     54 NZ         20.6500  -13.7900  -39.9300 N.4       4 LYS4        0.0000 
     55 NZ         20.0800  -14.2700  -37.9500 N.4       4 LYS4        0.0000 
     56 CZ         16.7000  -11.7400  -40.5800 C.ar      5 PHE5        0.0000 
     57 CA         25.2700  -12.3700  -42.7900 C.3       6 GLY6        0.0000 
     58 CA         23.9500  -11.6900  -43.0100 C.3       6 GLY6        0.0000 
     59 CA         22.6300  -11.0100  -43.2200 C.3       6 GLY6        0.0000 
     60 CA         21.3200  -10.3200  -43.4400 C.3       6 GLY6        0.0000 
     61 CA         23.2500  -12.8400  -42.3600 C.3       6 GLY6        0.0000 
     62 CA         22.5400  -14.0000  -41.7000 C.3       6 GLY6        0.0000 
     63 CA         18.5000  -14.9400  -40.8300 C.3       6 GLY6        0.0000 
     64 CA         24.0800  -11.0200  -41.6700 C.3       6 GLY6        0.0000 
     65 CA         22.7700  -10.3300  -41.8900 C.3       6 GLY6        0.0000 
     66 CA         22.0600  -11.4900  -41.2400 C.3       6 GLY6        0.0000 
     67 CA         18.6300  -14.2600  -39.5000 C.3       6 GLY6        0.0000 
     68 CA         17.9300  -15.4200  -38.8500 C.3       6 GLY6        0.0000 
     69 CA         21.4900  -11.9700  -39.2500 C.3       6 GLY6        0.0000 
     70 CA         20.7900  -13.1200  -38.6000 C.3       6 GLY6        0.0000 
     71 DU         21.0900  -13.9900  -43.2500 H         7 CUB7        0.0000 
     72 DU         21.9300  -12.1600  -42.5700 H         7 CUB7        0.0000 
     73 DU         21.2300  -13.3100  -41.9200 H         7 CUB7        0.0000 
     74 DU         19.9100  -12.6300  -42.1300 H         7 CUB7        0.0000 
     75 DU         19.3400  -13.1100  -40.1500 H         7 CUB7        0.0000 
@<TRIPOS>BOND
@<TRIPOS>SUBSTRUCTURE
     1 SER1        1 GROUP   
     2 ALA2       17 GROUP   
     3 ASP3       44 GROUP   
     4 LYS4       52 GROUP   
     5 PHE5       56 GROUP   
     6 GLY6       57 GROUP   
     7 CUB7       71 GROUP   
@<TRIPOS>SET

