#    Name: 6eg5_4_GTP
#    Modification time : Fri May 22 19:23:56 2020

@<TRIPOS>MOLECULE
6eg5_4_GTP
   32    34     1     0     1
SMALL
NO_CHARGES


@<TRIPOS>ATOM
      1 PG         26.7510  -11.6900  -45.1810 P.3       1 GTP601      0.0000 
      2 O1G        26.2650  -12.0680  -46.5660 O.co2     1 GTP601      0.0000 
      3 O2G        26.7160  -12.8010  -44.1550 O.co2     1 GTP601      0.0000 
      4 O3G        28.0700  -10.9530  -45.1360 O.co2     1 GTP601      0.0000 
      5 O3B        25.6370  -10.5850  -44.7840 O.3       1 GTP601      0.0000 
      6 PB         25.2080  -10.2860  -43.2610 P.3       1 GTP601      0.0000 
      7 O1B        24.6450   -8.9010  -43.3260 O.co2     1 GTP601      0.0000 
      8 O2B        26.3930  -10.6570  -42.3970 O.co2     1 GTP601      0.0000 
      9 O3A        24.0590  -11.3980  -42.9620 O.3       1 GTP601      0.0000 
     10 PA         22.7050  -11.0940  -42.1650 P.3       1 GTP601      0.0000 
     11 O1A        21.8440  -10.1660  -42.9680 O.co2     1 GTP601      0.0000 
     12 O2A        23.2090  -10.6610  -40.8100 O.co2     1 GTP601      0.0000 
     13 O5'        21.9110  -12.4780  -41.9580 O.3       1 GTP601      0.0000 
     14 C5'        21.8910  -13.2530  -40.7450 C.3       1 GTP601      0.0000 
     15 C4'        20.6160  -13.0500  -39.9240 C.3       1 GTP601      0.0000 
     16 O4'        19.9390  -11.9040  -40.4100 O.3       1 GTP601      0.0000 
     17 C3'        19.5800  -14.1720  -39.9670 C.3       1 GTP601      0.0000 
     18 O3'        19.3570  -14.7080  -38.6540 O.3       1 GTP601      0.0000 
     19 C2'        18.3130  -13.5600  -40.5370 C.3       1 GTP601      0.0000 
     20 O2'        17.1370  -14.0740  -39.9020 O.3       1 GTP601      0.0000 
     21 C1'        18.5320  -12.0860  -40.2930 C.3       1 GTP601      0.0000 
     22 N9         17.9230  -11.1500  -41.2570 N.pl3     1 GTP601      0.0000 
     23 C8         18.3540  -10.8880  -42.5090 C.2       1 GTP601      0.0000 
     24 N7         17.5790   -9.9300  -43.0950 N.2       1 GTP601      0.0000 
     25 C5         16.6450   -9.5700  -42.2090 C.2       1 GTP601      0.0000 
     26 C6         15.5160   -8.6180  -42.1740 C.2       1 GTP601      0.0000 
     27 O6         15.2460   -7.9000  -43.1670 O.2       1 GTP601      0.0000 
     28 N1         14.7840   -8.5430  -41.0390 N.am      1 GTP601      0.0000 
     29 C2         15.0380   -9.2890  -39.9460 C.2       1 GTP601      0.0000 
     30 N2         14.2340   -9.1260  -38.8680 N.pl3     1 GTP601      0.0000 
     31 N3         16.0640  -10.1930  -39.8960 N.2       1 GTP601      0.0000 
     32 C4         16.8780  -10.3720  -40.9860 C.2       1 GTP601      0.0000 
@<TRIPOS>BOND
     1    1    2 ar   
     2    1    3 ar   
     3    1    4 ar   
     4    1    5 1    
     5    5    6 1    
     6    6    7 ar   
     7    6    8 ar   
     8    6    9 1    
     9    9   10 1    
    10   10   11 ar   
    11   10   12 ar   
    12   10   13 1    
    13   13   14 1    
    14   14   15 1    
    15   15   16 1    
    16   15   17 1    
    17   16   21 1    
    18   17   18 1    
    19   17   19 1    
    20   19   20 1    
    21   19   21 1    
    22   21   22 1    
    23   22   23 1    
    24   22   32 1    
    25   23   24 2    
    26   24   25 1    
    27   25   26 1    
    28   25   32 2    
    29   26   27 2    
    30   26   28 am   
    31   28   29 1    
    32   29   30 1    
    33   29   31 2    
    34   31   32 1    
@<TRIPOS>SUBSTRUCTURE
     1 GTP601      1 GROUP   
@<TRIPOS>SET
ATOM$ORANGE STATIC     ATOMS   COLORGROUP SYSTEM 
20 14 14 15 15 17 17 19 19 21 21 23 23 25 25 26 26 29 \
29 32 32 

