#    Name: 6h1t_2_CL6
#    Modification time : Fri May 22 19:25:08 2020

@<TRIPOS>MOLECULE
6h1t_2_CL6
   25    28     1     0     0
SMALL
NO_CHARGES


@<TRIPOS>ATOM
      1 CLAY       74.4710  -32.6750   55.7720 Cl        1 CL6502      0.0000 
      2 CAX        72.9740  -32.2300   56.6110 C.ar      1 CL6502      0.0000 
      3 CAV        72.4950  -33.1060   57.6010 C.ar      1 CL6502      0.0000 
      4 CAT        71.3440  -32.7880   58.3320 C.ar      1 CL6502      0.0000 
      5 CAS        70.6560  -31.6330   58.0310 C.ar      1 CL6502      0.0000 
      6 CAU        71.1260  -30.7530   57.0280 C.ar      1 CL6502      0.0000 
      7 CAW        72.2810  -30.9780   56.2570 C.ar      1 CL6502      0.0000 
      8 CAR        72.7850  -29.9240   55.2190 C.3       1 CL6502      0.0000 
      9 CAC        74.1860  -29.5110   55.6830 C.ar      1 CL6502      0.0000 
     10 CAE        75.2260  -29.2870   54.8040 C.ar      1 CL6502      0.0000 
     11 CAF        76.5150  -28.9400   55.2970 C.ar      1 CL6502      0.0000 
     12 CAD        76.8090  -28.8260   56.6610 C.ar      1 CL6502      0.0000 
     13 CAB        75.7730  -29.0970   57.5630 C.ar      1 CL6502      0.0000 
     14 CAA        74.4980  -29.4220   57.0720 C.ar      1 CL6502      0.0000 
     15 NAO        71.8780  -28.7060   55.2590 N.pl3     1 CL6502      0.0000 
     16 CAM        70.7770  -28.5590   54.5180 C.2       1 CL6502      0.0000 
     17 NAN        70.1690  -27.3700   54.8500 N.2       1 CL6502      0.0000 
     18 CAQ        71.0060  -26.8130   55.8090 C.2       1 CL6502      0.0000 
     19 CAP        72.0420  -27.6590   56.0740 C.2       1 CL6502      0.0000 
     20 CAL        72.8040  -30.5030   53.7880 C.ar      1 CL6502      0.0000 
     21 CAK        73.0820  -29.6720   52.6800 C.ar      1 CL6502      0.0000 
     22 CAI        73.1170  -30.1350   51.3640 C.ar      1 CL6502      0.0000 
     23 CAG        72.8540  -31.4980   51.1080 C.ar      1 CL6502      0.0000 
     24 CAH        72.5440  -32.3200   52.1810 C.ar      1 CL6502      0.0000 
     25 CAJ        72.5480  -31.8660   53.4980 C.ar      1 CL6502      0.0000 
@<TRIPOS>BOND
     1    1    2 1    
     2    2    3 ar   
     3    2    7 ar   
     4    3    4 ar   
     5    4    5 ar   
     6    5    6 ar   
     7    6    7 ar   
     8    7    8 1    
     9    8    9 1    
    10    8   15 1    
    11    8   20 1    
    12    9   10 ar   
    13    9   14 ar   
    14   10   11 ar   
    15   11   12 ar   
    16   12   13 ar   
    17   13   14 ar   
    18   15   16 1    
    19   15   19 1    
    20   16   17 2    
    21   17   18 1    
    22   18   19 2    
    23   20   21 ar   
    24   20   25 ar   
    25   21   22 ar   
    26   22   23 ar   
    27   23   24 ar   
    28   24   25 ar   
@<TRIPOS>SUBSTRUCTURE
     1 CL6502      1 GROUP   
@<TRIPOS>SET

