#    Name: 6h1t_3_CL6
#    Modification time : Fri May 22 19:25:17 2020

@<TRIPOS>MOLECULE
6h1t_3_CL6
   25    28     1     0     0
SMALL
NO_CHARGES


@<TRIPOS>ATOM
      1 CLAY       59.2100  -18.4400    7.7600 Cl        1 CL6502      0.0000 
      2 CAX        58.7140  -19.8030    8.7900 C.ar      1 CL6502      0.0000 
      3 CAV        59.4940  -20.0880    9.8840 C.ar      1 CL6502      0.0000 
      4 CAT        59.1140  -21.1200   10.7170 C.ar      1 CL6502      0.0000 
      5 CAS        57.9770  -21.8300   10.4240 C.ar      1 CL6502      0.0000 
      6 CAU        57.1770  -21.5730    9.3330 C.ar      1 CL6502      0.0000 
      7 CAW        57.4720  -20.5560    8.4440 C.ar      1 CL6502      0.0000 
      8 CAR        56.5740  -20.2310    7.2840 C.3       1 CL6502      0.0000 
      9 CAC        56.1580  -18.7810    7.4570 C.ar      1 CL6502      0.0000 
     10 CAE        55.9020  -17.9070    6.3670 C.ar      1 CL6502      0.0000 
     11 CAF        55.5280  -16.5690    6.5640 C.ar      1 CL6502      0.0000 
     12 CAD        55.4080  -16.0630    7.8490 C.ar      1 CL6502      0.0000 
     13 CAB        55.6340  -16.8940    8.9430 C.ar      1 CL6502      0.0000 
     14 CAA        56.0220  -18.2420    8.7680 C.ar      1 CL6502      0.0000 
     15 NAO        55.3250  -21.1280    7.3500 N.pl3     1 CL6502      0.0000 
     16 CAM        55.2540  -22.3520    6.7960 C.2       1 CL6502      0.0000 
     17 NAN        54.0380  -22.8400    7.0360 N.2       1 CL6502      0.0000 
     18 CAQ        53.3670  -21.9340    7.8390 C.2       1 CL6502      0.0000 
     19 CAP        54.1830  -20.8340    8.0090 C.2       1 CL6502      0.0000 
     20 CAL        57.2560  -20.3970    5.8940 C.ar      1 CL6502      0.0000 
     21 CAK        56.5030  -20.3860    4.7260 C.ar      1 CL6502      0.0000 
     22 CAI        57.0800  -20.5270    3.4320 C.ar      1 CL6502      0.0000 
     23 CAG        58.4360  -20.7620    3.2980 C.ar      1 CL6502      0.0000 
     24 CAH        59.1540  -20.8510    4.4640 C.ar      1 CL6502      0.0000 
     25 CAJ        58.5860  -20.6850    5.7330 C.ar      1 CL6502      0.0000 
@<TRIPOS>BOND
     1    1    2 1    
     2    2    3 ar   
     3    2    7 ar   
     4    3    4 ar   
     5    4    5 ar   
     6    5    6 ar   
     7    6    7 ar   
     8    7    8 1    
     9    8    9 1    
    10    8   15 1    
    11    8   20 1    
    12    9   10 ar   
    13    9   14 ar   
    14   10   11 ar   
    15   11   12 ar   
    16   12   13 ar   
    17   13   14 ar   
    18   15   16 1    
    19   15   19 1    
    20   16   17 2    
    21   17   18 1    
    22   18   19 2    
    23   20   21 ar   
    24   20   25 ar   
    25   21   22 ar   
    26   22   23 ar   
    27   23   24 ar   
    28   24   25 ar   
@<TRIPOS>SUBSTRUCTURE
     1 CL6502      1 GROUP   
@<TRIPOS>SET

