#    Name: 6h1t_4_CL6
#    Modification time : Fri May 22 19:25:25 2020

@<TRIPOS>MOLECULE
6h1t_4_CL6
   25    28     1     0     0
SMALL
NO_CHARGES


@<TRIPOS>ATOM
      1 CLAY       31.9970    6.2670   48.5090 Cl        1 CL6502      0.0000 
      2 CAX        30.7400    5.8900   47.3390 C.ar      1 CL6502      0.0000 
      3 CAV        30.5950    6.7440   46.2870 C.ar      1 CL6502      0.0000 
      4 CAT        29.6720    6.5000   45.3110 C.ar      1 CL6502      0.0000 
      5 CAS        28.9130    5.3940   45.4330 C.ar      1 CL6502      0.0000 
      6 CAU        29.0600    4.4960   46.4760 C.ar      1 CL6502      0.0000 
      7 CAW        29.9310    4.6780   47.5070 C.ar      1 CL6502      0.0000 
      8 CAR        30.1180    3.6590   48.6260 C.3       1 CL6502      0.0000 
      9 CAC        31.5720    3.2150   48.5240 C.ar      1 CL6502      0.0000 
     10 CAE        32.3420    2.9230   49.6340 C.ar      1 CL6502      0.0000 
     11 CAF        33.6570    2.4970   49.5170 C.ar      1 CL6502      0.0000 
     12 CAD        34.2310    2.3710   48.2490 C.ar      1 CL6502      0.0000 
     13 CAB        33.4800    2.6650   47.1210 C.ar      1 CL6502      0.0000 
     14 CAA        32.1540    3.1010   47.2730 C.ar      1 CL6502      0.0000 
     15 NAO        29.1830    2.4620   48.3760 N.pl3     1 CL6502      0.0000 
     16 CAM        27.8830    2.4530   48.7250 C.2       1 CL6502      0.0000 
     17 NAN        27.3090    1.2910   48.3540 N.2       1 CL6502      0.0000 
     18 CAQ        28.2980    0.6170   47.6500 C.2       1 CL6502      0.0000 
     19 CAP        29.4550    1.3210   47.7110 C.2       1 CL6502      0.0000 
     20 CAL        29.8110    4.2200   50.0250 C.ar      1 CL6502      0.0000 
     21 CAK        29.7690    3.3590   51.1340 C.ar      1 CL6502      0.0000 
     22 CAI        29.4560    3.8410   52.4230 C.ar      1 CL6502      0.0000 
     23 CAG        29.1720    5.1880   52.6430 C.ar      1 CL6502      0.0000 
     24 CAH        29.1970    6.0470   51.5770 C.ar      1 CL6502      0.0000 
     25 CAJ        29.5030    5.5690   50.2780 C.ar      1 CL6502      0.0000 
@<TRIPOS>BOND
     1    1    2 1    
     2    2    3 ar   
     3    2    7 ar   
     4    3    4 ar   
     5    4    5 ar   
     6    5    6 ar   
     7    6    7 ar   
     8    7    8 1    
     9    8    9 1    
    10    8   15 1    
    11    8   20 1    
    12    9   10 ar   
    13    9   14 ar   
    14   10   11 ar   
    15   11   12 ar   
    16   12   13 ar   
    17   13   14 ar   
    18   15   16 1    
    19   15   19 1    
    20   16   17 2    
    21   17   18 1    
    22   18   19 2    
    23   20   21 ar   
    24   20   25 ar   
    25   21   22 ar   
    26   22   23 ar   
    27   23   24 ar   
    28   24   25 ar   
@<TRIPOS>SUBSTRUCTURE
     1 CL6502      1 GROUP   
@<TRIPOS>SET

