#    Name: 6h1t_1_CL6
#    Modification time : Fri May 22 19:25:00 2020

@<TRIPOS>MOLECULE
6h1t_1_CL6
   25    28     1     0     0
SMALL
NO_CHARGES


@<TRIPOS>ATOM
      1 CLAY       91.5380   -8.0170  102.5580 Cl        1 CL6502      0.0000 
      2 CAX        91.3080   -6.7700  101.3480 C.ar      1 CL6502      0.0000 
      3 CAV        92.3470   -6.5010  100.4850 C.ar      1 CL6502      0.0000 
      4 CAT        92.2010   -5.5160   99.5040 C.ar      1 CL6502      0.0000 
      5 CAS        91.0500   -4.7520   99.4650 C.ar      1 CL6502      0.0000 
      6 CAU        90.0180   -5.0000  100.3480 C.ar      1 CL6502      0.0000 
      7 CAW        90.0650   -5.9770  101.3320 C.ar      1 CL6502      0.0000 
      8 CAR        88.8730   -6.2250  102.2730 C.3       1 CL6502      0.0000 
      9 CAC        88.5060   -7.7070  101.9770 C.ar      1 CL6502      0.0000 
     10 CAE        88.6230   -8.2220  100.6800 C.ar      1 CL6502      0.0000 
     11 CAF        88.3410   -9.5500  100.3410 C.ar      1 CL6502      0.0000 
     12 CAD        87.8900  -10.3990  101.3300 C.ar      1 CL6502      0.0000 
     13 CAB        87.7290   -9.9260  102.6180 C.ar      1 CL6502      0.0000 
     14 CAA        88.0470   -8.6020  102.9240 C.ar      1 CL6502      0.0000 
     15 NAO        87.7660   -5.3410  101.8660 N.pl3     1 CL6502      0.0000 
     16 CAM        87.5590   -4.1140  102.3400 C.2       1 CL6502      0.0000 
     17 NAN        86.4720   -3.5940  101.7110 N.2       1 CL6502      0.0000 
     18 CAQ        86.0040   -4.5720  100.8340 C.2       1 CL6502      0.0000 
     19 CAP        86.8600   -5.6280  100.9180 C.2       1 CL6502      0.0000 
     20 CAL        89.1740   -5.9710  103.7410 C.ar      1 CL6502      0.0000 
     21 CAK        88.1550   -6.0340  104.7050 C.ar      1 CL6502      0.0000 
     22 CAI        88.4020   -5.8180  106.0600 C.ar      1 CL6502      0.0000 
     23 CAG        89.6940   -5.5900  106.5120 C.ar      1 CL6502      0.0000 
     24 CAH        90.6710   -5.5290  105.5780 C.ar      1 CL6502      0.0000 
     25 CAJ        90.4350   -5.6870  104.2100 C.ar      1 CL6502      0.0000 
@<TRIPOS>BOND
     1    1    2 1    
     2    2    3 ar   
     3    2    7 ar   
     4    3    4 ar   
     5    4    5 ar   
     6    5    6 ar   
     7    6    7 ar   
     8    7    8 1    
     9    8    9 1    
    10    8   15 1    
    11    8   20 1    
    12    9   10 ar   
    13    9   14 ar   
    14   10   11 ar   
    15   11   12 ar   
    16   12   13 ar   
    17   13   14 ar   
    18   15   16 1    
    19   15   19 1    
    20   16   17 2    
    21   17   18 1    
    22   18   19 2    
    23   20   21 ar   
    24   20   25 ar   
    25   21   22 ar   
    26   22   23 ar   
    27   23   24 ar   
    28   24   25 ar   
@<TRIPOS>SUBSTRUCTURE
     1 CL6502      1 GROUP   
@<TRIPOS>SET

