#    Name: 6f6i_1_8PR
#    Modification time : Fri May 22 19:29:28 2020

@<TRIPOS>MOLECULE
6f6i_1_8PR
   24    27     1     0     0
SMALL
NO_CHARGES


@<TRIPOS>ATOM
      1 FAA       -46.0900   18.1670  -10.0610 F         1 8PR509      0.0000 
      2 CAB       -46.2350   16.5480   -8.2870 C.ar      1 8PR509      0.0000 
      3 CAC       -44.1320   17.5090   -8.9330 C.ar      1 8PR509      0.0000 
      4 CAD       -46.8700   12.1750   -8.0690 C.ar      1 8PR509      0.0000 
      5 CAE       -45.5930   15.7980   -7.3150 C.ar      1 8PR509      0.0000 
      6 CAF       -43.4900   16.7550   -7.9650 C.ar      1 8PR509      0.0000 
      7 CAG       -47.9640   11.6600   -8.7490 C.ar      1 8PR509      0.0000 
      8 CAH       -45.6860   12.4070  -10.1550 C.ar      1 8PR509      0.0000 
      9 CAI       -41.9460   14.9360   -4.1630 C.3       1 8PR509      0.0000 
     10 CAJ       -42.7870   15.7820   -5.1230 C.3       1 8PR509      0.0000 
     11 CAK       -42.0810   12.9930   -5.6860 C.3       1 8PR509      0.0000 
     12 CAL       -48.3640   11.2460  -12.3730 C.3       1 8PR509      0.0000 
     13 CAM       -44.1100   12.7780   -7.1020 C.3       1 8PR509      0.0000 
     14 NAN       -41.1670   13.8870   -4.9060 N.4       1 8PR509      0.0000 
     15 OAO       -44.4950   13.0830   -8.4100 O.3       1 8PR509      0.0000 
     16 OAP       -48.8670   11.0320  -11.0780 O.3       1 8PR509      0.0000 
     17 OAQ       -47.0210   11.6370  -12.2160 O.3       1 8PR509      0.0000 
     18 CAR       -45.5050   17.4040   -9.0940 C.ar      1 8PR509      0.0000 
     19 CAS       -45.7340   12.5460   -8.7770 C.ar      1 8PR509      0.0000 
     20 CAT       -44.2200   15.8980   -7.1560 C.ar      1 8PR509      0.0000 
     21 CAU       -47.9200   11.5180  -10.1460 C.ar      1 8PR509      0.0000 
     22 CAV       -46.7930   11.8860  -10.8410 C.ar      1 8PR509      0.0000 
     23 CAW       -43.0110   13.7640   -6.6330 C.3       1 8PR509      0.0000 
     24 CAX       -43.6900   14.9620   -6.0050 C.3       1 8PR509      0.0000 
@<TRIPOS>BOND
     1    1   18 1    
     2    2    5 ar   
     3    2   18 ar   
     4    3    6 ar   
     5    3   18 ar   
     6    4    7 ar   
     7    4   19 ar   
     8    5   20 ar   
     9    6   20 ar   
    10    7   21 ar   
    11    8   19 ar   
    12    8   22 ar   
    13    9   10 1    
    14    9   14 1    
    15   10   24 1    
    16   11   14 1    
    17   11   23 1    
    18   12   16 1    
    19   12   17 1    
    20   13   15 1    
    21   13   23 1    
    22   15   19 1    
    23   16   21 1    
    24   17   22 1    
    25   20   24 1    
    26   21   22 ar   
    27   23   24 1    
@<TRIPOS>SUBSTRUCTURE
     1 8PR509      1 GROUP   
@<TRIPOS>SET

