#    Name: 6mve_3_ATP_CAVITY_N1_12
#    Modification time : Fri May 22 19:25:54 2020

@<TRIPOS>MOLECULE
6mve_3_ATP_CAVITY_N1_12
   81     0     7     0     0
SMALL
NO_CHARGES


@<TRIPOS>ATOM
      1 OG         41.3700  -24.6700  -15.2800 O.3       1 SER1        0.0000 
      2 OG         43.4100  -24.4000  -14.7800 O.3       1 SER1        0.0000 
      3 OG         42.1000  -23.9900  -14.1700 O.3       1 SER1        0.0000 
      4 OG         44.6900  -26.0800  -14.5900 O.3       1 SER1        0.0000 
      5 OG         44.1400  -23.7100  -13.6700 O.3       1 SER1        0.0000 
      6 OG         42.8400  -23.3000  -13.0600 O.3       1 SER1        0.0000 
      7 OG         44.1200  -24.9800  -12.8700 O.3       1 SER1        0.0000 
      8 N          47.0900  -31.2200  -17.0500 N.am      2 ALA2        0.0000 
      9 N          39.5700  -19.3600  -15.3500 N.am      2 ALA2        0.0000 
     10 O          48.6100  -27.3100  -16.4200 O.2       2 ALA2        0.0000 
     11 N          49.4000  -24.0900  -16.9100 N.am      2 ALA2        0.0000 
     12 O          48.0400  -26.2200  -14.7000 O.2       2 ALA2        0.0000 
     13 N          43.6000  -21.3500  -12.7500 N.am      2 ALA2        0.0000 
     14 N          48.8000  -24.2600  -14.3900 N.am      2 ALA2        0.0000 
     15 N          47.4900  -23.8500  -13.7800 N.am      2 ALA2        0.0000 
     16 N          48.7700  -25.5300  -13.5900 N.am      2 ALA2        0.0000 
     17 OD1        39.3800  -22.4100  -17.3800 O.co2     3 ASP3        0.0000 
     18 OD1        46.1900  -23.4400  -13.1700 O.co2     3 ASP3        0.0000 
     19 OD1        44.8800  -23.0300  -12.5600 O.co2     3 ASP3        0.0000 
     20 OD1        43.5700  -22.6200  -11.9500 O.co2     3 ASP3        0.0000 
     21 NZ         42.8100  -24.5700  -12.2600 N.4       4 LYS4        0.0000 
     22 CZ         40.6600  -24.0900  -17.2000 C.ar      5 PHE5        0.0000 
     23 CZ         43.2200  -27.4500  -16.8200 C.ar      5 PHE5        0.0000 
     24 CZ         44.5000  -29.1300  -16.6300 C.ar      5 PHE5        0.0000 
     25 CZ         44.4700  -30.4000  -15.8300 C.ar      5 PHE5        0.0000 
     26 CZ         41.4200  -22.1400  -16.8800 C.ar      5 PHE5        0.0000 
     27 CZ         44.0100  -24.2300  -17.3000 C.ar      5 PHE5        0.0000 
     28 CZ         42.7000  -23.8200  -16.6900 C.ar      5 PHE5        0.0000 
     29 CZ         43.9800  -25.5000  -16.5100 C.ar      5 PHE5        0.0000 
     30 CZ         42.6700  -25.0900  -15.8900 C.ar      5 PHE5        0.0000 
     31 CZ         45.2600  -27.1800  -16.3200 C.ar      5 PHE5        0.0000 
     32 CZ         43.9500  -26.7700  -15.7100 C.ar      5 PHE5        0.0000 
     33 CZ         45.2300  -28.4500  -15.5200 C.ar      5 PHE5        0.0000 
     34 CZ         40.8700  -19.7700  -15.9600 C.ar      5 PHE5        0.0000 
     35 CZ         42.1500  -21.4500  -15.7700 C.ar      5 PHE5        0.0000 
     36 CZ         47.3600  -24.3600  -17.4100 C.ar      5 PHE5        0.0000 
     37 CZ         43.4300  -23.1300  -15.5800 C.ar      5 PHE5        0.0000 
     38 CZ         46.0200  -25.2200  -16.0000 C.ar      5 PHE5        0.0000 
     39 CZ         44.7200  -24.8100  -15.3900 C.ar      5 PHE5        0.0000 
     40 CZ         44.6600  -27.3500  -13.7900 C.ar      5 PHE5        0.0000 
     41 CZ         41.6100  -19.0800  -14.8500 C.ar      5 PHE5        0.0000 
     42 CZ         48.0900  -23.6800  -16.3000 C.ar      5 PHE5        0.0000 
     43 CZ         45.4800  -22.8600  -15.0800 C.ar      5 PHE5        0.0000 
     44 CZ         44.1700  -22.4400  -14.4700 C.ar      5 PHE5        0.0000 
     45 CZ         42.8600  -22.0300  -13.8600 C.ar      5 PHE5        0.0000 
     46 CZ         46.7600  -24.5400  -14.8900 C.ar      5 PHE5        0.0000 
     47 CZ         46.2100  -22.1700  -13.9700 C.ar      5 PHE5        0.0000 
     48 CA         45.0700  -30.2300  -18.3500 C.3       6 GLY6        0.0000 
     49 CA         45.7800  -30.8100  -16.4400 C.3       6 GLY6        0.0000 
     50 CA         40.1100  -21.7200  -16.2700 C.3       6 GLY6        0.0000 
     51 CA         41.3900  -23.4000  -16.0800 C.3       6 GLY6        0.0000 
     52 CA         47.8500  -29.2700  -16.7400 C.3       6 GLY6        0.0000 
     53 CA         46.5200  -30.1300  -15.3300 C.3       6 GLY6        0.0000 
     54 CA         45.2100  -29.7200  -14.7200 C.3       6 GLY6        0.0000 
     55 CA         40.8500  -21.0400  -15.1600 C.3       6 GLY6        0.0000 
     56 CA         39.5400  -20.6300  -14.5500 C.3       6 GLY6        0.0000 
     57 CA         42.1300  -22.7200  -14.9700 C.3       6 GLY6        0.0000 
     58 CA         49.8900  -28.9900  -16.2400 C.3       6 GLY6        0.0000 
     59 CA         48.5800  -28.5800  -15.6300 C.3       6 GLY6        0.0000 
     60 CA         47.2800  -28.1700  -15.0100 C.3       6 GLY6        0.0000 
     61 CA         45.9700  -27.7600  -14.4000 C.3       6 GLY6        0.0000 
     62 CA         45.9400  -29.0300  -13.6000 C.3       6 GLY6        0.0000 
     63 CA         41.5800  -20.3500  -14.0500 C.3       6 GLY6        0.0000 
     64 CA         41.5600  -21.6200  -13.2500 C.3       6 GLY6        0.0000 
     65 CA         49.3700  -25.3600  -16.1100 C.3       6 GLY6        0.0000 
     66 CA         48.0600  -24.9500  -15.5000 C.3       6 GLY6        0.0000 
     67 CA         41.5300  -22.8900  -12.4500 C.3       6 GLY6        0.0000 
     68 CA         46.7300  -25.8100  -14.0900 C.3       6 GLY6        0.0000 
     69 CA         45.4300  -25.3900  -13.4800 C.3       6 GLY6        0.0000 
     70 CA         46.7100  -27.0700  -13.2900 C.3       6 GLY6        0.0000 
     71 CA         45.4000  -26.6600  -12.6800 C.3       6 GLY6        0.0000 
     72 CA         44.9100  -21.7600  -13.3600 C.3       6 GLY6        0.0000 
     73 CA         47.4700  -25.1200  -12.9800 C.3       6 GLY6        0.0000 
     74 DU         45.8100  -29.5400  -17.2400 H         7 CUB7        0.0000 
     75 DU         45.2900  -25.9100  -17.1200 H         7 CUB7        0.0000 
     76 DU         46.5700  -27.5900  -16.9300 H         7 CUB7        0.0000 
     77 DU         46.5400  -28.8600  -16.1300 H         7 CUB7        0.0000 
     78 DU         47.3300  -25.6300  -16.6100 H         7 CUB7        0.0000 
     79 DU         47.3000  -26.9000  -15.8100 H         7 CUB7        0.0000 
     80 DU         46.0000  -26.4900  -15.2000 H         7 CUB7        0.0000 
     81 DU         45.4500  -24.1200  -14.2800 H         7 CUB7        0.0000 
@<TRIPOS>BOND
@<TRIPOS>SUBSTRUCTURE
     1 SER1        1 GROUP   
     2 ALA2        8 GROUP   
     3 ASP3       17 GROUP   
     4 LYS4       21 GROUP   
     5 PHE5       22 GROUP   
     6 GLY6       48 GROUP   
     7 CUB7       74 GROUP   
@<TRIPOS>SET

