#    Name: 6mve_3_ATP
#    Modification time : Fri May 22 19:25:52 2020

@<TRIPOS>MOLECULE
6mve_3_ATP
   31    33     1     0     1
SMALL
NO_CHARGES


@<TRIPOS>ATOM
      1 PG         51.6030  -29.9850  -21.6340 P.3       1 ATP803      0.0000 
      2 O1G        51.5600  -31.1900  -22.5750 O.co2     1 ATP803      0.0000 
      3 O2G        51.9480  -30.3450  -20.2090 O.co2     1 ATP803      0.0000 
      4 O3G        52.5420  -28.9250  -22.2160 O.co2     1 ATP803      0.0000 
      5 PB         49.8210  -27.9340  -20.9450 P.3       1 ATP803      0.0000 
      6 O1B        50.7340  -26.8430  -21.3900 O.co2     1 ATP803      0.0000 
      7 O2B        48.3260  -27.6770  -21.1050 O.co2     1 ATP803      0.0000 
      8 O3B        50.1650  -29.3020  -21.6770 O.3       1 ATP803      0.0000 
      9 PA         49.8840  -27.6000  -18.0540 P.3       1 ATP803      0.0000 
     10 O1A        49.5580  -26.1710  -18.2790 O.co2     1 ATP803      0.0000 
     11 O2A        51.1080  -27.8830  -17.1900 O.co2     1 ATP803      0.0000 
     12 O3A        50.0670  -28.3730  -19.4340 O.3       1 ATP803      0.0000 
     13 O5'        48.6340  -28.3180  -17.3320 O.3       1 ATP803      0.0000 
     14 C5'        48.3580  -29.7290  -17.2090 C.3       1 ATP803      0.0000 
     15 C4'        46.9660  -29.7870  -16.6400 C.3       1 ATP803      0.0000 
     16 O4'        46.9160  -28.9520  -15.4570 O.3       1 ATP803      0.0000 
     17 C3'        45.8760  -29.2670  -17.5830 C.3       1 ATP803      0.0000 
     18 O3'        44.8310  -30.2140  -17.7680 O.3       1 ATP803      0.0000 
     19 C2'        45.3970  -27.9740  -16.9120 C.3       1 ATP803      0.0000 
     20 O2'        44.0030  -27.7840  -17.0970 O.3       1 ATP803      0.0000 
     21 C1'        45.6920  -28.2590  -15.4490 C.3       1 ATP803      0.0000 
     22 N9         45.8090  -27.0730  -14.6000 N.pl3     1 ATP803      0.0000 
     23 C8         45.1080  -26.8650  -13.4390 C.2       1 ATP803      0.0000 
     24 N7         45.3290  -25.7020  -12.8760 N.2       1 ATP803      0.0000 
     25 C5         46.2470  -25.0970  -13.7210 C.ar      1 ATP803      0.0000 
     26 C6         46.8840  -23.8380  -13.6840 C.ar      1 ATP803      0.0000 
     27 N6         46.6570  -22.9070  -12.7400 N.pl3     1 ATP803      0.0000 
     28 N1         47.7610  -23.5530  -14.6740 N.ar      1 ATP803      0.0000 
     29 C2         47.9760  -24.4650  -15.6300 C.ar      1 ATP803      0.0000 
     30 N3         47.4260  -25.6740  -15.7740 N.ar      1 ATP803      0.0000 
     31 C4         46.5620  -25.9340  -14.7850 C.ar      1 ATP803      0.0000 
@<TRIPOS>BOND
     1    1    2 ar   
     2    1    3 ar   
     3    1    4 ar   
     4    1    8 1    
     5    5    6 ar   
     6    5    7 ar   
     7    5    8 1    
     8    5   12 1    
     9    9   10 ar   
    10    9   11 ar   
    11    9   12 1    
    12    9   13 1    
    13   13   14 1    
    14   14   15 1    
    15   15   16 1    
    16   15   17 1    
    17   16   21 1    
    18   17   18 1    
    19   17   19 1    
    20   19   20 1    
    21   19   21 1    
    22   21   22 1    
    23   22   23 1    
    24   22   31 1    
    25   23   24 2    
    26   24   25 1    
    27   25   26 ar   
    28   25   31 ar   
    29   26   27 1    
    30   26   28 ar   
    31   28   29 ar   
    32   29   30 ar   
    33   30   31 ar   
@<TRIPOS>SUBSTRUCTURE
     1 ATP803      1 GROUP   
@<TRIPOS>SET
ATOM$ORANGE STATIC     ATOMS   COLORGROUP SYSTEM 
20 14 14 15 15 17 17 19 19 21 21 23 23 25 25 26 26 29 \
29 31 31 

