#    Name: 6mve_1_TTP
#    Modification time : Fri May 22 19:25:47 2020

@<TRIPOS>MOLECULE
6mve_1_TTP
   29    30     1     0     0
SMALL
NO_CHARGES


@<TRIPOS>ATOM
      1 PA         27.1990  -43.5980   39.6680 P.3       1 TTP801      0.0000 
      2 O1A        27.2270  -44.9170   38.9610 O.co2     1 TTP801      0.0000 
      3 O2A        28.3840  -42.7820   39.3660 O.co2     1 TTP801      0.0000 
      4 O3A        27.0180  -43.9210   41.2230 O.3       1 TTP801      0.0000 
      5 PB         27.4920  -45.1390   42.1410 P.3       1 TTP801      0.0000 
      6 O1B        28.2370  -46.1790   41.3570 O.co2     1 TTP801      0.0000 
      7 O2B        28.2550  -44.5530   43.3280 O.co2     1 TTP801      0.0000 
      8 O3B        26.1240  -45.7120   42.7120 O.3       1 TTP801      0.0000 
      9 PG         25.2150  -46.8980   42.1590 P.3       1 TTP801      0.0000 
     10 O1G        25.4580  -46.8690   40.6440 O.co2     1 TTP801      0.0000 
     11 O2G        25.8140  -48.2100   42.6690 O.co2     1 TTP801      0.0000 
     12 O3G        23.7670  -46.6500   42.5590 O.co2     1 TTP801      0.0000 
     13 O5'        25.8390  -42.8150   39.3160 O.3       1 TTP801      0.0000 
     14 C5'        24.5640  -43.4410   39.0890 C.3       1 TTP801      0.0000 
     15 C4'        23.6680  -42.5090   38.3090 C.3       1 TTP801      0.0000 
     16 O4'        23.3600  -41.3400   39.0990 O.3       1 TTP801      0.0000 
     17 C3'        24.2400  -42.0060   36.9840 C.3       1 TTP801      0.0000 
     18 O3'        23.2310  -42.0710   35.9770 O.3       1 TTP801      0.0000 
     19 C2'        24.6050  -40.5570   37.2780 C.3       1 TTP801      0.0000 
     20 C1'        23.6180  -40.1630   38.3600 C.3       1 TTP801      0.0000 
     21 N1         24.1510  -39.1550   39.2960 N.am      1 TTP801      0.0000 
     22 C2         23.4010  -38.0260   39.5570 C.2       1 TTP801      0.0000 
     23 O2         22.2860  -37.8930   39.0540 O.2       1 TTP801      0.0000 
     24 N3         23.8470  -37.0160   40.3940 N.am      1 TTP801      0.0000 
     25 C4         25.0440  -37.2180   40.9710 C.2       1 TTP801      0.0000 
     26 O4         25.4570  -36.3060   41.6830 O.2       1 TTP801      0.0000 
     27 C5         25.7830  -38.4380   40.7340 C.2       1 TTP801      0.0000 
     28 C5M        27.0660  -38.7020   41.4830 C.3       1 TTP801      0.0000 
     29 C6         25.2860  -39.3550   39.8650 C.2       1 TTP801      0.0000 
@<TRIPOS>BOND
     1    1    2 ar   
     2    1    3 ar   
     3    1    4 1    
     4    1   13 1    
     5    4    5 1    
     6    5    6 ar   
     7    5    7 ar   
     8    5    8 1    
     9    8    9 1    
    10    9   10 ar   
    11    9   11 ar   
    12    9   12 ar   
    13   13   14 1    
    14   14   15 1    
    15   15   16 1    
    16   15   17 1    
    17   16   20 1    
    18   17   18 1    
    19   17   19 1    
    20   19   20 1    
    21   20   21 1    
    22   21   22 1    
    23   21   29 1    
    24   22   23 2    
    25   22   24 1    
    26   24   25 1    
    27   25   26 2    
    28   25   27 1    
    29   27   28 1    
    30   27   29 2    
@<TRIPOS>SUBSTRUCTURE
     1 TTP801      1 GROUP   
@<TRIPOS>SET

