#    Name: 6el3_6_NAP_CAVITY_N1_ALL
#    Modification time : Fri May 22 19:29:16 2020

@<TRIPOS>MOLECULE
6el3_6_NAP_CAVITY_N1_ALL
   72     0     5     0     0
SMALL
NO_CHARGES


@<TRIPOS>ATOM
      1 OG         78.2500   10.7700  -29.7100 O.3       1 SER1        0.0000 
      2 OG         79.4900   10.1200  -30.2400 O.3       1 SER1        0.0000 
      3 OG         79.5300    9.2100  -29.0400 O.3       1 SER1        0.0000 
      4 OG         80.3300   11.1200  -29.5000 O.3       1 SER1        0.0000 
      5 OG         79.8800   13.6800  -29.4300 O.3       1 SER1        0.0000 
      6 OG         81.8200   17.6600  -34.0100 O.3       1 SER1        0.0000 
      7 OG         82.6600   18.6700  -33.2700 O.3       1 SER1        0.0000 
      8 O          79.0700    7.4600  -32.2400 O.2       2 ALA2        0.0000 
      9 N          77.3800   10.6700  -31.6400 N.am      2 ALA2        0.0000 
     10 N          77.4100    9.7600  -30.4400 N.am      2 ALA2        0.0000 
     11 N          78.5900   10.9200  -33.3600 N.am      2 ALA2        0.0000 
     12 N          78.6200   10.0200  -32.1700 N.am      2 ALA2        0.0000 
     13 N          78.6600    9.1100  -30.9700 N.am      2 ALA2        0.0000 
     14 O          78.6900    8.2100  -29.7800 O.2       2 ALA2        0.0000 
     15 N          78.2100   11.6700  -30.9000 N.am      2 ALA2        0.0000 
     16 N          80.6300   12.1900  -34.3500 N.am      2 ALA2        0.0000 
     17 O          77.7700   14.2300  -30.8400 O.2       2 ALA2        0.0000 
     18 N          79.0500   12.6800  -30.1700 N.am      2 ALA2        0.0000 
     19 O          78.6000   15.2400  -30.1000 O.2       2 ALA2        0.0000 
     20 N          78.6400   14.3300  -28.9000 N.am      2 ALA2        0.0000 
     21 O          79.8100   15.4900  -31.8200 O.2       2 ALA2        0.0000 
     22 O          79.8500   14.5900  -30.6300 O.2       2 ALA2        0.0000 
     23 O          79.3700   18.0500  -31.7600 O.2       2 ALA2        0.0000 
     24 O          79.4000   17.1500  -30.5600 O.2       2 ALA2        0.0000 
     25 O          79.4400   16.2400  -29.3600 O.2       2 ALA2        0.0000 
     26 N          79.4700   15.3400  -28.1700 N.am      2 ALA2        0.0000 
     27 O          80.5700   18.3100  -33.4800 O.2       2 ALA2        0.0000 
     28 O          81.9300   14.9500  -30.4200 O.2       2 ALA2        0.0000 
     29 O          80.2400   18.1500  -29.8200 O.2       2 ALA2        0.0000 
     30 N          81.4500   18.4100  -31.5500 N.am      2 ALA2        0.0000 
     31 CZ         80.3500    5.9100  -31.5700 C.ar      3 PHE5        0.0000 
     32 CZ         79.8300   10.2800  -33.8900 C.ar      3 PHE5        0.0000 
     33 CZ         79.8700    9.3700  -32.7000 C.ar      3 PHE5        0.0000 
     34 CZ         81.1500    7.8200  -32.0300 C.ar      3 PHE5        0.0000 
     35 CZ         81.1800    6.9100  -30.8300 C.ar      3 PHE5        0.0000 
     36 CZ         80.6500   16.5000  -31.0900 C.ar      3 PHE5        0.0000 
     37 CZ         80.6800   15.5900  -29.8900 C.ar      3 PHE5        0.0000 
     38 CZ         80.7200   14.6900  -28.7000 C.ar      3 PHE5        0.0000 
     39 CZ         81.4800   17.5000  -30.3500 C.ar      3 PHE5        0.0000 
     40 CZ         82.6900   17.7600  -32.0800 C.ar      3 PHE5        0.0000 
     41 CZ         83.5300   18.7700  -31.3400 C.ar      3 PHE5        0.0000 
     42 CA         77.8200    8.1100  -31.7100 C.3       4 GLY6        0.0000 
     43 CA         77.8600    7.2000  -30.5100 C.3       4 GLY6        0.0000 
     44 CA         79.0300    8.3700  -33.4300 C.3       4 GLY6        0.0000 
     45 CA         80.3100    6.8100  -32.7600 C.3       4 GLY6        0.0000 
     46 CA         79.9400    7.5600  -30.3100 C.3       4 GLY6        0.0000 
     47 CA         78.1800   12.5800  -32.1000 C.3       4 GLY6        0.0000 
     48 CA         79.3900   12.8300  -33.8200 C.3       4 GLY6        0.0000 
     49 CA         79.4200   11.9300  -32.6300 C.3       4 GLY6        0.0000 
     50 CA         79.4600   11.0200  -31.4300 C.3       4 GLY6        0.0000 
     51 CA         80.6700   11.2800  -33.1600 C.3       4 GLY6        0.0000 
     52 CA         80.7000   10.3800  -31.9600 C.3       4 GLY6        0.0000 
     53 CA         80.7400    9.4700  -30.7600 C.3       4 GLY6        0.0000 
     54 CA         80.7700    8.5700  -29.5700 C.3       4 GLY6        0.0000 
     55 CA         78.9800   14.4900  -32.5600 C.3       4 GLY6        0.0000 
     56 CA         79.0100   13.5800  -31.3600 C.3       4 GLY6        0.0000 
     57 CA         80.1800   14.7500  -34.2800 C.3       4 GLY6        0.0000 
     58 CA         80.2200   13.8400  -33.0900 C.3       4 GLY6        0.0000 
     59 CA         80.2600   12.9300  -31.8900 C.3       4 GLY6        0.0000 
     60 CA         80.2900   12.0300  -30.7000 C.3       4 GLY6        0.0000 
     61 CA         81.4700   13.1900  -33.6200 C.3       4 GLY6        0.0000 
     62 CA         79.7700   16.4000  -33.0200 C.3       4 GLY6        0.0000 
     63 CA         81.0200   15.7500  -33.5500 C.3       4 GLY6        0.0000 
     64 CA         81.0600   14.8500  -32.3500 C.3       4 GLY6        0.0000 
     65 CA         81.0900   13.9400  -31.1600 C.3       4 GLY6        0.0000 
     66 CA         80.6100   17.4000  -32.2800 C.3       4 GLY6        0.0000 
     67 CA         81.4100   19.3100  -32.7400 C.3       4 GLY6        0.0000 
     68 CA         82.2800   19.4100  -30.8100 C.3       4 GLY6        0.0000 
     69 CA         83.4500   20.5800  -33.7300 C.3       4 GLY6        0.0000 
     70 CA         83.4900   19.6700  -32.5400 C.3       4 GLY6        0.0000 
     71 DU         79.1000    6.5600  -31.0400 H         5 CUB7        0.0000 
     72 DU         79.9000    8.4700  -31.5000 H         5 CUB7        0.0000 
@<TRIPOS>BOND
@<TRIPOS>SUBSTRUCTURE
     1 SER1        1 GROUP   
     2 ALA2        8 GROUP   
     3 PHE5       31 GROUP   
     4 GLY6       42 GROUP   
     5 CUB7       71 GROUP   
@<TRIPOS>SET

