#    Name: 6el3_1_NAP
#    Modification time : Fri May 22 19:29:05 2020

@<TRIPOS>MOLECULE
6el3_1_NAP
   48    52     1     0     1
SMALL
NO_CHARGES


@<TRIPOS>ATOM
      1 PA          6.0300  -27.3430  -18.4530 P.3       1 NAP401      0.0000 
      2 O1A         6.7070  -27.6270  -17.1520 O.co2     1 NAP401      0.0000 
      3 O2A         4.6520  -27.9450  -18.5180 O.co2     1 NAP401      0.0000 
      4 O5B         5.9600  -25.7510  -18.7510 O.3       1 NAP401      0.0000 
      5 C5B         5.4410  -25.2430  -19.9930 C.3       1 NAP401      0.0000 
      6 C4B         5.8070  -23.7430  -20.0530 C.3       1 NAP401      0.0000 
      7 O4B         5.5130  -23.2400  -21.2210 O.3       1 NAP401      0.0000 
      8 C3B         4.9500  -22.9560  -19.0540 C.3       1 NAP401      0.0000 
      9 O3B         5.6240  -21.8370  -18.6720 O.3       1 NAP401      0.0000 
     10 C2B         3.7270  -22.6010  -19.9130 C.3       1 NAP401      0.0000 
     11 O2B         2.9890  -21.4870  -19.2260 O.3       1 NAP401      0.0000 
     12 C1B         4.2720  -22.2460  -21.0530 C.3       1 NAP401      0.0000 
     13 N9A         3.4510  -22.4850  -22.1680 N.pl3     1 NAP401      0.0000 
     14 C8A         2.6490  -23.5360  -22.5020 C.2       1 NAP401      0.0000 
     15 N7A         2.0930  -23.2580  -23.6990 N.2       1 NAP401      0.0000 
     16 C5A         2.5340  -22.0400  -24.1110 C.ar      1 NAP401      0.0000 
     17 C6A         2.2490  -21.2970  -25.2520 C.ar      1 NAP401      0.0000 
     18 N6A         1.3970  -21.5690  -26.3810 N.pl3     1 NAP401      0.0000 
     19 N1A         2.8340  -20.0930  -25.4430 N.ar      1 NAP401      0.0000 
     20 C2A         3.6950  -19.6050  -24.4900 C.ar      1 NAP401      0.0000 
     21 N3A         3.9690  -20.3340  -23.3550 N.ar      1 NAP401      0.0000 
     22 C4A         3.3850  -21.5600  -23.1670 C.ar      1 NAP401      0.0000 
     23 O3          6.8830  -27.9280  -19.6630 O.3       1 NAP401      0.0000 
     24 PN          8.0610  -28.9640  -19.6330 P.3       1 NAP401      0.0000 
     25 O1N         7.7010  -30.1960  -18.8680 O.co2     1 NAP401      0.0000 
     26 O2N         9.3830  -28.3710  -19.2190 O.co2     1 NAP401      0.0000 
     27 O5D         8.1320  -29.4140  -21.1800 O.3       1 NAP401      0.0000 
     28 C5D         9.1190  -28.9620  -22.0620 C.3       1 NAP401      0.0000 
     29 C4D         9.6320  -30.2470  -22.7900 C.3       1 NAP401      0.0000 
     30 O4D        10.1180  -31.0080  -21.8520 O.3       1 NAP401      0.0000 
     31 C3D         8.5020  -31.0560  -23.4390 C.3       1 NAP401      0.0000 
     32 O3D         8.8320  -31.5440  -24.6930 O.3       1 NAP401      0.0000 
     33 C2D         8.3150  -32.2010  -22.4060 C.3       1 NAP401      0.0000 
     34 O2D         7.5540  -33.3540  -22.9900 O.3       1 NAP401      0.0000 
     35 C1D         9.5400  -32.4740  -22.1120 C.3       1 NAP401      0.0000 
     36 N1N         9.7390  -33.2830  -20.9410 N.pl3     1 NAP401      0.0000 
     37 C2N         9.1400  -32.9900  -19.7460 C.ar      1 NAP401      0.0000 
     38 C3N         9.3590  -33.8280  -18.6410 C.ar      1 NAP401      0.0000 
     39 C7N         8.6820  -33.5330  -17.2780 C.2       1 NAP401      0.0000 
     40 O7N         8.7180  -34.3700  -16.3690 O.2       1 NAP401      0.0000 
     41 N7N         8.0230  -32.2710  -17.1070 N.am      1 NAP401      0.0000 
     42 C4N        10.1800  -34.9150  -18.7400 C.ar      1 NAP401      0.0000 
     43 C5N        10.7920  -35.1930  -19.9400 C.ar      1 NAP401      0.0000 
     44 C6N        10.5670  -34.3780  -21.0340 C.ar      1 NAP401      0.0000 
     45 P2B         1.5320  -21.0690  -19.6600 P.3       1 NAP401      0.0000 
     46 O1X         1.0510  -19.9850  -18.6970 O.co2     1 NAP401      0.0000 
     47 O2X         1.5690  -20.5350  -21.0550 O.co2     1 NAP401      0.0000 
     48 O3X         0.6230  -22.2470  -19.5940 O.co2     1 NAP401      0.0000 
@<TRIPOS>BOND
     1    1    2 ar   
     2    1    3 ar   
     3    1    4 1    
     4    1   23 1    
     5    4    5 1    
     6    5    6 1    
     7    6    7 1    
     8    6    8 1    
     9    7   12 1    
    10    8    9 1    
    11    8   10 1    
    12   10   11 1    
    13   10   12 1    
    14   11   45 1    
    15   12   13 1    
    16   13   14 1    
    17   13   22 1    
    18   14   15 2    
    19   15   16 1    
    20   16   17 ar   
    21   16   22 ar   
    22   17   18 1    
    23   17   19 ar   
    24   19   20 ar   
    25   20   21 ar   
    26   21   22 ar   
    27   23   24 1    
    28   24   25 ar   
    29   24   26 ar   
    30   24   27 1    
    31   27   28 1    
    32   28   29 1    
    33   29   30 1    
    34   29   31 1    
    35   30   35 1    
    36   31   32 1    
    37   31   33 1    
    38   33   34 1    
    39   33   35 1    
    40   35   36 1    
    41   36   37 ar   
    42   36   44 ar   
    43   37   38 ar   
    44   38   39 1    
    45   38   42 ar   
    46   39   40 2    
    47   39   41 am   
    48   42   43 ar   
    49   43   44 ar   
    50   45   46 ar   
    51   45   47 ar   
    52   45   48 ar   
@<TRIPOS>SUBSTRUCTURE
     1 NAP401      1 GROUP   
@<TRIPOS>SET
ATOM$ORANGE STATIC     ATOMS   COLORGROUP SYSTEM 
42 5 5 6 6 8 8 10 10 12 12 14 14 16 16 17 17 20 \
20 22 22 28 28 29 29 31 31 33 33 35 35 37 37 38 38 39 \
39 42 42 43 43 44 44 

