#    Name: 6el3_6_NAP
#    Modification time : Fri May 22 19:29:14 2020

@<TRIPOS>MOLECULE
6el3_6_NAP
   48    52     1     0     1
SMALL
NO_CHARGES


@<TRIPOS>ATOM
      1 PA         82.9680   18.6130  -33.0130 P.3       1 NAP401      0.0000 
      2 O1A        82.3730   18.2820  -34.3630 O.co2     1 NAP401      0.0000 
      3 O2A        84.3170   17.9790  -32.8610 O.co2     1 NAP401      0.0000 
      4 O5B        83.0470   20.2020  -32.7770 O.3       1 NAP401      0.0000 
      5 C5B        83.6630   20.7180  -31.5740 C.3       1 NAP401      0.0000 
      6 C4B        83.2910   22.2150  -31.5310 C.3       1 NAP401      0.0000 
      7 O4B        83.4960   22.6950  -30.3320 O.3       1 NAP401      0.0000 
      8 C3B        84.2040   23.0170  -32.4710 C.3       1 NAP401      0.0000 
      9 O3B        83.5850   24.1640  -32.8910 O.3       1 NAP401      0.0000 
     10 C2B        85.3660   23.3060  -31.5080 C.3       1 NAP401      0.0000 
     11 O2B        86.2480   24.3150  -32.1800 O.3       1 NAP401      0.0000 
     12 C1B        84.7340   23.7020  -30.4190 C.3       1 NAP401      0.0000 
     13 N9A        85.4790   23.4550  -29.2620 N.pl3     1 NAP401      0.0000 
     14 C8A        86.2160   22.3960  -28.8660 C.2       1 NAP401      0.0000 
     15 N7A        86.7380   22.6760  -27.6470 N.2       1 NAP401      0.0000 
     16 C5A        86.3230   23.9130  -27.2940 C.ar      1 NAP401      0.0000 
     17 C6A        86.5740   24.6750  -26.1620 C.ar      1 NAP401      0.0000 
     18 N6A        87.3610   24.4080  -24.9920 N.pl3     1 NAP401      0.0000 
     19 N1A        86.0370   25.9020  -26.0360 N.ar      1 NAP401      0.0000 
     20 C2A        85.2390   26.4000  -27.0350 C.ar      1 NAP401      0.0000 
     21 N3A        84.9870   25.6470  -28.1500 N.ar      1 NAP401      0.0000 
     22 C4A        85.5340   24.3970  -28.2800 C.ar      1 NAP401      0.0000 
     23 O3         82.0430   18.0980  -31.8410 O.3       1 NAP401      0.0000 
     24 PN         80.7970   17.1500  -31.9020 P.3       1 NAP401      0.0000 
     25 O1N        81.1630   15.9330  -32.7010 O.co2     1 NAP401      0.0000 
     26 O2N        79.5660   17.8750  -32.4110 O.co2     1 NAP401      0.0000 
     27 O5D        80.6650   16.7140  -30.3520 O.3       1 NAP401      0.0000 
     28 C5D        79.6420   17.1930  -29.5110 C.3       1 NAP401      0.0000 
     29 C4D        79.0550   15.9330  -28.7900 C.3       1 NAP401      0.0000 
     30 O4D        78.5710   15.1420  -29.7200 O.3       1 NAP401      0.0000 
     31 C3D        80.1620   15.1330  -28.0920 C.3       1 NAP401      0.0000 
     32 O3D        79.7310   14.6790  -26.8770 O.3       1 NAP401      0.0000 
     33 C2D        80.3780   13.9370  -29.0620 C.3       1 NAP401      0.0000 
     34 O2D        81.0550   12.7930  -28.3690 O.3       1 NAP401      0.0000 
     35 C1D        79.1580   13.6780  -29.4230 C.3       1 NAP401      0.0000 
     36 N1N        78.9880   12.8460  -30.5900 N.pl3     1 NAP401      0.0000 
     37 C2N        79.6460   13.0880  -31.7630 C.ar      1 NAP401      0.0000 
     38 C3N        79.4480   12.2430  -32.8610 C.ar      1 NAP401      0.0000 
     39 C7N        80.2050   12.4940  -34.1880 C.2       1 NAP401      0.0000 
     40 O7N        80.2010   11.6450  -35.0810 O.2       1 NAP401      0.0000 
     41 N7N        80.9250   13.7330  -34.3530 N.am      1 NAP401      0.0000 
     42 C4N        78.5800   11.1880  -32.7710 C.ar      1 NAP401      0.0000 
     43 C5N        77.9000   10.9550  -31.5950 C.ar      1 NAP401      0.0000 
     44 C6N        78.1050   11.7900  -30.5110 C.ar      1 NAP401      0.0000 
     45 P2B        87.6860   24.6980  -31.6650 P.3       1 NAP401      0.0000 
     46 O1X        88.5850   23.4940  -31.5960 O.co2     1 NAP401      0.0000 
     47 O2X        88.2580   25.7040  -32.6380 O.co2     1 NAP401      0.0000 
     48 O3X        87.5260   25.3140  -30.3160 O.co2     1 NAP401      0.0000 
@<TRIPOS>BOND
     1    1    2 ar   
     2    1    3 ar   
     3    1    4 1    
     4    1   23 1    
     5    4    5 1    
     6    5    6 1    
     7    6    7 1    
     8    6    8 1    
     9    7   12 1    
    10    8    9 1    
    11    8   10 1    
    12   10   11 1    
    13   10   12 1    
    14   11   45 1    
    15   12   13 1    
    16   13   14 1    
    17   13   22 1    
    18   14   15 2    
    19   15   16 1    
    20   16   17 ar   
    21   16   22 ar   
    22   17   18 1    
    23   17   19 ar   
    24   19   20 ar   
    25   20   21 ar   
    26   21   22 ar   
    27   23   24 1    
    28   24   25 ar   
    29   24   26 ar   
    30   24   27 1    
    31   27   28 1    
    32   28   29 1    
    33   29   30 1    
    34   29   31 1    
    35   30   35 1    
    36   31   32 1    
    37   31   33 1    
    38   33   34 1    
    39   33   35 1    
    40   35   36 1    
    41   36   37 ar   
    42   36   44 ar   
    43   37   38 ar   
    44   38   39 1    
    45   38   42 ar   
    46   39   40 2    
    47   39   41 am   
    48   42   43 ar   
    49   43   44 ar   
    50   45   46 ar   
    51   45   47 ar   
    52   45   48 ar   
@<TRIPOS>SUBSTRUCTURE
     1 NAP401      1 GROUP   
@<TRIPOS>SET
ATOM$ORANGE STATIC     ATOMS   COLORGROUP SYSTEM 
42 5 5 6 6 8 8 10 10 12 12 14 14 16 16 17 17 20 \
20 22 22 28 28 29 29 31 31 33 33 35 35 37 37 38 38 39 \
39 42 42 43 43 44 44 

