#    Name: 5m2x_4_SAH
#    Modification time : Fri May 22 19:14:33 2020

@<TRIPOS>MOLECULE
5m2x_4_SAH
   26    28     1     0     0
SMALL
NO_CHARGES


@<TRIPOS>ATOM
      1 N          -6.7070   82.0170  -70.9110 N.4       1 SAH1001     0.0000 
      2 CA         -5.8430   82.9320  -71.7060 C.3       1 SAH1001     0.0000 
      3 CB         -5.9590   84.3540  -71.1700 C.3       1 SAH1001     0.0000 
      4 CG         -7.3930   84.6690  -70.7630 C.3       1 SAH1001     0.0000 
      5 SD         -7.5480   86.3950  -70.4440 S.3       1 SAH1001     0.0000 
      6 C          -4.4070   82.5010  -71.6740 C.2       1 SAH1001     0.0000 
      7 O          -3.5220   83.3600  -71.8760 O.co2     1 SAH1001     0.0000 
      8 OXT        -4.1500   81.2990  -71.4480 O.co2     1 SAH1001     0.0000 
      9 C5'        -9.2440   86.8610  -70.5440 C.3       1 SAH1001     0.0000 
     10 C4'        -9.8690   86.2430  -71.7890 C.3       1 SAH1001     0.0000 
     11 O4'       -11.0500   85.5220  -71.4290 O.3       1 SAH1001     0.0000 
     12 C3'       -10.2600   87.3120  -72.7980 C.3       1 SAH1001     0.0000 
     13 O3'        -9.4810   87.1520  -73.9930 O.3       1 SAH1001     0.0000 
     14 C2'       -11.7630   87.1590  -73.0140 C.3       1 SAH1001     0.0000 
     15 O2'       -12.1320   86.8860  -74.3740 O.3       1 SAH1001     0.0000 
     16 C1'       -12.2020   86.0040  -72.1260 C.3       1 SAH1001     0.0000 
     17 N9        -13.2150   86.4790  -71.1510 N.pl3     1 SAH1001     0.0000 
     18 C8        -13.2400   87.6940  -70.5710 C.2       1 SAH1001     0.0000 
     19 N7        -14.2980   87.8120  -69.7280 N.2       1 SAH1001     0.0000 
     20 C5        -14.9740   86.6490  -69.7620 C.ar      1 SAH1001     0.0000 
     21 C6        -16.1870   86.0990  -69.1120 C.ar      1 SAH1001     0.0000 
     22 N6        -16.9070   86.8380  -68.2330 N.pl3     1 SAH1001     0.0000 
     23 N1        -16.5500   84.8360  -69.4250 N.ar      1 SAH1001     0.0000 
     24 C2        -15.8430   84.0920  -70.2960 C.ar      1 SAH1001     0.0000 
     25 N3        -14.7350   84.5260  -70.9210 N.ar      1 SAH1001     0.0000 
     26 C4        -14.2560   85.7740  -70.7010 C.ar      1 SAH1001     0.0000 
@<TRIPOS>BOND
     1    1    2 1    
     2    2    3 1    
     3    2    6 1    
     4    3    4 1    
     5    4    5 1    
     6    5    9 1    
     7    6    7 ar   
     8    6    8 ar   
     9    9   10 1    
    10   10   11 1    
    11   10   12 1    
    12   11   16 1    
    13   12   13 1    
    14   12   14 1    
    15   14   15 1    
    16   14   16 1    
    17   16   17 1    
    18   17   18 1    
    19   17   26 1    
    20   18   19 2    
    21   19   20 1    
    22   20   21 ar   
    23   20   26 ar   
    24   21   22 1    
    25   21   23 ar   
    26   23   24 ar   
    27   24   25 ar   
    28   25   26 ar   
@<TRIPOS>SUBSTRUCTURE
     1 SAH1001     1 GROUP   
@<TRIPOS>SET

