#    Name: 5m2x_1_SAH
#    Modification time : Fri May 22 19:13:47 2020

@<TRIPOS>MOLECULE
5m2x_1_SAH
   26    28     1     0     0
SMALL
NO_CHARGES


@<TRIPOS>ATOM
      1 N         -27.8920  142.7350 -167.4090 N.4       1 SAH1001     0.0000 
      2 CA        -27.0180  142.7110 -166.2050 C.3       1 SAH1001     0.0000 
      3 CB        -25.9590  141.6250 -166.3510 C.3       1 SAH1001     0.0000 
      4 CG        -26.3300  140.3880 -165.5420 C.3       1 SAH1001     0.0000 
      5 SD        -25.9420  138.9400 -166.4680 S.3       1 SAH1001     0.0000 
      6 C         -26.3480  144.0350 -165.9820 C.2       1 SAH1001     0.0000 
      7 O         -26.9150  145.0680 -166.4010 O.co2     1 SAH1001     0.0000 
      8 OXT       -25.2490  144.0550 -165.3870 O.co2     1 SAH1001     0.0000 
      9 C5'       -27.3930  137.9590 -166.6600 C.3       1 SAH1001     0.0000 
     10 C4'       -27.7870  137.3640 -165.3130 C.3       1 SAH1001     0.0000 
     11 O4'       -29.0790  136.7610 -165.4120 O.3       1 SAH1001     0.0000 
     12 C3'       -26.8000  136.2920 -164.8750 C.3       1 SAH1001     0.0000 
     13 O3'       -26.1320  136.7130 -163.6760 O.3       1 SAH1001     0.0000 
     14 C2'       -27.6130  135.0100 -164.7140 C.3       1 SAH1001     0.0000 
     15 O2'       -27.5840  134.4650 -163.3870 O.3       1 SAH1001     0.0000 
     16 C1'       -29.0440  135.3690 -165.0860 C.3       1 SAH1001     0.0000 
     17 N9        -29.4710  134.5700 -166.2620 N.pl3     1 SAH1001     0.0000 
     18 C8        -28.7540  133.5950 -166.8520 C.2       1 SAH1001     0.0000 
     19 N7        -29.4270  133.0600 -167.9030 N.2       1 SAH1001     0.0000 
     20 C5        -30.6060  133.7030 -167.9970 C.ar      1 SAH1001     0.0000 
     21 C6        -31.7920  133.6340 -168.8820 C.ar      1 SAH1001     0.0000 
     22 N6        -31.8530  132.7480 -169.9050 N.pl3     1 SAH1001     0.0000 
     23 N1        -32.8120  134.4860 -168.6350 N.ar      1 SAH1001     0.0000 
     24 C2        -32.7640  135.3720 -167.6220 C.ar      1 SAH1001     0.0000 
     25 N3        -31.7210  135.4880 -166.7810 N.ar      1 SAH1001     0.0000 
     26 C4        -30.6300  134.6970 -166.9130 C.ar      1 SAH1001     0.0000 
@<TRIPOS>BOND
     1    1    2 1    
     2    2    3 1    
     3    2    6 1    
     4    3    4 1    
     5    4    5 1    
     6    5    9 1    
     7    6    7 ar   
     8    6    8 ar   
     9    9   10 1    
    10   10   11 1    
    11   10   12 1    
    12   11   16 1    
    13   12   13 1    
    14   12   14 1    
    15   14   15 1    
    16   14   16 1    
    17   16   17 1    
    18   17   18 1    
    19   17   26 1    
    20   18   19 2    
    21   19   20 1    
    22   20   21 ar   
    23   20   26 ar   
    24   21   22 1    
    25   21   23 ar   
    26   23   24 ar   
    27   24   25 ar   
    28   25   26 ar   
@<TRIPOS>SUBSTRUCTURE
     1 SAH1001     1 GROUP   
@<TRIPOS>SET

