#    Name: 5m2x_6_SAH
#    Modification time : Fri May 22 19:15:01 2020

@<TRIPOS>MOLECULE
5m2x_6_SAH
   26    28     1     0     0
SMALL
NO_CHARGES


@<TRIPOS>ATOM
      1 N         -37.0330   45.7330   -3.2680 N.4       1 SAH1001     0.0000 
      2 CA        -38.1650   46.6990   -3.2480 C.3       1 SAH1001     0.0000 
      3 CB        -37.7410   48.0120   -3.8940 C.3       1 SAH1001     0.0000 
      4 CG        -37.2540   49.0050   -2.8440 C.3       1 SAH1001     0.0000 
      5 SD        -36.2670   50.2430   -3.6180 S.3       1 SAH1001     0.0000 
      6 C         -39.3670   46.1550   -3.9610 C.2       1 SAH1001     0.0000 
      7 O         -39.2010   45.5860   -5.0620 O.co2     1 SAH1001     0.0000 
      8 OXT       -40.4900   46.2920   -3.4280 O.co2     1 SAH1001     0.0000 
      9 C5'       -36.9930   51.8250   -3.3490 C.3       1 SAH1001     0.0000 
     10 C4'       -38.1190   52.0450   -4.3520 C.3       1 SAH1001     0.0000 
     11 O4'       -39.2400   52.6430   -3.6950 O.3       1 SAH1001     0.0000 
     12 C3'       -37.6830   52.9720   -5.4770 C.3       1 SAH1001     0.0000 
     13 O3'       -37.6960   52.2560   -6.7200 O.3       1 SAH1001     0.0000 
     14 C2'       -38.6380   54.1620   -5.4380 C.3       1 SAH1001     0.0000 
     15 O2'       -39.3650   54.3670   -6.6590 O.3       1 SAH1001     0.0000 
     16 C1'       -39.6150   53.8820   -4.3040 C.3       1 SAH1001     0.0000 
     17 N9        -39.5460   54.9750   -3.3020 N.pl3     1 SAH1001     0.0000 
     18 C8        -38.4230   55.4550   -2.7360 C.2       1 SAH1001     0.0000 
     19 N7        -38.7030   56.4540   -1.8610 N.2       1 SAH1001     0.0000 
     20 C5        -40.0380   56.6260   -1.8580 C.ar      1 SAH1001     0.0000 
     21 C6        -40.9990   57.5130   -1.1630 C.ar      1 SAH1001     0.0000 
     22 N6        -40.5770   58.4410   -0.2700 N.pl3     1 SAH1001     0.0000 
     23 N1        -42.3120   57.3650   -1.4490 N.ar      1 SAH1001     0.0000 
     24 C2        -42.7450   56.4480   -2.3330 C.ar      1 SAH1001     0.0000 
     25 N3        -41.9290   55.6110   -3.0000 N.ar      1 SAH1001     0.0000 
     26 C4        -40.5890   55.6490   -2.8100 C.ar      1 SAH1001     0.0000 
@<TRIPOS>BOND
     1    1    2 1    
     2    2    3 1    
     3    2    6 1    
     4    3    4 1    
     5    4    5 1    
     6    5    9 1    
     7    6    7 ar   
     8    6    8 ar   
     9    9   10 1    
    10   10   11 1    
    11   10   12 1    
    12   11   16 1    
    13   12   13 1    
    14   12   14 1    
    15   14   15 1    
    16   14   16 1    
    17   16   17 1    
    18   17   18 1    
    19   17   26 1    
    20   18   19 2    
    21   19   20 1    
    22   20   21 ar   
    23   20   26 ar   
    24   21   22 1    
    25   21   23 ar   
    26   23   24 ar   
    27   24   25 ar   
    28   25   26 ar   
@<TRIPOS>SUBSTRUCTURE
     1 SAH1001     1 GROUP   
@<TRIPOS>SET

