#    Name: 5m2x_2_SAH
#    Modification time : Fri May 22 19:14:02 2020

@<TRIPOS>MOLECULE
5m2x_2_SAH
   26    28     1     0     0
SMALL
NO_CHARGES


@<TRIPOS>ATOM
      1 N         -13.5830  130.0720 -137.5430 N.4       1 SAH1001     0.0000 
      2 CA        -13.9310  131.1980 -138.4510 C.3       1 SAH1001     0.0000 
      3 CB        -15.2730  131.7970 -138.0480 C.3       1 SAH1001     0.0000 
      4 CG        -16.3260  130.7090 -137.8750 C.3       1 SAH1001     0.0000 
      5 SD        -17.9250  131.4460 -137.7960 S.3       1 SAH1001     0.0000 
      6 C         -12.8790  132.2670 -138.4330 C.2       1 SAH1001     0.0000 
      7 O         -13.1970  133.4220 -138.7900 O.co2     1 SAH1001     0.0000 
      8 OXT       -11.7260  131.9620 -138.0610 O.co2     1 SAH1001     0.0000 
      9 C5'       -19.1550  130.1840 -137.8020 C.3       1 SAH1001     0.0000 
     10 C4'       -18.8960  129.2270 -138.9590 C.3       1 SAH1001     0.0000 
     11 O4'       -19.0640  127.8780 -138.5160 O.3       1 SAH1001     0.0000 
     12 C3'       -19.8670  129.4710 -140.1040 C.3       1 SAH1001     0.0000 
     13 O3'       -19.1410  129.9060 -141.2640 O.3       1 SAH1001     0.0000 
     14 C2'       -20.6230  128.1600 -140.3030 C.3       1 SAH1001     0.0000 
     15 O2'       -20.4870  127.6030 -141.6190 O.3       1 SAH1001     0.0000 
     16 C1'       -20.0590  127.1880 -139.2770 C.3       1 SAH1001     0.0000 
     17 N9        -21.1450  126.7230 -138.3780 N.pl3     1 SAH1001     0.0000 
     18 C8        -22.1860  127.4630 -137.9530 C.2       1 SAH1001     0.0000 
     19 N7        -23.0010  126.7420 -137.1410 N.2       1 SAH1001     0.0000 
     20 C5        -22.4770  125.5070 -137.0370 C.ar      1 SAH1001     0.0000 
     21 C6        -22.8330  124.2520 -136.3350 C.ar      1 SAH1001     0.0000 
     22 N6        -23.9430  124.1720 -135.5620 N.pl3     1 SAH1001     0.0000 
     23 N1        -22.0130  123.1890 -136.4920 N.ar      1 SAH1001     0.0000 
     24 C2        -20.9080  123.2550 -137.2570 C.ar      1 SAH1001     0.0000 
     25 N3        -20.5250  124.3600 -137.9220 N.ar      1 SAH1001     0.0000 
     26 C4        -21.2540  125.5000 -137.8540 C.ar      1 SAH1001     0.0000 
@<TRIPOS>BOND
     1    1    2 1    
     2    2    3 1    
     3    2    6 1    
     4    3    4 1    
     5    4    5 1    
     6    5    9 1    
     7    6    7 ar   
     8    6    8 ar   
     9    9   10 1    
    10   10   11 1    
    11   10   12 1    
    12   11   16 1    
    13   12   13 1    
    14   12   14 1    
    15   14   15 1    
    16   14   16 1    
    17   16   17 1    
    18   17   18 1    
    19   17   26 1    
    20   18   19 2    
    21   19   20 1    
    22   20   21 ar   
    23   20   26 ar   
    24   21   22 1    
    25   21   23 ar   
    26   23   24 ar   
    27   24   25 ar   
    28   25   26 ar   
@<TRIPOS>SUBSTRUCTURE
     1 SAH1001     1 GROUP   
@<TRIPOS>SET

