#    Name: 5m2x_5_SAH
#    Modification time : Fri May 22 19:14:47 2020

@<TRIPOS>MOLECULE
5m2x_5_SAH
   26    28     1     0     0
SMALL
NO_CHARGES


@<TRIPOS>ATOM
      1 N         -23.3570   53.7710  -32.1370 N.4       1 SAH1001     0.0000 
      2 CA        -23.0940   55.2050  -31.8400 C.3       1 SAH1001     0.0000 
      3 CB        -24.2930   55.8180  -31.1270 C.3       1 SAH1001     0.0000 
      4 CG        -25.1040   56.6930  -32.0760 C.3       1 SAH1001     0.0000 
      5 SD        -26.8180   56.3290  -31.8920 S.3       1 SAH1001     0.0000 
      6 C         -21.8670   55.3780  -30.9940 C.2       1 SAH1001     0.0000 
      7 O         -20.9260   56.0670  -31.4430 O.co2     1 SAH1001     0.0000 
      8 OXT       -21.8330   54.8260  -29.8730 O.co2     1 SAH1001     0.0000 
      9 C5'       -27.7330   57.8330  -31.8130 C.3       1 SAH1001     0.0000 
     10 C4'       -27.5070   58.4950  -30.4600 C.3       1 SAH1001     0.0000 
     11 O4'       -27.2030   59.8800  -30.6460 O.3       1 SAH1001     0.0000 
     12 C3'       -28.7480   58.4000  -29.5850 C.3       1 SAH1001     0.0000 
     13 O3'       -28.4570   57.6070  -28.4240 O.3       1 SAH1001     0.0000 
     14 C2'       -29.1530   59.8370  -29.2670 C.3       1 SAH1001     0.0000 
     15 O2'       -29.1790   60.1390  -27.8650 O.3       1 SAH1001     0.0000 
     16 C1'       -28.1310   60.7260  -29.9610 C.3       1 SAH1001     0.0000 
     17 N9        -28.8170   61.6110  -30.9360 N.pl3     1 SAH1001     0.0000 
     18 C8        -30.0410   61.4060  -31.4590 C.2       1 SAH1001     0.0000 
     19 N7        -30.3780   62.4000  -32.3200 N.2       1 SAH1001     0.0000 
     20 C5        -29.3510   63.2690  -32.3560 C.ar      1 SAH1001     0.0000 
     21 C6        -29.0510   64.5390  -33.0590 C.ar      1 SAH1001     0.0000 
     22 N6        -29.9410   65.0920  -33.9180 N.pl3     1 SAH1001     0.0000 
     23 N1        -27.8580   65.1260  -32.8130 N.ar      1 SAH1001     0.0000 
     24 C2        -26.9660   64.5870  -31.9620 C.ar      1 SAH1001     0.0000 
     25 N3        -27.1720   63.4390  -31.2920 N.ar      1 SAH1001     0.0000 
     26 C4        -28.3250   62.7440  -31.4420 C.ar      1 SAH1001     0.0000 
@<TRIPOS>BOND
     1    1    2 1    
     2    2    3 1    
     3    2    6 1    
     4    3    4 1    
     5    4    5 1    
     6    5    9 1    
     7    6    7 ar   
     8    6    8 ar   
     9    9   10 1    
    10   10   11 1    
    11   10   12 1    
    12   11   16 1    
    13   12   13 1    
    14   12   14 1    
    15   14   15 1    
    16   14   16 1    
    17   16   17 1    
    18   17   18 1    
    19   17   26 1    
    20   18   19 2    
    21   19   20 1    
    22   20   21 ar   
    23   20   26 ar   
    24   21   22 1    
    25   21   23 ar   
    26   23   24 ar   
    27   24   25 ar   
    28   25   26 ar   
@<TRIPOS>SUBSTRUCTURE
     1 SAH1001     1 GROUP   
@<TRIPOS>SET

