#    Name: 5m2x_3_SAH
#    Modification time : Fri May 22 19:14:17 2020

@<TRIPOS>MOLECULE
5m2x_3_SAH
   26    28     1     0     0
SMALL
NO_CHARGES


@<TRIPOS>ATOM
      1 N          -3.8150  101.5910  -99.2550 N.4       1 SAH1001     0.0000 
      2 CA         -3.7930  100.6830  -98.0760 C.3       1 SAH1001     0.0000 
      3 CB         -5.0760   99.8630  -98.0270 C.3       1 SAH1001     0.0000 
      4 CG         -5.5590   99.5190  -99.4310 C.3       1 SAH1001     0.0000 
      5 SD         -6.6270   98.1190  -99.3590 S.3       1 SAH1001     0.0000 
      6 C          -2.6110   99.7610  -98.1110 C.2       1 SAH1001     0.0000 
      7 O          -1.6010  100.1100  -98.7610 O.co2     1 SAH1001     0.0000 
      8 OXT        -2.6800   98.6780  -97.4900 O.co2     1 SAH1001     0.0000 
      9 C5'        -8.3020   98.6620  -99.2990 C.3       1 SAH1001     0.0000 
     10 C4'        -8.7760   98.6960  -97.8520 C.3       1 SAH1001     0.0000 
     11 O4'        -9.9330   99.5290  -97.7430 O.3       1 SAH1001     0.0000 
     12 C3'        -9.1500   97.3050  -97.3620 C.3       1 SAH1001     0.0000 
     13 O3'        -8.2860   96.9280  -96.2790 O.3       1 SAH1001     0.0000 
     14 C2'       -10.6270   97.3740  -96.9810 C.3       1 SAH1001     0.0000 
     15 O2'       -10.8900   97.0440  -95.6100 O.3       1 SAH1001     0.0000 
     16 C1'       -11.0660   98.8050  -97.2540 C.3       1 SAH1001     0.0000 
     17 N9        -12.1420   98.8120  -98.2760 N.pl3     1 SAH1001     0.0000 
     18 C8        -12.7460   97.7240  -98.7910 C.2       1 SAH1001     0.0000 
     19 N7        -13.6880   98.0730  -99.7040 N.2       1 SAH1001     0.0000 
     20 C5        -13.6950   99.4160  -99.7850 C.ar      1 SAH1001     0.0000 
     21 C6        -14.4460  100.4360 -100.5540 C.ar      1 SAH1001     0.0000 
     22 N6        -15.4030  100.0780 -101.4440 N.pl3     1 SAH1001     0.0000 
     23 N1        -14.1430  101.7350 -100.3380 N.ar      1 SAH1001     0.0000 
     24 C2        -13.1950  102.1040  -99.4580 C.ar      1 SAH1001     0.0000 
     25 N3        -12.4750  101.2330  -98.7270 N.ar      1 SAH1001     0.0000 
     26 C4        -12.6740   99.8980  -98.8420 C.ar      1 SAH1001     0.0000 
@<TRIPOS>BOND
     1    1    2 1    
     2    2    3 1    
     3    2    6 1    
     4    3    4 1    
     5    4    5 1    
     6    5    9 1    
     7    6    7 ar   
     8    6    8 ar   
     9    9   10 1    
    10   10   11 1    
    11   10   12 1    
    12   11   16 1    
    13   12   13 1    
    14   12   14 1    
    15   14   15 1    
    16   14   16 1    
    17   16   17 1    
    18   17   18 1    
    19   17   26 1    
    20   18   19 2    
    21   19   20 1    
    22   20   21 ar   
    23   20   26 ar   
    24   21   22 1    
    25   21   23 ar   
    26   23   24 ar   
    27   24   25 ar   
    28   25   26 ar   
@<TRIPOS>SUBSTRUCTURE
     1 SAH1001     1 GROUP   
@<TRIPOS>SET

