#    Name: 5ylj_5_ACP
#    Modification time : Fri May 22 19:12:14 2020

@<TRIPOS>MOLECULE
5ylj_5_ACP
   31    33     1     0     1
SMALL
NO_CHARGES


@<TRIPOS>ATOM
      1 PG          8.1370  206.4680   94.2720 P.3       1 ACP401      0.0000 
      2 O1G         9.0690  207.1420   93.1460 O.co2     1 ACP401      0.0000 
      3 O2G         8.2130  204.9960   94.1370 O.co2     1 ACP401      0.0000 
      4 O3G         6.6100  206.9400   94.0720 O.co2     1 ACP401      0.0000 
      5 PB         10.5020  206.7130   96.0590 P.3       1 ACP401      0.0000 
      6 O1B        11.2060  207.7110   95.2230 O.co2     1 ACP401      0.0000 
      7 O2B        10.8760  205.2470   95.5090 O.co2     1 ACP401      0.0000 
      8 C3B         8.7060  206.9440   95.9260 C.3       1 ACP401      0.0000 
      9 PA         10.5160  207.9590   98.6530 P.3       1 ACP401      0.0000 
     10 O1A         9.9400  209.1450   97.9200 O.co2     1 ACP401      0.0000 
     11 O2A        11.6330  208.2030   99.6380 O.co2     1 ACP401      0.0000 
     12 O3A        11.0110  206.8430   97.5880 O.3       1 ACP401      0.0000 
     13 O5'         9.3250  207.2150   99.4440 O.3       1 ACP401      0.0000 
     14 C5'         9.4830  205.8750   99.9240 C.3       1 ACP401      0.0000 
     15 C4'         8.5230  205.5080  101.0590 C.3       1 ACP401      0.0000 
     16 O4'         9.1010  205.8550  102.3220 O.3       1 ACP401      0.0000 
     17 C3'         7.1600  206.1850  100.9680 C.3       1 ACP401      0.0000 
     18 O3'         6.1740  205.2530  100.5110 O.3       1 ACP401      0.0000 
     19 C2'         6.8740  206.7160  102.3640 C.3       1 ACP401      0.0000 
     20 O2'         5.8270  205.9860  103.0110 O.3       1 ACP401      0.0000 
     21 C1'         8.1690  206.5550  103.1500 C.3       1 ACP401      0.0000 
     22 N9          8.7130  207.8900  103.5210 N.pl3     1 ACP401      0.0000 
     23 C8          9.5770  208.6240  102.7900 C.2       1 ACP401      0.0000 
     24 N7          9.8780  209.7950  103.4040 N.2       1 ACP401      0.0000 
     25 C5          9.1960  209.8290  104.5630 C.ar      1 ACP401      0.0000 
     26 C6          9.0530  210.7790  105.7010 C.ar      1 ACP401      0.0000 
     27 N6          9.7220  211.9570  105.7170 N.pl3     1 ACP401      0.0000 
     28 N1          8.2330  210.4270  106.7250 N.ar      1 ACP401      0.0000 
     29 C2          7.5560  209.2560  106.7300 C.ar      1 ACP401      0.0000 
     30 N3          7.6400  208.3500  105.7300 N.ar      1 ACP401      0.0000 
     31 C4          8.4280  208.5700  104.6390 C.ar      1 ACP401      0.0000 
@<TRIPOS>BOND
     1    1    2 ar   
     2    1    3 ar   
     3    1    4 ar   
     4    1    8 1    
     5    5    6 ar   
     6    5    7 ar   
     7    5    8 1    
     8    5   12 1    
     9    9   10 ar   
    10    9   11 ar   
    11    9   12 1    
    12    9   13 1    
    13   13   14 1    
    14   14   15 1    
    15   15   16 1    
    16   15   17 1    
    17   16   21 1    
    18   17   18 1    
    19   17   19 1    
    20   19   20 1    
    21   19   21 1    
    22   21   22 1    
    23   22   23 1    
    24   22   31 1    
    25   23   24 2    
    26   24   25 1    
    27   25   26 ar   
    28   25   31 ar   
    29   26   27 1    
    30   26   28 ar   
    31   28   29 ar   
    32   29   30 ar   
    33   30   31 ar   
@<TRIPOS>SUBSTRUCTURE
     1 ACP401      1 GROUP   
@<TRIPOS>SET
ATOM$ORANGE STATIC     ATOMS   COLORGROUP SYSTEM 
22 8 8 14 14 15 15 17 17 19 19 21 21 23 23 25 25 26 \
26 29 29 31 31 

