#    Name: 5zo9_1_ADP
#    Modification time : Fri May 22 19:24:07 2020

@<TRIPOS>MOLECULE
5zo9_1_ADP
   27    29     1     0     1
SMALL
NO_CHARGES


@<TRIPOS>ATOM
      1 PB         28.4060   -8.3700   -0.0160 P.3       1 ADP600      0.0000 
      2 O1B        28.0050   -7.3100   -1.0220 O.co2     1 ADP600      0.0000 
      3 O2B        27.6150   -8.3040    1.2630 O.co2     1 ADP600      0.0000 
      4 O3B        29.9540   -8.5120    0.1650 O.co2     1 ADP600      0.0000 
      5 PA         27.6010  -10.2550   -1.9480 P.3       1 ADP600      0.0000 
      6 O1A        28.8610   -9.9530   -2.7400 O.co2     1 ADP600      0.0000 
      7 O2A        26.2650   -9.6250   -2.3230 O.co2     1 ADP600      0.0000 
      8 O3A        27.8850   -9.8490   -0.4170 O.3       1 ADP600      0.0000 
      9 O5'        27.2260  -11.8560   -1.8730 O.3       1 ADP600      0.0000 
     10 C5'        28.0690  -12.8650   -1.3110 C.3       1 ADP600      0.0000 
     11 C4'        28.0160  -14.1680   -2.0980 C.3       1 ADP600      0.0000 
     12 O4'        27.0910  -15.0830   -1.4800 O.3       1 ADP600      0.0000 
     13 C3'        27.5170  -13.9880   -3.5110 C.3       1 ADP600      0.0000 
     14 O3'        28.0260  -15.0310   -4.3020 O.3       1 ADP600      0.0000 
     15 C2'        26.0240  -14.1980   -3.4140 C.3       1 ADP600      0.0000 
     16 O2'        25.4260  -14.6300   -4.6370 O.3       1 ADP600      0.0000 
     17 C1'        25.8930  -15.2130   -2.2750 C.3       1 ADP600      0.0000 
     18 N9         24.6750  -14.8500   -1.5150 N.pl3     1 ADP600      0.0000 
     19 C8         24.5650  -13.8090   -0.6330 C.2       1 ADP600      0.0000 
     20 N7         23.3190  -13.7120   -0.1050 N.2       1 ADP600      0.0000 
     21 C5         22.6210  -14.7010   -0.6720 C.ar      1 ADP600      0.0000 
     22 C6         21.2380  -15.1830   -0.5500 C.ar      1 ADP600      0.0000 
     23 N6         20.4070  -14.5270    0.2900 N.pl3     1 ADP600      0.0000 
     24 N1         20.8690  -16.2630   -1.3060 N.ar      1 ADP600      0.0000 
     25 C2         21.7320  -16.8950   -2.1390 C.ar      1 ADP600      0.0000 
     26 N3         23.0240  -16.4940   -2.3000 N.ar      1 ADP600      0.0000 
     27 C4         23.5060  -15.4440   -1.6010 C.ar      1 ADP600      0.0000 
@<TRIPOS>BOND
     1    1    2 ar   
     2    1    3 ar   
     3    1    4 ar   
     4    1    8 1    
     5    5    6 ar   
     6    5    7 ar   
     7    5    8 1    
     8    5    9 1    
     9    9   10 1    
    10   10   11 1    
    11   11   12 1    
    12   11   13 1    
    13   12   17 1    
    14   13   14 1    
    15   13   15 1    
    16   15   16 1    
    17   15   17 1    
    18   17   18 1    
    19   18   19 1    
    20   18   27 1    
    21   19   20 2    
    22   20   21 1    
    23   21   22 ar   
    24   21   27 ar   
    25   22   23 1    
    26   22   24 ar   
    27   24   25 ar   
    28   25   26 ar   
    29   26   27 ar   
@<TRIPOS>SUBSTRUCTURE
     1 ADP600      1 GROUP   
@<TRIPOS>SET
ATOM$ORANGE STATIC     ATOMS   COLORGROUP SYSTEM 
20 10 10 11 11 13 13 15 15 17 17 19 19 21 21 22 22 25 \
25 27 27 

