#    Name: 6s5o_1_ADP
#    Modification time : Fri May 22 19:29:24 2020

@<TRIPOS>MOLECULE
6s5o_1_ADP
   27    29     1     0     1
SMALL
NO_CHARGES


@<TRIPOS>ATOM
      1 PB         -8.7720    0.2920  -22.1200 P.3       1 ADP601      0.0000 
      2 O1B        -8.3090   -0.8800  -22.9510 O.co2     1 ADP601      0.0000 
      3 O2B        -7.6710    1.2340  -21.6970 O.co2     1 ADP601      0.0000 
      4 O3B       -10.0170    0.9720  -22.6410 O.co2     1 ADP601      0.0000 
      5 PA         -9.8390    0.4690  -19.5220 P.3       1 ADP601      0.0000 
      6 O1A        -9.9040    1.9330  -19.8910 O.co2     1 ADP601      0.0000 
      7 O2A        -9.1430    0.0350  -18.2540 O.co2     1 ADP601      0.0000 
      8 O3A        -9.2630   -0.3970  -20.7510 O.3       1 ADP601      0.0000 
      9 O5'       -11.3490   -0.0760  -19.4690 O.3       1 ADP601      0.0000 
     10 C5'       -11.6450   -1.2760  -18.7670 C.3       1 ADP601      0.0000 
     11 C4'       -13.1410   -1.3270  -18.5100 C.3       1 ADP601      0.0000 
     12 O4'       -13.5650   -2.6860  -18.4160 O.3       1 ADP601      0.0000 
     13 C3'       -13.4880   -0.6380  -17.2010 C.3       1 ADP601      0.0000 
     14 O3'       -14.3120    0.5030  -17.4550 O.3       1 ADP601      0.0000 
     15 C2'       -14.2490   -1.6640  -16.3850 C.3       1 ADP601      0.0000 
     16 O2'       -15.5080   -1.1310  -15.9680 O.3       1 ADP601      0.0000 
     17 C1'       -14.4570   -2.8480  -17.3150 C.3       1 ADP601      0.0000 
     18 N9        -14.1570   -4.1180  -16.6150 N.pl3     1 ADP601      0.0000 
     19 C8        -13.0230   -4.4110  -15.9510 C.2       1 ADP601      0.0000 
     20 N7        -13.0760   -5.6610  -15.4240 N.2       1 ADP601      0.0000 
     21 C5        -14.2710   -6.1860  -15.7530 C.ar      1 ADP601      0.0000 
     22 C6        -14.9790   -7.4670  -15.5200 C.ar      1 ADP601      0.0000 
     23 N6        -14.4040   -8.4660  -14.8080 N.pl3     1 ADP601      0.0000 
     24 N1        -16.2180   -7.6050  -16.0420 N.ar      1 ADP601      0.0000 
     25 C2        -16.8020   -6.6210  -16.7520 C.ar      1 ADP601      0.0000 
     26 N3        -16.2200   -5.4350  -17.0010 N.ar      1 ADP601      0.0000 
     27 C4        -14.9780   -5.1640  -16.5370 C.ar      1 ADP601      0.0000 
@<TRIPOS>BOND
     1    1    2 ar   
     2    1    3 ar   
     3    1    4 ar   
     4    1    8 1    
     5    5    6 ar   
     6    5    7 ar   
     7    5    8 1    
     8    5    9 1    
     9    9   10 1    
    10   10   11 1    
    11   11   12 1    
    12   11   13 1    
    13   12   17 1    
    14   13   14 1    
    15   13   15 1    
    16   15   16 1    
    17   15   17 1    
    18   17   18 1    
    19   18   19 1    
    20   18   27 1    
    21   19   20 2    
    22   20   21 1    
    23   21   22 ar   
    24   21   27 ar   
    25   22   23 1    
    26   22   24 ar   
    27   24   25 ar   
    28   25   26 ar   
    29   26   27 ar   
@<TRIPOS>SUBSTRUCTURE
     1 ADP601      1 GROUP   
@<TRIPOS>SET
ATOM$ORANGE STATIC     ATOMS   COLORGROUP SYSTEM 
20 10 10 11 11 13 13 15 15 17 17 19 19 21 21 22 22 25 \
25 27 27 

