#    Name: 6s5o_6_ADP
#    Modification time : Fri May 22 19:29:35 2020

@<TRIPOS>MOLECULE
6s5o_6_ADP
   27    29     1     0     1
SMALL
NO_CHARGES


@<TRIPOS>ATOM
      1 PB         44.3760  -16.1080  -58.2480 P.3       1 ADP601      0.0000 
      2 O1B        44.5530  -17.4400  -58.9320 O.co2     1 ADP601      0.0000 
      3 O2B        43.2140  -15.2880  -58.7540 O.co2     1 ADP601      0.0000 
      4 O3B        44.5000  -16.1650  -56.7440 O.co2     1 ADP601      0.0000 
      5 PA         46.0430  -13.8500  -58.0940 P.3       1 ADP601      0.0000 
      6 O1A        46.4230  -12.9210  -59.2220 O.co2     1 ADP601      0.0000 
      7 O2A        44.9980  -13.4340  -57.0850 O.co2     1 ADP601      0.0000 
      8 O3A        45.6820  -15.2910  -58.7100 O.3       1 ADP601      0.0000 
      9 O5'        47.3780  -14.2130  -57.2760 O.3       1 ADP601      0.0000 
     10 C5'        48.5660  -14.5690  -57.9760 C.3       1 ADP601      0.0000 
     11 C4'        49.7310  -14.5710  -56.9990 C.3       1 ADP601      0.0000 
     12 O4'        50.8450  -15.2660  -57.5600 O.3       1 ADP601      0.0000 
     13 C3'        50.1810  -13.1520  -56.6920 C.3       1 ADP601      0.0000 
     14 O3'        49.9320  -12.8450  -55.3170 O.3       1 ADP601      0.0000 
     15 C2'        51.6700  -13.1230  -56.9710 C.3       1 ADP601      0.0000 
     16 O2'        52.3830  -12.6230  -55.8370 O.3       1 ADP601      0.0000 
     17 C1'        52.0510  -14.5680  -57.2510 C.3       1 ADP601      0.0000 
     18 N9         52.9990  -14.6370  -58.3890 N.pl3     1 ADP601      0.0000 
     19 C8         52.8230  -14.0900  -59.6060 C.2       1 ADP601      0.0000 
     20 N7         53.8880  -14.3380  -60.4110 N.2       1 ADP601      0.0000 
     21 C5         54.7730  -15.0580  -59.6960 C.ar      1 ADP601      0.0000 
     22 C6         56.1090  -15.6550  -59.9350 C.ar      1 ADP601      0.0000 
     23 N6         56.7290  -15.5280  -61.1330 N.pl3     1 ADP601      0.0000 
     24 N1         56.6860  -16.3300  -58.9160 N.ar      1 ADP601      0.0000 
     25 C2         56.0810  -16.4650  -57.7200 C.ar      1 ADP601      0.0000 
     26 N3         54.8730  -15.9500  -57.4340 N.ar      1 ADP601      0.0000 
     27 C4         54.1820  -15.2480  -58.3640 C.ar      1 ADP601      0.0000 
@<TRIPOS>BOND
     1    1    2 ar   
     2    1    3 ar   
     3    1    4 ar   
     4    1    8 1    
     5    5    6 ar   
     6    5    7 ar   
     7    5    8 1    
     8    5    9 1    
     9    9   10 1    
    10   10   11 1    
    11   11   12 1    
    12   11   13 1    
    13   12   17 1    
    14   13   14 1    
    15   13   15 1    
    16   15   16 1    
    17   15   17 1    
    18   17   18 1    
    19   18   19 1    
    20   18   27 1    
    21   19   20 2    
    22   20   21 1    
    23   21   22 ar   
    24   21   27 ar   
    25   22   23 1    
    26   22   24 ar   
    27   24   25 ar   
    28   25   26 ar   
    29   26   27 ar   
@<TRIPOS>SUBSTRUCTURE
     1 ADP601      1 GROUP   
@<TRIPOS>SET
ATOM$ORANGE STATIC     ATOMS   COLORGROUP SYSTEM 
20 10 10 11 11 13 13 15 15 17 17 19 19 21 21 22 22 25 \
25 27 27 

