#    Name: 6s5o_7_ADP
#    Modification time : Fri May 22 19:29:38 2020

@<TRIPOS>MOLECULE
6s5o_7_ADP
   27    29     1     0     1
SMALL
NO_CHARGES


@<TRIPOS>ATOM
      1 PB         56.4420   54.2540   -2.7630 P.3       1 ADP601      0.0000 
      2 O1B        55.9240   53.5270   -3.9790 O.co2     1 ADP601      0.0000 
      3 O2B        55.3860   54.6080   -1.7440 O.co2     1 ADP601      0.0000 
      4 O3B        57.7070   53.6660   -2.1860 O.co2     1 ADP601      0.0000 
      5 PA         57.5980   56.7790   -2.4120 P.3       1 ADP601      0.0000 
      6 O1A        56.9420   58.1140   -2.6800 O.co2     1 ADP601      0.0000 
      7 O2A        57.7050   56.2560   -0.9990 O.co2     1 ADP601      0.0000 
      8 O3A        56.9180   55.6700   -3.3560 O.3       1 ADP601      0.0000 
      9 O5'        59.0860   56.8050   -3.0210 O.3       1 ADP601      0.0000 
     10 C5'        59.3400   57.4190   -4.2800 C.3       1 ADP601      0.0000 
     11 C4'        60.8390   57.6310   -4.4290 C.3       1 ADP601      0.0000 
     12 O4'        61.1400   58.0290   -5.7670 O.3       1 ADP601      0.0000 
     13 C3'        61.3170   58.7320   -3.4960 C.3       1 ADP601      0.0000 
     14 O3'        62.3160   58.2180   -2.6110 O.3       1 ADP601      0.0000 
     15 C2'        61.9150   59.7970   -4.3930 C.3       1 ADP601      0.0000 
     16 O2'        63.1980   60.2060   -3.9130 O.3       1 ADP601      0.0000 
     17 C1'        62.0350   59.1400   -5.7560 C.3       1 ADP601      0.0000 
     18 N9         61.6630   60.1110   -6.8090 N.pl3     1 ADP601      0.0000 
     19 C8         60.5460   60.8620   -6.8370 C.2       1 ADP601      0.0000 
     20 N7         60.5180   61.6510   -7.9410 N.2       1 ADP601      0.0000 
     21 C5         61.6440   61.4090   -8.6370 C.ar      1 ADP601      0.0000 
     22 C6         62.2490   61.8980   -9.8960 C.ar      1 ADP601      0.0000 
     23 N6         61.6230   62.8330  -10.6510 N.pl3     1 ADP601      0.0000 
     24 N1         63.4430   61.3810  -10.2630 N.ar      1 ADP601      0.0000 
     25 C2         64.0730   60.4520   -9.5210 C.ar      1 ADP601      0.0000 
     26 N3         63.5840   59.9630   -8.3690 N.ar      1 ADP601      0.0000 
     27 C4         62.3970   60.3970   -7.8830 C.ar      1 ADP601      0.0000 
@<TRIPOS>BOND
     1    1    2 ar   
     2    1    3 ar   
     3    1    4 ar   
     4    1    8 1    
     5    5    6 ar   
     6    5    7 ar   
     7    5    8 1    
     8    5    9 1    
     9    9   10 1    
    10   10   11 1    
    11   11   12 1    
    12   11   13 1    
    13   12   17 1    
    14   13   14 1    
    15   13   15 1    
    16   15   16 1    
    17   15   17 1    
    18   17   18 1    
    19   18   19 1    
    20   18   27 1    
    21   19   20 2    
    22   20   21 1    
    23   21   22 ar   
    24   21   27 ar   
    25   22   23 1    
    26   22   24 ar   
    27   24   25 ar   
    28   25   26 ar   
    29   26   27 ar   
@<TRIPOS>SUBSTRUCTURE
     1 ADP601      1 GROUP   
@<TRIPOS>SET
ATOM$ORANGE STATIC     ATOMS   COLORGROUP SYSTEM 
20 10 10 11 11 13 13 15 15 17 17 19 19 21 21 22 22 25 \
25 27 27 

