#    Name: 6s5o_8_ADP
#    Modification time : Fri May 22 19:29:41 2020

@<TRIPOS>MOLECULE
6s5o_8_ADP
   27    29     1     0     1
SMALL
NO_CHARGES


@<TRIPOS>ATOM
      1 PB         45.4990   52.5450    1.1190 P.3       1 ADP601      0.0000 
      2 O1B        46.2220   53.3860    0.0940 O.co2     1 ADP601      0.0000 
      3 O2B        46.4000   51.8390    2.1020 O.co2     1 ADP601      0.0000 
      4 O3B        44.3900   51.6840    0.5620 O.co2     1 ADP601      0.0000 
      5 PA         43.6200   54.5930    1.4000 P.3       1 ADP601      0.0000 
      6 O1A        43.5450   54.3970   -0.0970 O.co2     1 ADP601      0.0000 
      7 O2A        43.8040   55.9740    1.9830 O.co2     1 ADP601      0.0000 
      8 O3A        44.7240   53.6130    2.0350 O.3       1 ADP601      0.0000 
      9 O5'        42.2850   53.9570    2.0220 O.3       1 ADP601      0.0000 
     10 C5'        41.8430   54.3630    3.3090 C.3       1 ADP601      0.0000 
     11 C4'        40.3560   54.0780    3.4120 C.3       1 ADP601      0.0000 
     12 O4'        39.9970   53.9370    4.7840 O.3       1 ADP601      0.0000 
     13 C3'        39.5530   55.2270    2.8270 C.3       1 ADP601      0.0000 
     14 O3'        38.7710   54.7560    1.7270 O.3       1 ADP601      0.0000 
     15 C2'        38.6490   55.7070    3.9430 C.3       1 ADP601      0.0000 
     16 O2'        37.2900   55.7200    3.4990 O.3       1 ADP601      0.0000 
     17 C1'        38.8320   54.7060    5.0730 C.3       1 ADP601      0.0000 
     18 N9         39.0240   55.4110    6.3610 N.pl3     1 ADP601      0.0000 
     19 C8         39.9110   56.3940    6.6050 C.2       1 ADP601      0.0000 
     20 N7         39.8240   56.8210    7.8900 N.2       1 ADP601      0.0000 
     21 C5         38.8590   56.0980    8.4860 C.ar      1 ADP601      0.0000 
     22 C6         38.2540   56.0340    9.8340 C.ar      1 ADP601      0.0000 
     23 N6         38.6770   56.8540   10.8240 N.pl3     1 ADP601      0.0000 
     24 N1         37.2680   55.1330   10.0360 N.ar      1 ADP601      0.0000 
     25 C2         36.8410   54.3140    9.0560 C.ar      1 ADP601      0.0000 
     26 N3         37.3430   54.3170    7.8110 N.ar      1 ADP601      0.0000 
     27 C4         38.3340   55.1730    7.4730 C.ar      1 ADP601      0.0000 
@<TRIPOS>BOND
     1    1    2 ar   
     2    1    3 ar   
     3    1    4 ar   
     4    1    8 1    
     5    5    6 ar   
     6    5    7 ar   
     7    5    8 1    
     8    5    9 1    
     9    9   10 1    
    10   10   11 1    
    11   11   12 1    
    12   11   13 1    
    13   12   17 1    
    14   13   14 1    
    15   13   15 1    
    16   15   16 1    
    17   15   17 1    
    18   17   18 1    
    19   18   19 1    
    20   18   27 1    
    21   19   20 2    
    22   20   21 1    
    23   21   22 ar   
    24   21   27 ar   
    25   22   23 1    
    26   22   24 ar   
    27   24   25 ar   
    28   25   26 ar   
    29   26   27 ar   
@<TRIPOS>SUBSTRUCTURE
     1 ADP601      1 GROUP   
@<TRIPOS>SET
ATOM$ORANGE STATIC     ATOMS   COLORGROUP SYSTEM 
20 10 10 11 11 13 13 15 15 17 17 19 19 21 21 22 22 25 \
25 27 27 

