#    Name: 6s5o_2_ADP
#    Modification time : Fri May 22 19:29:29 2020

@<TRIPOS>MOLECULE
6s5o_2_ADP
   27    29     1     0     1
SMALL
NO_CHARGES


@<TRIPOS>ATOM
      1 PB          1.0420    3.6840  -23.4770 P.3       1 ADP601      0.0000 
      2 O1B         2.1050    2.9280  -24.2380 O.co2     1 ADP601      0.0000 
      3 O2B         0.5970    4.9610  -24.1450 O.co2     1 ADP601      0.0000 
      4 O3B        -0.0780    2.8250  -22.9410 O.co2     1 ADP601      0.0000 
      5 PA          2.6410    3.2110  -21.2170 P.3       1 ADP601      0.0000 
      6 O1A         2.5050    1.7900  -21.7090 O.co2     1 ADP601      0.0000 
      7 O2A         2.3470    3.5480  -19.7740 O.co2     1 ADP601      0.0000 
      8 O3A         1.8080    4.2100  -22.1650 O.3       1 ADP601      0.0000 
      9 O5'         4.1400    3.6880  -21.5510 O.3       1 ADP601      0.0000 
     10 C5'         4.6550    4.8940  -20.9970 C.3       1 ADP601      0.0000 
     11 C4'         6.1510    4.9520  -21.2620 C.3       1 ADP601      0.0000 
     12 O4'         6.6230    6.2940  -21.1370 O.3       1 ADP601      0.0000 
     13 C3'         6.9080    4.0990  -20.2580 C.3       1 ADP601      0.0000 
     14 O3'         7.6050    3.0530  -20.9410 O.3       1 ADP601      0.0000 
     15 C2'         7.8980    5.0310  -19.5900 C.3       1 ADP601      0.0000 
     16 O2'         9.2080    4.4600  -19.6190 O.3       1 ADP601      0.0000 
     17 C1'         7.8480    6.3150  -20.4040 C.3       1 ADP601      0.0000 
     18 N9          7.8890    7.5070  -19.5220 N.pl3     1 ADP601      0.0000 
     19 C8          7.0280    7.7860  -18.5260 C.2       1 ADP601      0.0000 
     20 N7          7.3480    8.9560  -17.9160 N.2       1 ADP601      0.0000 
     21 C5          8.4410    9.4430  -18.5290 C.ar      1 ADP601      0.0000 
     22 C6          9.3020   10.6390  -18.3860 C.ar      1 ADP601      0.0000 
     23 N6          9.0490   11.5730  -17.4390 N.pl3     1 ADP601      0.0000 
     24 N1         10.3480   10.7670  -19.2330 N.ar      1 ADP601      0.0000 
     25 C2         10.6110    9.8470  -20.1800 C.ar      1 ADP601      0.0000 
     26 N3          9.8730    8.7390  -20.3650 N.ar      1 ADP601      0.0000 
     27 C4          8.7950    8.4830  -19.5850 C.ar      1 ADP601      0.0000 
@<TRIPOS>BOND
     1    1    2 ar   
     2    1    3 ar   
     3    1    4 ar   
     4    1    8 1    
     5    5    6 ar   
     6    5    7 ar   
     7    5    8 1    
     8    5    9 1    
     9    9   10 1    
    10   10   11 1    
    11   11   12 1    
    12   11   13 1    
    13   12   17 1    
    14   13   14 1    
    15   13   15 1    
    16   15   16 1    
    17   15   17 1    
    18   17   18 1    
    19   18   19 1    
    20   18   27 1    
    21   19   20 2    
    22   20   21 1    
    23   21   22 ar   
    24   21   27 ar   
    25   22   23 1    
    26   22   24 ar   
    27   24   25 ar   
    28   25   26 ar   
    29   26   27 ar   
@<TRIPOS>SUBSTRUCTURE
     1 ADP601      1 GROUP   
@<TRIPOS>SET
ATOM$ORANGE STATIC     ATOMS   COLORGROUP SYSTEM 
20 10 10 11 11 13 13 15 15 17 17 19 19 21 21 22 22 25 \
25 27 27 

