#    Name: 6pp9_1_ANP
#    Modification time : Fri May 22 19:31:53 2020

@<TRIPOS>MOLECULE
6pp9_1_ANP
   31    33     1     0     1
SMALL
NO_CHARGES


@<TRIPOS>ATOM
      1 PG         42.9560  -29.4460   -3.4340 P.3       1 ANP801      0.0000 
      2 O1G        42.8690  -30.0820   -2.0830 O.co2     1 ANP801      0.0000 
      3 O2G        42.2550  -30.3790   -4.4940 O.co2     1 ANP801      0.0000 
      4 O3G        42.2290  -28.0410   -3.4050 O.co2     1 ANP801      0.0000 
      5 PB         45.1680  -30.5450   -4.6960 P.3       1 ANP801      0.0000 
      6 O1B        44.2480  -30.8740   -5.8260 O.co2     1 ANP801      0.0000 
      7 O2B        46.5700  -30.1990   -5.2740 O.co2     1 ANP801      0.0000 
      8 N3B        44.5800  -29.2180   -3.8550 N.3       1 ANP801      0.0000 
      9 PA         44.4830  -33.1040   -3.8620 P.3       1 ANP801      0.0000 
     10 O1A        43.1460  -32.9070   -4.4680 O.co2     1 ANP801      0.0000 
     11 O2A        44.4090  -33.7040   -2.4560 O.co2     1 ANP801      0.0000 
     12 O3A        45.2990  -31.7470   -3.7100 O.3       1 ANP801      0.0000 
     13 O5'        45.3490  -34.0140   -4.8230 O.3       1 ANP801      0.0000 
     14 C5'        46.5440  -34.6630   -4.3410 C.3       1 ANP801      0.0000 
     15 C4'        47.2250  -35.3780   -5.4830 C.3       1 ANP801      0.0000 
     16 O4'        46.3280  -36.3660   -6.0410 O.3       1 ANP801      0.0000 
     17 C3'        47.6710  -34.4930   -6.6460 C.3       1 ANP801      0.0000 
     18 O3'        48.9370  -34.9060   -7.1480 O.3       1 ANP801      0.0000 
     19 C2'        46.5550  -34.6850   -7.6760 C.3       1 ANP801      0.0000 
     20 O2'        47.0260  -34.5180   -9.0080 O.3       1 ANP801      0.0000 
     21 C1'        46.1500  -36.1360   -7.4240 C.3       1 ANP801      0.0000 
     22 N9         44.7580  -36.4240   -7.7580 N.pl3     1 ANP801      0.0000 
     23 C8         43.6440  -35.8790   -7.1800 C.2       1 ANP801      0.0000 
     24 N7         42.5130  -36.3220   -7.6770 N.2       1 ANP801      0.0000 
     25 C5         42.9140  -37.2220   -8.6500 C.ar      1 ANP801      0.0000 
     26 C6         42.1920  -38.0370   -9.5450 C.ar      1 ANP801      0.0000 
     27 N6         40.8590  -38.0730   -9.6040 N.pl3     1 ANP801      0.0000 
     28 N1         42.8990  -38.8230  -10.3890 N.ar      1 ANP801      0.0000 
     29 C2         44.2330  -38.7880  -10.3350 C.ar      1 ANP801      0.0000 
     30 N3         45.0210  -38.0650   -9.5350 N.ar      1 ANP801      0.0000 
     31 C4         44.2970  -37.2990   -8.7140 C.ar      1 ANP801      0.0000 
@<TRIPOS>BOND
     1    1    2 ar   
     2    1    3 ar   
     3    1    4 ar   
     4    1    8 1    
     5    5    6 ar   
     6    5    7 ar   
     7    5    8 1    
     8    5   12 1    
     9    9   10 ar   
    10    9   11 ar   
    11    9   12 1    
    12    9   13 1    
    13   13   14 1    
    14   14   15 1    
    15   15   16 1    
    16   15   17 1    
    17   16   21 1    
    18   17   18 1    
    19   17   19 1    
    20   19   20 1    
    21   19   21 1    
    22   21   22 1    
    23   22   23 1    
    24   22   31 1    
    25   23   24 2    
    26   24   25 1    
    27   25   26 ar   
    28   25   31 ar   
    29   26   27 1    
    30   26   28 ar   
    31   28   29 ar   
    32   29   30 ar   
    33   30   31 ar   
@<TRIPOS>SUBSTRUCTURE
     1 ANP801      1 GROUP   
@<TRIPOS>SET
ATOM$ORANGE STATIC     ATOMS   COLORGROUP SYSTEM 
20 14 14 15 15 17 17 19 19 21 21 23 23 25 25 26 26 29 \
29 31 31 

