#    Name: 5ze9_2_ANP
#    Modification time : Fri May 22 19:28:38 2020

@<TRIPOS>MOLECULE
5ze9_2_ANP
   31    33     1     0     1
SMALL
NO_CHARGES


@<TRIPOS>ATOM
      1 PG        -36.6170  -23.6450  -18.8330 P.3       1 ANP601      0.0000 
      2 O1G       -35.7050  -23.8520  -20.0210 O.co2     1 ANP601      0.0000 
      3 O2G       -36.9800  -25.0320  -18.2410 O.co2     1 ANP601      0.0000 
      4 O3G       -35.8800  -22.7790  -17.7150 O.co2     1 ANP601      0.0000 
      5 PB        -39.0480  -23.6350  -20.3220 P.3       1 ANP601      0.0000 
      6 O1B       -38.8940  -23.2830  -21.8200 O.co2     1 ANP601      0.0000 
      7 O2B       -38.9140  -25.1120  -20.2460 O.co2     1 ANP601      0.0000 
      8 N3B       -37.9990  -22.7880  -19.3450 N.3       1 ANP601      0.0000 
      9 PA        -41.7220  -24.1010  -19.4290 P.3       1 ANP601      0.0000 
     10 O1A       -42.1330  -25.2280  -20.3640 O.co2     1 ANP601      0.0000 
     11 O2A       -41.4200  -24.4460  -18.0220 O.co2     1 ANP601      0.0000 
     12 O3A       -40.5310  -23.2050  -20.0090 O.3       1 ANP601      0.0000 
     13 O5'       -42.9070  -23.0510  -19.3970 O.3       1 ANP601      0.0000 
     14 C5'       -42.8890  -21.9400  -18.4690 C.3       1 ANP601      0.0000 
     15 C4'       -44.3100  -21.5930  -18.1050 C.3       1 ANP601      0.0000 
     16 O4'       -44.9980  -21.0370  -19.2500 O.3       1 ANP601      0.0000 
     17 C3'       -45.1740  -22.7740  -17.6810 C.3       1 ANP601      0.0000 
     18 O3'       -44.9930  -23.0890  -16.3070 O.3       1 ANP601      0.0000 
     19 C2'       -46.5730  -22.2320  -17.9390 C.3       1 ANP601      0.0000 
     20 O2'       -46.9110  -21.3540  -16.8740 O.3       1 ANP601      0.0000 
     21 C1'       -46.3580  -21.4350  -19.2290 C.3       1 ANP601      0.0000 
     22 N9        -46.6320  -22.1850  -20.4570 N.pl3     1 ANP601      0.0000 
     23 C8        -45.7020  -22.6260  -21.3560 C.2       1 ANP601      0.0000 
     24 N7        -46.2090  -23.2830  -22.3750 N.2       1 ANP601      0.0000 
     25 C5        -47.5680  -23.2780  -22.1130 C.ar      1 ANP601      0.0000 
     26 C6        -48.6730  -23.8160  -22.8170 C.ar      1 ANP601      0.0000 
     27 N6        -48.5610  -24.4880  -23.9630 N.pl3     1 ANP601      0.0000 
     28 N1        -49.9070  -23.6370  -22.2850 N.ar      1 ANP601      0.0000 
     29 C2        -50.0180  -22.9660  -21.1320 C.ar      1 ANP601      0.0000 
     30 N3        -49.0510  -22.4200  -20.3850 N.ar      1 ANP601      0.0000 
     31 C4        -47.8510  -22.6180  -20.9300 C.ar      1 ANP601      0.0000 
@<TRIPOS>BOND
     1    1    2 ar   
     2    1    3 ar   
     3    1    4 ar   
     4    1    8 1    
     5    5    6 ar   
     6    5    7 ar   
     7    5    8 1    
     8    5   12 1    
     9    9   10 ar   
    10    9   11 ar   
    11    9   12 1    
    12    9   13 1    
    13   13   14 1    
    14   14   15 1    
    15   15   16 1    
    16   15   17 1    
    17   16   21 1    
    18   17   18 1    
    19   17   19 1    
    20   19   20 1    
    21   19   21 1    
    22   21   22 1    
    23   22   23 1    
    24   22   31 1    
    25   23   24 2    
    26   24   25 1    
    27   25   26 ar   
    28   25   31 ar   
    29   26   27 1    
    30   26   28 ar   
    31   28   29 ar   
    32   29   30 ar   
    33   30   31 ar   
@<TRIPOS>SUBSTRUCTURE
     1 ANP601      1 GROUP   
@<TRIPOS>SET
ATOM$ORANGE STATIC     ATOMS   COLORGROUP SYSTEM 
20 14 14 15 15 17 17 19 19 21 21 23 23 25 25 26 26 29 \
29 31 31 

