#    Name: 5ze9_1_ANP
#    Modification time : Fri May 22 19:28:20 2020

@<TRIPOS>MOLECULE
5ze9_1_ANP
   31    33     1     0     1
SMALL
NO_CHARGES


@<TRIPOS>ATOM
      1 PG        -13.1030   16.4460  -16.3870 P.3       1 ANP601      0.0000 
      2 O1G       -12.2950   16.5650  -17.6540 O.co2     1 ANP601      0.0000 
      3 O2G       -12.1070   16.4770  -15.1790 O.co2     1 ANP601      0.0000 
      4 O3G       -13.8870   15.0840  -16.3910 O.co2     1 ANP601      0.0000 
      5 PB        -15.2130   17.9680  -15.1040 P.3       1 ANP601      0.0000 
      6 O1B       -16.3610   17.0430  -15.2230 O.co2     1 ANP601      0.0000 
      7 O2B       -14.4940   17.7590  -13.7480 O.co2     1 ANP601      0.0000 
      8 N3B       -14.1470   17.7810  -16.3780 N.3       1 ANP601      0.0000 
      9 PA        -15.2590   20.7330  -14.4720 P.3       1 ANP601      0.0000 
     10 O1A       -13.8000   20.9390  -14.6650 O.co2     1 ANP601      0.0000 
     11 O2A       -15.7230   20.6340  -13.0150 O.co2     1 ANP601      0.0000 
     12 O3A       -15.7770   19.4240  -15.2350 O.3       1 ANP601      0.0000 
     13 O5'       -16.0130   21.9430  -15.1850 O.3       1 ANP601      0.0000 
     14 C5'       -15.8530   22.1760  -16.6170 C.3       1 ANP601      0.0000 
     15 C4'       -16.2940   23.5840  -16.9340 C.3       1 ANP601      0.0000 
     16 O4'       -17.7310   23.6520  -16.8370 O.3       1 ANP601      0.0000 
     17 C3'       -15.7730   24.6600  -15.9870 C.3       1 ANP601      0.0000 
     18 O3'       -14.5070   25.1680  -16.4000 O.3       1 ANP601      0.0000 
     19 C2'       -16.8720   25.7260  -16.0570 C.3       1 ANP601      0.0000 
     20 O2'       -16.7490   26.6090  -17.1680 O.3       1 ANP601      0.0000 
     21 C1'       -18.1300   24.8780  -16.2510 C.3       1 ANP601      0.0000 
     22 N9        -18.8390   24.5880  -15.0160 N.pl3     1 ANP601      0.0000 
     23 C8        -18.9280   23.3740  -14.3830 C.2       1 ANP601      0.0000 
     24 N7        -19.6290   23.3970  -13.2750 N.2       1 ANP601      0.0000 
     25 C5        -20.0280   24.7220  -13.1670 C.ar      1 ANP601      0.0000 
     26 C6        -20.8100   25.4000  -12.2100 C.ar      1 ANP601      0.0000 
     27 N6        -21.3440   24.8130  -11.1350 N.pl3     1 ANP601      0.0000 
     28 N1        -21.0220   26.7250  -12.3990 N.ar      1 ANP601      0.0000 
     29 C2        -20.4890   27.3170  -13.4740 C.ar      1 ANP601      0.0000 
     30 N3        -19.7420   26.7780  -14.4440 N.ar      1 ANP601      0.0000 
     31 C4        -19.5470   25.4680  -14.2310 C.ar      1 ANP601      0.0000 
@<TRIPOS>BOND
     1    1    2 ar   
     2    1    3 ar   
     3    1    4 ar   
     4    1    8 1    
     5    5    6 ar   
     6    5    7 ar   
     7    5    8 1    
     8    5   12 1    
     9    9   10 ar   
    10    9   11 ar   
    11    9   12 1    
    12    9   13 1    
    13   13   14 1    
    14   14   15 1    
    15   15   16 1    
    16   15   17 1    
    17   16   21 1    
    18   17   18 1    
    19   17   19 1    
    20   19   20 1    
    21   19   21 1    
    22   21   22 1    
    23   22   23 1    
    24   22   31 1    
    25   23   24 2    
    26   24   25 1    
    27   25   26 ar   
    28   25   31 ar   
    29   26   27 1    
    30   26   28 ar   
    31   28   29 ar   
    32   29   30 ar   
    33   30   31 ar   
@<TRIPOS>SUBSTRUCTURE
     1 ANP601      1 GROUP   
@<TRIPOS>SET
ATOM$ORANGE STATIC     ATOMS   COLORGROUP SYSTEM 
20 14 14 15 15 17 17 19 19 21 21 23 23 25 25 26 26 29 \
29 31 31 

