#    Name: 5ze9_3_ANP_CAVITY_N1_6
#    Modification time : Fri May 22 19:28:59 2020

@<TRIPOS>MOLECULE
5ze9_3_ANP_CAVITY_N1_6
   79     0     7     0     0
SMALL
NO_CHARGES


@<TRIPOS>ATOM
      1 OG         -7.2100  -14.1700  -64.6700 O.3       1 SER1        0.0000 
      2 N          -9.8300  -16.1100  -65.4600 N.am      2 ALA2        0.0000 
      3 N         -11.6100  -15.0200  -65.0800 N.am      2 ALA2        0.0000 
      4 N          -9.4900  -16.4400  -62.9000 N.am      2 ALA2        0.0000 
      5 N         -11.2700  -15.3500  -62.5200 N.am      2 ALA2        0.0000 
      6 N         -10.1700  -15.2700  -63.5400 N.am      2 ALA2        0.0000 
      7 N         -11.9500  -14.1800  -63.1600 N.am      2 ALA2        0.0000 
      8 N         -14.5900   -7.3800  -65.4500 N.am      2 ALA2        0.0000 
      9 N         -12.6200  -12.4900  -59.3300 N.am      2 ALA2        0.0000 
     10 N         -13.3000  -11.3200  -59.9600 N.am      2 ALA2        0.0000 
     11 O         -12.0500   -7.5400  -64.9300 O.2       2 ALA2        0.0000 
     12 O         -12.7300   -6.3600  -65.5600 O.2       2 ALA2        0.0000 
     13 N         -12.5400  -10.3900  -59.0600 N.am      2 ALA2        0.0000 
     14 OD1       -13.7300  -13.0900  -62.7800 O.co2     3 ASP3        0.0000 
     15 OD1       -14.4100  -11.9200  -63.4200 O.co2     3 ASP3        0.0000 
     16 OD1       -12.7000  -14.6000  -59.5900 O.co2     3 ASP3        0.0000 
     17 OD1       -11.6000  -14.5100  -60.6000 O.co2     3 ASP3        0.0000 
     18 OD1       -11.9400  -13.6700  -58.6900 O.co2     3 ASP3        0.0000 
     19 OD1       -10.8400  -13.5800  -59.7100 O.co2     3 ASP3        0.0000 
     20 OD1        -9.4000  -13.8300  -58.1700 O.co2     3 ASP3        0.0000 
     21 NZ         -8.7300  -16.0300  -66.4700 N.4       4 LYS4        0.0000 
     22 NZ         -7.9700  -15.1000  -65.5700 N.4       4 LYS4        0.0000 
     23 NZ         -8.7300  -15.5200  -62.0000 N.4       4 LYS4        0.0000 
     24 CZ        -10.5100  -14.9400  -66.0900 C.ar      5 PHE5        0.0000 
     25 CZ         -9.4100  -14.8500  -67.1100 C.ar      5 PHE5        0.0000 
     26 CZ        -10.8500  -14.0900  -64.1800 C.ar      5 PHE5        0.0000 
     27 CZ         -9.7500  -14.0100  -65.1900 C.ar      5 PHE5        0.0000 
     28 CZ         -8.6500  -13.9200  -66.2100 C.ar      5 PHE5        0.0000 
     29 CZ        -12.6300  -13.0000  -63.8000 C.ar      5 PHE5        0.0000 
     30 CZ        -13.3100  -11.8300  -64.4300 C.ar      5 PHE5        0.0000 
     31 CZ         -8.5700  -11.8200  -65.9500 C.ar      5 PHE5        0.0000 
     32 CZ        -14.7500  -11.0700  -61.5000 C.ar      5 PHE5        0.0000 
     33 CZ        -12.5500  -10.9000  -63.5300 C.ar      5 PHE5        0.0000 
     34 CZ        -14.3300   -9.8100  -63.1500 C.ar      5 PHE5        0.0000 
     35 CZ        -13.2300   -9.7300  -64.1700 C.ar      5 PHE5        0.0000 
     36 CZ        -15.0100   -8.6400  -63.7900 C.ar      5 PHE5        0.0000 
     37 CZ        -13.9100   -8.5500  -64.8100 C.ar      5 PHE5        0.0000 
     38 CZ        -12.8100   -8.4700  -65.8300 C.ar      5 PHE5        0.0000 
     39 CZ        -15.6900   -7.4600  -64.4300 C.ar      5 PHE5        0.0000 
     40 CZ        -13.9900  -10.1400  -60.6000 C.ar      5 PHE5        0.0000 
     41 CZ        -12.8900  -10.0600  -61.6200 C.ar      5 PHE5        0.0000 
     42 CZ        -13.5700   -8.8800  -62.2500 C.ar      5 PHE5        0.0000 
     43 CZ        -12.4700   -8.8000  -63.2700 C.ar      5 PHE5        0.0000 
     44 CZ        -12.1300   -9.1300  -60.7200 C.ar      5 PHE5        0.0000 
     45 CZ        -11.7100   -7.8700  -62.3700 C.ar      5 PHE5        0.0000 
     46 CA        -10.5800  -16.5300  -61.8800 C.3       6 GLY6        0.0000 
     47 CA        -12.3600  -15.4400  -61.5000 C.3       6 GLY6        0.0000 
     48 CA        -14.1400  -14.3500  -61.1200 C.3       6 GLY6        0.0000 
     49 CA        -13.0500  -14.2600  -62.1400 C.3       6 GLY6        0.0000 
     50 CA        -14.8300  -13.1800  -61.7600 C.3       6 GLY6        0.0000 
     51 CA         -9.8200  -15.6000  -60.9800 C.3       6 GLY6        0.0000 
     52 CA         -7.6300  -15.4300  -63.0200 C.3       6 GLY6        0.0000 
     53 CA        -10.5100  -14.4300  -61.6200 C.3       6 GLY6        0.0000 
     54 CA         -9.4100  -14.3400  -62.6400 C.3       6 GLY6        0.0000 
     55 CA         -8.3100  -14.2600  -63.6600 C.3       6 GLY6        0.0000 
     56 CA        -13.3800  -13.4200  -60.2200 C.3       6 GLY6        0.0000 
     57 CA        -11.1900  -13.2500  -62.2600 C.3       6 GLY6        0.0000 
     58 CA         -7.8900  -13.0000  -65.3100 C.3       6 GLY6        0.0000 
     59 CA        -14.0700  -12.2500  -60.8600 C.3       6 GLY6        0.0000 
     60 CA        -11.8700  -12.0800  -62.9000 C.3       6 GLY6        0.0000 
     61 CA         -9.7400  -13.5000  -60.7200 C.3       6 GLY6        0.0000 
     62 CA        -11.5200  -12.4100  -60.3400 C.3       6 GLY6        0.0000 
     63 CA        -12.2100  -11.2300  -60.9800 C.3       6 GLY6        0.0000 
     64 CA        -11.7900   -9.9700  -62.6300 C.3       6 GLY6        0.0000 
     65 CA        -11.3700   -8.7100  -64.2900 C.3       6 GLY6        0.0000 
     66 CA        -13.1500   -7.6200  -63.9100 C.3       6 GLY6        0.0000 
     67 CA        -13.8300   -6.4500  -64.5500 C.3       6 GLY6        0.0000 
     68 CA        -11.1800  -12.7400  -57.7900 C.3       6 GLY6        0.0000 
     69 CA        -10.0800  -12.6500  -58.8100 C.3       6 GLY6        0.0000 
     70 CA        -10.7600  -11.4800  -59.4400 C.3       6 GLY6        0.0000 
     71 CA        -11.4500  -10.3000  -60.0800 C.3       6 GLY6        0.0000 
     72 CA        -11.0300   -9.0400  -61.7400 C.3       6 GLY6        0.0000 
     73 CA        -10.6100   -7.7800  -63.3900 C.3       6 GLY6        0.0000 
     74 CA        -11.2900   -6.6100  -64.0300 C.3       6 GLY6        0.0000 
     75 DU         -8.3900  -16.3600  -63.9200 H         7 CUB7        0.0000 
     76 DU         -9.0700  -15.1800  -64.5600 H         7 CUB7        0.0000 
     77 DU        -12.2900  -13.3400  -61.2400 H         7 CUB7        0.0000 
     78 DU        -12.9700  -12.1600  -61.8800 H         7 CUB7        0.0000 
     79 DU        -13.6500  -10.9900  -62.5200 H         7 CUB7        0.0000 
@<TRIPOS>BOND
@<TRIPOS>SUBSTRUCTURE
     1 SER1        1 GROUP   
     2 ALA2        2 GROUP   
     3 ASP3       14 GROUP   
     4 LYS4       21 GROUP   
     5 PHE5       24 GROUP   
     6 GLY6       46 GROUP   
     7 CUB7       75 GROUP   
@<TRIPOS>SET

