#    Name: 5ze9_2_ANP_CAVITY_N1_4
#    Modification time : Fri May 22 19:28:40 2020

@<TRIPOS>MOLECULE
5ze9_2_ANP_CAVITY_N1_4
   52     0     4     0     0
SMALL
NO_CHARGES


@<TRIPOS>ATOM
      1 N         -45.7200  -26.4600  -14.4100 N.am      1 ALA2        0.0000 
      2 N         -44.6200  -26.3800  -15.4300 N.am      1 ALA2        0.0000 
      3 N         -46.4000  -25.2900  -15.0500 N.am      1 ALA2        0.0000 
      4 N         -45.3000  -25.2000  -16.0700 N.am      1 ALA2        0.0000 
      5 N         -44.0400  -21.4200  -21.0300 N.am      1 ALA2        0.0000 
      6 N         -43.8600  -25.4500  -14.5300 N.am      1 ALA2        0.0000 
      7 N         -44.5400  -24.2700  -15.1700 N.am      1 ALA2        0.0000 
      8 N         -43.7000  -21.7500  -18.4800 N.am      1 ALA2        0.0000 
      9 N         -42.6000  -21.6700  -19.4900 N.am      1 ALA2        0.0000 
     10 N         -44.3800  -20.5800  -19.1100 N.am      1 ALA2        0.0000 
     11 OD1       -41.6600  -25.2800  -16.5600 O.co2     2 ASP3        0.0000 
     12 OD1       -42.3400  -24.1000  -17.2000 O.co2     2 ASP3        0.0000 
     13 OD1       -43.0200  -22.9300  -17.8400 O.co2     2 ASP3        0.0000 
     14 OD1       -41.9200  -22.8400  -18.8600 O.co2     2 ASP3        0.0000 
     15 OD1       -45.9000  -21.9200  -16.4400 O.co2     2 ASP3        0.0000 
     16 OD1       -46.5800  -20.7500  -17.0800 O.co2     2 ASP3        0.0000 
     17 CZ        -47.7600  -23.4500  -20.7900 C.ar      3 PHE5        0.0000 
     18 CZ        -46.0600  -26.1300  -16.9700 C.ar      3 PHE5        0.0000 
     19 CZ        -48.1000  -22.6100  -18.8800 C.ar      3 PHE5        0.0000 
     20 CZ        -47.0000  -22.5200  -19.9000 C.ar      3 PHE5        0.0000 
     21 CZ        -45.9000  -22.4400  -20.9100 C.ar      3 PHE5        0.0000 
     22 CZ        -45.9800  -24.0300  -16.7000 C.ar      3 PHE5        0.0000 
     23 CZ        -46.6600  -22.8500  -17.3400 C.ar      3 PHE5        0.0000 
     24 CZ        -47.3400  -21.6800  -17.9800 C.ar      3 PHE5        0.0000 
     25 CZ        -46.2400  -21.5900  -19.0000 C.ar      3 PHE5        0.0000 
     26 CZ        -45.1400  -21.5100  -20.0100 C.ar      3 PHE5        0.0000 
     27 CZ        -46.9200  -20.4200  -19.6300 C.ar      3 PHE5        0.0000 
     28 CZ        -45.0600  -19.4000  -19.7500 C.ar      3 PHE5        0.0000 
     29 CA        -43.1800  -27.1400  -18.3600 C.3       4 GLY6        0.0000 
     30 CA        -46.3200  -23.7000  -19.2600 C.3       4 GLY6        0.0000 
     31 CA        -45.2200  -23.6100  -20.2800 C.3       4 GLY6        0.0000 
     32 CA        -43.5200  -26.2900  -16.4500 C.3       4 GLY6        0.0000 
     33 CA        -42.4200  -26.2100  -17.4600 C.3       4 GLY6        0.0000 
     34 CA        -44.2000  -25.1200  -17.0800 C.3       4 GLY6        0.0000 
     35 CA        -43.1000  -25.0300  -18.1000 C.3       4 GLY6        0.0000 
     36 CA        -42.0000  -24.9500  -19.1200 C.3       4 GLY6        0.0000 
     37 CA        -44.8800  -23.9400  -17.7200 C.3       4 GLY6        0.0000 
     38 CA        -43.7800  -23.8600  -18.7400 C.3       4 GLY6        0.0000 
     39 CA        -42.6800  -23.7700  -19.7600 C.3       4 GLY6        0.0000 
     40 CA        -45.5600  -22.7700  -18.3600 C.3       4 GLY6        0.0000 
     41 CA        -44.4600  -22.6800  -19.3800 C.3       4 GLY6        0.0000 
     42 CA        -43.3600  -22.6000  -20.3900 C.3       4 GLY6        0.0000 
     43 CA        -42.7600  -25.3600  -15.5500 C.3       4 GLY6        0.0000 
     44 CA        -43.4400  -24.1900  -16.1800 C.3       4 GLY6        0.0000 
     45 CA        -45.2200  -23.1000  -15.8000 C.3       4 GLY6        0.0000 
     46 CA        -44.1200  -23.0100  -16.8200 C.3       4 GLY6        0.0000 
     47 CA        -44.8000  -21.8400  -17.4600 C.3       4 GLY6        0.0000 
     48 CA        -45.4800  -20.6600  -18.1000 C.3       4 GLY6        0.0000 
     49 CA        -42.2600  -22.0000  -16.9400 C.3       4 GLY6        0.0000 
     50 CA        -44.0400  -20.9100  -16.5600 C.3       4 GLY6        0.0000 
     51 CA        -42.9400  -20.8200  -17.5800 C.3       4 GLY6        0.0000 
     52 CA        -43.6200  -19.6500  -18.2100 C.3       4 GLY6        0.0000 
@<TRIPOS>BOND
@<TRIPOS>SUBSTRUCTURE
     1 ALA2        1 GROUP   
     2 ASP3       11 GROUP   
     3 PHE5       17 GROUP   
     4 GLY6       29 GROUP   
@<TRIPOS>SET

