#    Name: 5ze9_3_ANP
#    Modification time : Fri May 22 19:28:57 2020

@<TRIPOS>MOLECULE
5ze9_3_ANP
   31    33     1     0     1
SMALL
NO_CHARGES


@<TRIPOS>ATOM
      1 PG         -8.6960  -15.5900  -54.7160 P.3       1 ANP601      0.0000 
      2 O1G        -7.6990  -16.2850  -55.7140 O.co2     1 ANP601      0.0000 
      3 O2G        -7.9080  -14.9110  -53.6380 O.co2     1 ANP601      0.0000 
      4 O3G        -9.6300  -16.7250  -54.1110 O.co2     1 ANP601      0.0000 
      5 PB         -9.0680  -13.2180  -56.3630 P.3       1 ANP601      0.0000 
      6 O1B        -7.7260  -13.5670  -56.9060 O.co2     1 ANP601      0.0000 
      7 O2B        -8.9650  -11.9700  -55.4590 O.co2     1 ANP601      0.0000 
      8 N3B        -9.7120  -14.4590  -55.4600 N.3       1 ANP601      0.0000 
      9 PA         -9.7740  -13.0490  -59.0730 P.3       1 ANP601      0.0000 
     10 O1A        -8.6270  -12.1620  -59.4960 O.co2     1 ANP601      0.0000 
     11 O2A        -9.6720  -14.4830  -59.4450 O.co2     1 ANP601      0.0000 
     12 O3A       -10.0540  -12.8460  -57.5090 O.3       1 ANP601      0.0000 
     13 O5'       -11.0630  -12.4900  -59.7340 O.3       1 ANP601      0.0000 
     14 C5'       -12.3640  -13.1050  -59.5580 C.3       1 ANP601      0.0000 
     15 C4'       -13.2810  -12.7650  -60.7110 C.3       1 ANP601      0.0000 
     16 O4'       -13.7250  -11.3910  -60.6320 O.3       1 ANP601      0.0000 
     17 C3'       -12.6720  -12.8870  -62.1000 C.3       1 ANP601      0.0000 
     18 O3'       -12.6940  -14.2430  -62.5280 O.3       1 ANP601      0.0000 
     19 C2'       -13.6110  -12.0060  -62.9170 C.3       1 ANP601      0.0000 
     20 O2'       -14.8260  -12.6980  -63.1610 O.3       1 ANP601      0.0000 
     21 C1'       -13.8800  -10.8620  -61.9380 C.3       1 ANP601      0.0000 
     22 N9        -12.9460   -9.7500  -62.0820 N.pl3     1 ANP601      0.0000 
     23 C8        -11.9470   -9.4230  -61.2030 C.2       1 ANP601      0.0000 
     24 N7        -11.2290   -8.3910  -61.5670 N.2       1 ANP601      0.0000 
     25 C5        -11.7860   -8.0180  -62.7830 C.ar      1 ANP601      0.0000 
     26 C6        -11.4710   -6.9850  -63.6920 C.ar      1 ANP601      0.0000 
     27 N6        -10.4880   -6.1010  -63.4970 N.pl3     1 ANP601      0.0000 
     28 N1        -12.2260   -6.8830  -64.8160 N.ar      1 ANP601      0.0000 
     29 C2        -13.2190   -7.7610  -65.0050 C.ar      1 ANP601      0.0000 
     30 N3        -13.6010   -8.7760  -64.2190 N.ar      1 ANP601      0.0000 
     31 C4        -12.8420   -8.8460  -63.1150 C.ar      1 ANP601      0.0000 
@<TRIPOS>BOND
     1    1    2 ar   
     2    1    3 ar   
     3    1    4 ar   
     4    1    8 1    
     5    5    6 ar   
     6    5    7 ar   
     7    5    8 1    
     8    5   12 1    
     9    9   10 ar   
    10    9   11 ar   
    11    9   12 1    
    12    9   13 1    
    13   13   14 1    
    14   14   15 1    
    15   15   16 1    
    16   15   17 1    
    17   16   21 1    
    18   17   18 1    
    19   17   19 1    
    20   19   20 1    
    21   19   21 1    
    22   21   22 1    
    23   22   23 1    
    24   22   31 1    
    25   23   24 2    
    26   24   25 1    
    27   25   26 ar   
    28   25   31 ar   
    29   26   27 1    
    30   26   28 ar   
    31   28   29 ar   
    32   29   30 ar   
    33   30   31 ar   
@<TRIPOS>SUBSTRUCTURE
     1 ANP601      1 GROUP   
@<TRIPOS>SET
ATOM$ORANGE STATIC     ATOMS   COLORGROUP SYSTEM 
20 14 14 15 15 17 17 19 19 21 21 23 23 25 25 26 26 29 \
29 31 31 

