#    Name: 5ze9_1_ANP_CAVITY_N1_4
#    Modification time : Fri May 22 19:28:22 2020

@<TRIPOS>MOLECULE
5ze9_1_ANP_CAVITY_N1_4
   66     0     6     0     0
SMALL
NO_CHARGES


@<TRIPOS>ATOM
      1 O         -15.8700   20.7200  -15.8200 O.2       1 ALA2        0.0000 
      2 N         -16.5600   21.8900  -16.4600 N.am      1 ALA2        0.0000 
      3 N         -17.2400   23.0700  -17.1000 N.am      1 ALA2        0.0000 
      4 N         -13.8600   25.9400  -15.4200 N.am      1 ALA2        0.0000 
      5 N         -12.4100   25.6900  -13.8800 N.am      1 ALA2        0.0000 
      6 N         -11.3200   25.7800  -14.9000 N.am      1 ALA2        0.0000 
      7 N         -13.1000   26.8700  -14.5200 N.am      1 ALA2        0.0000 
      8 OD1       -14.0200   21.7300  -15.9400 O.co2     2 ASP3        0.0000 
      9 OD1       -12.5700   21.4900  -14.4000 O.co2     2 ASP3        0.0000 
     10 NZ        -11.8100   22.4200  -13.5000 N.4       3 LYS4        0.0000 
     11 CZ        -19.4300   22.9000  -15.0600 C.ar      4 PHE5        0.0000 
     12 CZ        -18.3400   22.9800  -16.0800 C.ar      4 PHE5        0.0000 
     13 CZ        -17.9200   24.2400  -17.7300 C.ar      4 PHE5        0.0000 
     14 CZ        -18.6000   25.4200  -18.3700 C.ar      4 PHE5        0.0000 
     15 CZ        -20.4500   24.9200  -13.7800 C.ar      4 PHE5        0.0000 
     16 CZ        -19.3600   25.0000  -14.8000 C.ar      4 PHE5        0.0000 
     17 CZ        -18.2600   25.0900  -15.8200 C.ar      4 PHE5        0.0000 
     18 CZ        -21.1400   26.0900  -14.4200 C.ar      4 PHE5        0.0000 
     19 CZ        -20.0400   26.1800  -15.4400 C.ar      4 PHE5        0.0000 
     20 CZ        -18.9400   26.2600  -16.4600 C.ar      4 PHE5        0.0000 
     21 CZ        -17.8400   26.3500  -17.4700 C.ar      4 PHE5        0.0000 
     22 CZ        -21.8200   27.2700  -15.0600 C.ar      4 PHE5        0.0000 
     23 CZ        -19.6900   25.8400  -12.8800 C.ar      4 PHE5        0.0000 
     24 CZ        -18.5900   25.9300  -13.9000 C.ar      4 PHE5        0.0000 
     25 CZ        -17.5000   26.0100  -14.9200 C.ar      4 PHE5        0.0000 
     26 CZ        -16.4000   26.1000  -15.9400 C.ar      4 PHE5        0.0000 
     27 CZ        -20.3700   27.0200  -13.5200 C.ar      4 PHE5        0.0000 
     28 CZ        -19.2800   27.1000  -14.5400 C.ar      4 PHE5        0.0000 
     29 CZ        -18.1800   27.1900  -15.5600 C.ar      4 PHE5        0.0000 
     30 CZ        -14.9600   25.8500  -14.4000 C.ar      4 PHE5        0.0000 
     31 CZ        -15.6400   27.0300  -15.0400 C.ar      4 PHE5        0.0000 
     32 CZ        -13.5100   25.6100  -12.8600 C.ar      4 PHE5        0.0000 
     33 CA        -17.6500   21.8100  -15.4400 C.3       5 GLY6        0.0000 
     34 CA        -15.4600   21.9800  -17.4800 C.3       5 GLY6        0.0000 
     35 CA        -16.1400   23.1500  -18.1100 C.3       5 GLY6        0.0000 
     36 CA        -14.4300   20.4700  -14.2900 C.3       5 GLY6        0.0000 
     37 CA        -16.2100   21.5600  -13.9100 C.3       5 GLY6        0.0000 
     38 CA        -15.1100   21.6500  -14.9200 C.3       5 GLY6        0.0000 
     39 CA        -17.9900   22.6500  -13.5300 C.3       5 GLY6        0.0000 
     40 CA        -16.8900   22.7400  -14.5400 C.3       5 GLY6        0.0000 
     41 CA        -14.7000   22.9100  -16.5800 C.3       5 GLY6        0.0000 
     42 CA        -19.7700   23.7400  -13.1500 C.3       5 GLY6        0.0000 
     43 CA        -18.6700   23.8300  -14.1600 C.3       5 GLY6        0.0000 
     44 CA        -17.5800   23.9100  -15.1800 C.3       5 GLY6        0.0000 
     45 CA        -15.3800   24.0800  -17.2200 C.3       5 GLY6        0.0000 
     46 CA        -16.0600   25.2600  -17.8500 C.3       5 GLY6        0.0000 
     47 CA        -13.6700   21.4000  -13.3900 C.3       5 GLY6        0.0000 
     48 CA        -14.3500   22.5800  -14.0200 C.3       5 GLY6        0.0000 
     49 CA        -13.2500   22.6600  -15.0400 C.3       5 GLY6        0.0000 
     50 CA        -15.0300   23.7500  -14.6600 C.3       5 GLY6        0.0000 
     51 CA        -13.9400   23.8400  -15.6800 C.3       5 GLY6        0.0000 
     52 CA        -17.9100   24.7500  -13.2600 C.3       5 GLY6        0.0000 
     53 CA        -16.8100   24.8400  -14.2800 C.3       5 GLY6        0.0000 
     54 CA        -15.7200   24.9300  -15.3000 C.3       5 GLY6        0.0000 
     55 CA        -14.6200   25.0100  -16.3200 C.3       5 GLY6        0.0000 
     56 CA        -14.0100   22.2400  -11.4700 C.3       5 GLY6        0.0000 
     57 CA        -12.9100   22.3300  -12.4900 C.3       5 GLY6        0.0000 
     58 CA        -13.5900   23.5000  -13.1200 C.3       5 GLY6        0.0000 
     59 CA        -11.4000   23.6700  -15.1600 C.3       5 GLY6        0.0000 
     60 CA        -14.2700   24.6800  -13.7600 C.3       5 GLY6        0.0000 
     61 CA        -13.1800   24.7600  -14.7800 C.3       5 GLY6        0.0000 
     62 DU        -15.8000   22.8200  -15.5600 H         6 CUB7        0.0000 
     63 DU        -16.4800   24.0000  -16.2000 H         6 CUB7        0.0000 
     64 DU        -17.1600   25.1700  -16.8400 H         6 CUB7        0.0000 
     65 DU        -17.0800   27.2700  -16.5700 H         6 CUB7        0.0000 
     66 DU        -12.4900   23.5900  -14.1400 H         6 CUB7        0.0000 
@<TRIPOS>BOND
@<TRIPOS>SUBSTRUCTURE
     1 ALA2        1 GROUP   
     2 ASP3        8 GROUP   
     3 LYS4       10 GROUP   
     4 PHE5       11 GROUP   
     5 GLY6       33 GROUP   
     6 CUB7       62 GROUP   
@<TRIPOS>SET

