#    Name: 5ze9_2_ANP_CAVITY_N1_6
#    Modification time : Fri May 22 19:28:40 2020

@<TRIPOS>MOLECULE
5ze9_2_ANP_CAVITY_N1_6
   65     0     6     0     0
SMALL
NO_CHARGES


@<TRIPOS>ATOM
      1 OG        -44.3600  -29.3200  -17.6100 O.3       1 SER1        0.0000 
      2 OG        -45.0400  -27.6400  -13.7700 O.3       1 SER1        0.0000 
      3 OG        -43.9400  -27.5500  -14.7900 O.3       1 SER1        0.0000 
      4 N         -45.7200  -26.4600  -14.4100 N.am      2 ALA2        0.0000 
      5 N         -44.6200  -26.3800  -15.4300 N.am      2 ALA2        0.0000 
      6 N         -46.4000  -25.2900  -15.0500 N.am      2 ALA2        0.0000 
      7 N         -45.3000  -25.2000  -16.0700 N.am      2 ALA2        0.0000 
      8 N         -44.0400  -21.4200  -21.0300 N.am      2 ALA2        0.0000 
      9 N         -43.8600  -25.4500  -14.5300 N.am      2 ALA2        0.0000 
     10 N         -44.5400  -24.2700  -15.1700 N.am      2 ALA2        0.0000 
     11 N         -43.7000  -21.7500  -18.4800 N.am      2 ALA2        0.0000 
     12 N         -42.6000  -21.6700  -19.4900 N.am      2 ALA2        0.0000 
     13 N         -44.3800  -20.5800  -19.1100 N.am      2 ALA2        0.0000 
     14 OD1       -41.6600  -25.2800  -16.5600 O.co2     3 ASP3        0.0000 
     15 OD1       -42.3400  -24.1000  -17.2000 O.co2     3 ASP3        0.0000 
     16 OD1       -43.0200  -22.9300  -17.8400 O.co2     3 ASP3        0.0000 
     17 OD1       -41.9200  -22.8400  -18.8600 O.co2     3 ASP3        0.0000 
     18 OD1       -45.9000  -21.9200  -16.4400 O.co2     3 ASP3        0.0000 
     19 OD1       -46.5800  -20.7500  -17.0800 O.co2     3 ASP3        0.0000 
     20 NZ        -45.8000  -28.5700  -14.6700 N.4       4 LYS4        0.0000 
     21 NZ        -42.8400  -27.4700  -15.8100 N.4       4 LYS4        0.0000 
     22 CZ        -47.2400  -28.3200  -16.2100 C.ar      5 PHE5        0.0000 
     23 CZ        -47.7600  -23.4500  -20.7900 C.ar      5 PHE5        0.0000 
     24 CZ        -47.5800  -27.4800  -14.2900 C.ar      5 PHE5        0.0000 
     25 CZ        -46.4800  -27.3900  -15.3100 C.ar      5 PHE5        0.0000 
     26 CZ        -46.0600  -26.1300  -16.9700 C.ar      5 PHE5        0.0000 
     27 CZ        -48.1000  -22.6100  -18.8800 C.ar      5 PHE5        0.0000 
     28 CZ        -47.0000  -22.5200  -19.9000 C.ar      5 PHE5        0.0000 
     29 CZ        -45.9000  -22.4400  -20.9100 C.ar      5 PHE5        0.0000 
     30 CZ        -45.9800  -24.0300  -16.7000 C.ar      5 PHE5        0.0000 
     31 CZ        -46.6600  -22.8500  -17.3400 C.ar      5 PHE5        0.0000 
     32 CZ        -47.3400  -21.6800  -17.9800 C.ar      5 PHE5        0.0000 
     33 CZ        -46.2400  -21.5900  -19.0000 C.ar      5 PHE5        0.0000 
     34 CZ        -45.1400  -21.5100  -20.0100 C.ar      5 PHE5        0.0000 
     35 CZ        -46.9200  -20.4200  -19.6300 C.ar      5 PHE5        0.0000 
     36 CZ        -45.0600  -19.4000  -19.7500 C.ar      5 PHE5        0.0000 
     37 CA        -46.1400  -28.2300  -17.2300 C.3       6 GLY6        0.0000 
     38 CA        -45.0400  -28.1500  -18.2500 C.3       6 GLY6        0.0000 
     39 CA        -43.6000  -28.4000  -16.7100 C.3       6 GLY6        0.0000 
     40 CA        -45.3800  -27.3100  -16.3300 C.3       6 GLY6        0.0000 
     41 CA        -44.2800  -27.2200  -17.3500 C.3       6 GLY6        0.0000 
     42 CA        -43.1800  -27.1400  -18.3600 C.3       6 GLY6        0.0000 
     43 CA        -46.3200  -23.7000  -19.2600 C.3       6 GLY6        0.0000 
     44 CA        -45.2200  -23.6100  -20.2800 C.3       6 GLY6        0.0000 
     45 CA        -43.5200  -26.2900  -16.4500 C.3       6 GLY6        0.0000 
     46 CA        -42.4200  -26.2100  -17.4600 C.3       6 GLY6        0.0000 
     47 CA        -44.2000  -25.1200  -17.0800 C.3       6 GLY6        0.0000 
     48 CA        -43.1000  -25.0300  -18.1000 C.3       6 GLY6        0.0000 
     49 CA        -42.0000  -24.9500  -19.1200 C.3       6 GLY6        0.0000 
     50 CA        -44.8800  -23.9400  -17.7200 C.3       6 GLY6        0.0000 
     51 CA        -43.7800  -23.8600  -18.7400 C.3       6 GLY6        0.0000 
     52 CA        -42.6800  -23.7700  -19.7600 C.3       6 GLY6        0.0000 
     53 CA        -45.5600  -22.7700  -18.3600 C.3       6 GLY6        0.0000 
     54 CA        -44.4600  -22.6800  -19.3800 C.3       6 GLY6        0.0000 
     55 CA        -43.3600  -22.6000  -20.3900 C.3       6 GLY6        0.0000 
     56 CA        -42.7600  -25.3600  -15.5500 C.3       6 GLY6        0.0000 
     57 CA        -43.4400  -24.1900  -16.1800 C.3       6 GLY6        0.0000 
     58 CA        -45.2200  -23.1000  -15.8000 C.3       6 GLY6        0.0000 
     59 CA        -44.1200  -23.0100  -16.8200 C.3       6 GLY6        0.0000 
     60 CA        -44.8000  -21.8400  -17.4600 C.3       6 GLY6        0.0000 
     61 CA        -45.4800  -20.6600  -18.1000 C.3       6 GLY6        0.0000 
     62 CA        -42.2600  -22.0000  -16.9400 C.3       6 GLY6        0.0000 
     63 CA        -44.0400  -20.9100  -16.5600 C.3       6 GLY6        0.0000 
     64 CA        -42.9400  -20.8200  -17.5800 C.3       6 GLY6        0.0000 
     65 CA        -43.6200  -19.6500  -18.2100 C.3       6 GLY6        0.0000 
@<TRIPOS>BOND
@<TRIPOS>SUBSTRUCTURE
     1 SER1        1 GROUP   
     2 ALA2        4 GROUP   
     3 ASP3       14 GROUP   
     4 LYS4       20 GROUP   
     5 PHE5       22 GROUP   
     6 GLY6       37 GROUP   
@<TRIPOS>SET

