#    Name: 6fcr_1_ALA_DGL_API_DAL_NAG_AMU_NAG
#    Modification time : Fri May 22 19:30:23 2020

@<TRIPOS>MOLECULE
6fcr_1_ALA_DGL_API_DAL_NAG_AMU_NAG
   77    79     7     0     0
SMALL
NO_CHARGES


@<TRIPOS>ATOM
      1 N          69.5050  -20.2790  -17.6520 N.am      1 ALA1        0.0000 
      2 CA         70.4840  -20.4700  -16.5780 C.3       1 ALA1        0.0000 
      3 C          71.9080  -20.2670  -17.1170 C.2       1 ALA1        0.0000 
      4 O          72.1700  -20.6220  -18.2410 O.2       1 ALA1        0.0000 
      5 CB         70.3320  -21.8900  -16.0060 C.3       1 ALA1        0.0000 
      6 N          72.8950  -19.6280  -16.2260 N.am      2 DGL2        0.0000 
      7 CA         74.2920  -19.3820  -16.6330 C.3       2 DGL2        0.0000 
      8 C          74.4140  -18.0190  -17.3530 C.2       2 DGL2        0.0000 
      9 O          74.1880  -17.9310  -18.5390 O.2       2 DGL2        0.0000 
     10 CB         75.1980  -19.3590  -15.3840 C.3       2 DGL2        0.0000 
     11 CG         75.3140  -20.7720  -14.7950 C.3       2 DGL2        0.0000 
     12 CD         76.1910  -20.7670  -13.5220 C.2       2 DGL2        0.0000 
     13 OE1        75.7020  -20.4930  -12.4510 O.co2     2 DGL2        0.0000 
     14 C1         78.8280  -19.6390  -12.1630 C.2       3 API3        0.0000 
     15 C2         78.5150  -21.1220  -12.4630 C.3       3 API3        0.0000 
     16 C3         79.8470  -21.8570  -12.7280 C.3       3 API3        0.0000 
     17 C4         79.6430  -23.2640  -13.3230 C.3       3 API3        0.0000 
     18 C5         80.9720  -24.0470  -13.3330 C.3       3 API3        0.0000 
     19 C6         81.9930  -23.4720  -14.3450 C.3       3 API3        0.0000 
     20 C7         82.6950  -24.6240  -15.0970 C.2       3 API3        0.0000 
     21 O1         78.9550  -19.2650  -11.0220 O.co2     3 API3        0.0000 
     22 O3         82.7080  -24.5990  -16.5300 O.co2     3 API3        0.0000 
     23 O4         83.2280  -25.5290  -14.4850 O.co2     3 API3        0.0000 
     24 N2         77.6160  -21.1300  -13.6380 N.4       3 API3        0.0000 
     25 N6         83.0380  -22.6870  -13.6570 N.4       3 API3        0.0000 
     26 N          78.9520  -18.7270  -13.3250 N.am      4 DAL4        0.0000 
     27 CA         79.2350  -17.2770  -13.2660 C.3       4 DAL4        0.0000 
     28 CB         78.4470  -16.5740  -12.1340 C.3       4 DAL4        0.0000 
     29 C          78.8350  -16.6870  -14.6480 C.2       4 DAL4        0.0000 
     30 O          78.4860  -17.5770  -15.7170 O.2       4 DAL4        0.0000 
     31 OXT        78.8150  -15.4940  -14.8520 O.co2     4 DAL4        0.0000 
     32 C1         62.5180  -16.6450  -12.3110 C.3       5 NAG101      0.0000 
     33 C2         62.7150  -15.9410  -13.6820 C.3       5 NAG101      0.0000 
     34 C3         62.8040  -17.0960  -14.6930 C.3       5 NAG101      0.0000 
     35 C4         64.0220  -17.9620  -14.3930 C.3       5 NAG101      0.0000 
     36 C5         63.8490  -18.5220  -12.9550 C.3       5 NAG101      0.0000 
     37 C6         65.0400  -19.2480  -12.3770 C.3       5 NAG101      0.0000 
     38 C7         61.4240  -13.8390  -13.9180 C.2       5 NAG101      0.0000 
     39 C8         60.0910  -13.2410  -14.2510 C.3       5 NAG101      0.0000 
     40 N2         61.5070  -15.1780  -13.9760 N.am      5 NAG101      0.0000 
     41 O3         62.8930  -16.4250  -15.9340 O.3       5 NAG101      0.0000 
     42 O4         64.1460  -19.0730  -15.3220 O.3       5 NAG101      0.0000 
     43 O5         63.6630  -17.3830  -12.0510 O.3       5 NAG101      0.0000 
     44 O6         64.7920  -19.7180  -11.0500 O.3       5 NAG101      0.0000 
     45 O7         62.3560  -13.0970  -13.6040 O.2       5 NAG101      0.0000 
     46 C1         64.2460  -19.0680  -16.7440 C.3       6 AMU102      0.0000 
     47 C2         65.6570  -18.8740  -17.3580 C.3       6 AMU102      0.0000 
     48 C3         65.8470  -19.4890  -18.7560 C.3       6 AMU102      0.0000 
     49 C4         65.0390  -20.7410  -19.0440 C.3       6 AMU102      0.0000 
     50 C5         63.6130  -20.4150  -18.5650 C.3       6 AMU102      0.0000 
     51 C6         62.6420  -21.4970  -18.9060 C.3       6 AMU102      0.0000 
     52 C7         66.7080  -16.7310  -16.6510 C.2       6 AMU102      0.0000 
     53 C8         66.8840  -15.2680  -16.9260 C.3       6 AMU102      0.0000 
     54 C9         68.2400  -18.8050  -19.3270 C.3       6 AMU102      0.0000 
     55 C10        69.2830  -18.9450  -18.2200 C.2       6 AMU102      0.0000 
     56 C11        68.8340  -19.0920  -20.6790 C.3       6 AMU102      0.0000 
     57 O3         67.2230  -19.7690  -19.0280 O.3       6 AMU102      0.0000 
     58 O4         65.1120  -21.1230  -20.4200 O.3       6 AMU102      0.0000 
     59 O5         63.6850  -20.3420  -17.1610 O.3       6 AMU102      0.0000 
     60 O6         61.4060  -21.3300  -18.2440 O.3       6 AMU102      0.0000 
     61 O7         67.2900  -17.2080  -15.6850 O.2       6 AMU102      0.0000 
     62 O10        70.0410  -17.8470  -17.7190 O.co2     6 AMU102      0.0000 
     63 N2         65.9310  -17.4410  -17.4690 N.am      6 AMU102      0.0000 
     64 C1         65.6330  -22.3320  -20.9440 C.3       7 NAG103      0.0000 
     65 C2         64.7490  -22.8600  -22.0830 C.3       7 NAG103      0.0000 
     66 C3         65.4490  -23.9840  -22.8300 C.3       7 NAG103      0.0000 
     67 C4         66.8720  -23.6510  -23.2280 C.3       7 NAG103      0.0000 
     68 C5         67.6190  -23.1910  -21.9630 C.3       7 NAG103      0.0000 
     69 C6         69.0460  -22.8240  -22.3140 C.3       7 NAG103      0.0000 
     70 C7         62.2120  -22.9900  -21.8280 C.2       7 NAG103      0.0000 
     71 C8         61.9480  -21.8750  -22.7750 C.3       7 NAG103      0.0000 
     72 N2         63.4810  -23.3530  -21.5570 N.am      7 NAG103      0.0000 
     73 O3         64.7160  -24.3550  -23.9860 O.3       7 NAG103      0.0000 
     74 O4         67.4730  -24.7980  -23.8210 O.3       7 NAG103      0.0000 
     75 O5         66.9700  -22.0430  -21.4480 O.3       7 NAG103      0.0000 
     76 O6         69.7410  -22.3170  -21.1820 O.3       7 NAG103      0.0000 
     77 O7         61.2240  -23.4950  -21.2960 O.2       7 NAG103      0.0000 
@<TRIPOS>BOND
     1    1    2 1    
     2    1   55 du   
     3    2    3 1    
     4    2    5 1    
     5    3    4 2    
     6    3    6 du   
     7    6    7 1    
     8    7    8 1    
     9    7   10 1    
    10    8    9 2    
    11   10   11 1    
    12   11   12 1    
    13   12   13 ar   
    14   12   24 du   
    15   14   15 1    
    16   14   21 ar   
    17   14   26 du   
    18   15   16 1    
    19   15   24 1    
    20   16   17 1    
    21   17   18 1    
    22   18   19 1    
    23   19   20 1    
    24   19   25 1    
    25   20   22 ar   
    26   20   23 ar   
    27   26   27 1    
    28   27   28 1    
    29   27   29 1    
    30   29   30 2    
    31   29   31 ar   
    32   32   33 1    
    33   32   43 1    
    34   33   34 1    
    35   33   40 1    
    36   34   35 1    
    37   34   41 1    
    38   35   36 1    
    39   35   42 1    
    40   36   37 1    
    41   36   43 1    
    42   37   44 1    
    43   38   39 1    
    44   38   40 am   
    45   38   45 2    
    46   42   46 du   
    47   46   47 1    
    48   46   59 1    
    49   47   48 1    
    50   47   63 1    
    51   48   49 1    
    52   48   57 1    
    53   49   50 1    
    54   49   58 1    
    55   50   51 1    
    56   50   59 1    
    57   51   60 1    
    58   52   53 1    
    59   52   61 2    
    60   52   63 am   
    61   54   55 1    
    62   54   56 1    
    63   54   57 1    
    64   55   62 ar   
    65   58   64 du   
    66   64   65 1    
    67   64   75 1    
    68   65   66 1    
    69   65   72 1    
    70   66   67 1    
    71   66   73 1    
    72   67   68 1    
    73   67   74 1    
    74   68   69 1    
    75   68   75 1    
    76   69   76 1    
    77   70   71 1    
    78   70   72 am   
    79   70   77 2    
@<TRIPOS>SUBSTRUCTURE
     1 ALA1        1 RESIDUE 
     2 DGL2        6 RESIDUE 
     3 API3       14 RESIDUE 
     4 DAL4       26 RESIDUE 
     5 NAG101     32 GROUP   
     6 AMU102     46 GROUP   
     7 NAG103     64 GROUP   
@<TRIPOS>SET

