#    Name: 6fcr_1_ALA_DGL_API_DAL_NAG_AMU_NAG_CAVITY_N1_6
#    Modification time : Fri May 22 19:30:26 2020

@<TRIPOS>MOLECULE
6fcr_1_ALA_DGL_API_DAL_NAG_AMU_NAG_CAVITY_N1_6
   79     0     5     0     0
SMALL
NO_CHARGES


@<TRIPOS>ATOM
      1 OG         64.0600  -22.6500  -22.5800 O.3       1 SER1        0.0000 
      2 OG         65.4800  -23.4500  -23.9400 O.3       1 SER1        0.0000 
      3 OG         66.6200  -24.4300  -23.8300 O.3       1 SER1        0.0000 
      4 OG         66.4200  -22.3200  -23.6300 O.3       1 SER1        0.0000 
      5 OG         64.6900  -16.6700  -17.1900 O.3       1 SER1        0.0000 
      6 N          65.2000  -23.6200  -22.4700 N.am      2 ALA2        0.0000 
      7 N          63.5800  -20.7100  -20.9200 N.am      2 ALA2        0.0000 
      8 N          63.3000  -20.8700  -19.4600 N.am      2 ALA2        0.0000 
      9 O          63.0200  -21.0300  -17.9900 O.2       2 ALA2        0.0000 
     10 N          64.7200  -21.6800  -20.8100 N.am      2 ALA2        0.0000 
     11 N          64.4300  -21.8400  -19.3500 N.am      2 ALA2        0.0000 
     12 N          65.8500  -22.6500  -20.7000 N.am      2 ALA2        0.0000 
     13 O          67.2700  -23.4600  -22.0600 O.2       2 ALA2        0.0000 
     14 N          64.2300  -19.7400  -19.1500 N.am      2 ALA2        0.0000 
     15 O          63.9500  -19.9000  -17.6900 O.2       2 ALA2        0.0000 
     16 O          63.6700  -20.0700  -16.2200 O.2       2 ALA2        0.0000 
     17 N          65.3700  -20.7100  -19.0400 N.am      2 ALA2        0.0000 
     18 O          65.0900  -20.8800  -17.5800 O.2       2 ALA2        0.0000 
     19 N          66.7900  -21.5200  -20.4000 N.am      2 ALA2        0.0000 
     20 N          62.3300  -16.9900  -16.1400 N.am      2 ALA2        0.0000 
     21 N          62.0500  -17.1600  -14.6700 N.am      2 ALA2        0.0000 
     22 N          61.7700  -17.3200  -13.2100 N.am      2 ALA2        0.0000 
     23 N          61.4900  -17.4800  -11.7500 N.am      2 ALA2        0.0000 
     24 O          63.4700  -17.9600  -16.0300 O.2       2 ALA2        0.0000 
     25 N          63.1900  -18.1300  -14.5600 N.am      2 ALA2        0.0000 
     26 N          62.9100  -18.2900  -13.1000 N.am      2 ALA2        0.0000 
     27 O          62.6300  -18.4500  -11.6400 O.2       2 ALA2        0.0000 
     28 O          64.6100  -18.9400  -15.9200 O.2       2 ALA2        0.0000 
     29 O          64.3300  -19.1000  -14.4500 O.2       2 ALA2        0.0000 
     30 N          64.0500  -19.2600  -12.9900 N.am      2 ALA2        0.0000 
     31 O          63.7600  -19.4300  -11.5300 O.2       2 ALA2        0.0000 
     32 N          66.3100  -19.5800  -18.7400 N.am      2 ALA2        0.0000 
     33 O          66.0300  -19.7400  -17.2700 O.2       2 ALA2        0.0000 
     34 O          65.1800  -20.2300  -12.8800 O.2       2 ALA2        0.0000 
     35 N          60.1500  -14.4100  -11.6600 N.am      2 ALA2        0.0000 
     36 N          61.5700  -15.2200  -13.0100 N.am      2 ALA2        0.0000 
     37 N          61.2900  -15.3800  -11.5500 N.am      2 ALA2        0.0000 
     38 N          63.2700  -15.8600  -15.8300 N.am      2 ALA2        0.0000 
     39 N          62.9900  -16.0200  -14.3700 N.am      2 ALA2        0.0000 
     40 N          62.7100  -16.1900  -12.9000 N.am      2 ALA2        0.0000 
     41 N          62.4300  -16.3500  -11.4400 N.am      2 ALA2        0.0000 
     42 O          63.5600  -17.3200  -11.3300 O.2       2 ALA2        0.0000 
     43 O          64.7000  -18.3000  -11.2200 O.2       2 ALA2        0.0000 
     44 N          68.3800  -19.4200  -18.3200 N.am      2 ALA2        0.0000 
     45 NZ         65.8300  -17.6400  -17.0800 N.4       3 LYS4        0.0000 
     46 NZ         65.5500  -17.8100  -15.6100 N.4       3 LYS4        0.0000 
     47 NZ         65.2600  -17.9700  -14.1500 N.4       3 LYS4        0.0000 
     48 NZ         64.9800  -18.1300  -12.6800 N.4       3 LYS4        0.0000 
     49 NZ         66.9600  -18.6100  -16.9700 N.4       3 LYS4        0.0000 
     50 NZ         66.4800  -16.6700  -15.3100 N.4       3 LYS4        0.0000 
     51 NZ         67.9000  -17.4800  -16.6600 N.4       3 LYS4        0.0000 
     52 CA         65.0000  -21.5200  -22.2800 C.3       4 GLY6        0.0000 
     53 CA         63.1000  -18.7700  -19.2600 C.3       4 GLY6        0.0000 
     54 CA         62.8200  -18.9300  -17.8000 C.3       4 GLY6        0.0000 
     55 CA         64.5200  -19.5800  -20.6200 C.3       4 GLY6        0.0000 
     56 CA         65.9300  -20.3900  -21.9700 C.3       4 GLY6        0.0000 
     57 CA         65.6500  -20.5500  -20.5100 C.3       4 GLY6        0.0000 
     58 CA         63.7500  -17.8000  -17.4900 C.3       4 GLY6        0.0000 
     59 CA         65.1700  -18.6100  -18.8500 C.3       4 GLY6        0.0000 
     60 CA         66.8700  -19.2500  -21.6700 C.3       4 GLY6        0.0000 
     61 CA         66.5900  -19.4200  -20.2000 C.3       4 GLY6        0.0000 
     62 CA         64.4100  -16.8300  -15.7200 C.3       4 GLY6        0.0000 
     63 CA         66.1100  -17.4800  -18.5400 C.3       4 GLY6        0.0000 
     64 CA         62.7900  -13.9200  -14.1700 C.3       4 GLY6        0.0000 
     65 CA         65.3500  -15.7000  -15.4200 C.3       4 GLY6        0.0000 
     66 CA         67.0500  -16.3500  -18.2300 C.3       4 GLY6        0.0000 
     67 CA         66.5600  -14.4100  -16.5700 C.3       4 GLY6        0.0000 
     68 DU         66.1300  -22.4900  -22.1700 H         5 CUB7        0.0000 
     69 DU         67.5500  -23.3000  -23.5200 H         5 CUB7        0.0000 
     70 DU         67.0700  -21.3600  -21.8600 H         5 CUB7        0.0000 
     71 DU         68.2100  -22.3300  -21.7500 H         5 CUB7        0.0000 
     72 DU         64.8900  -18.7700  -17.3800 H         5 CUB7        0.0000 
     73 DU         64.1300  -17.0000  -14.2600 H         5 CUB7        0.0000 
     74 DU         63.8500  -17.1600  -12.7900 H         5 CUB7        0.0000 
     75 DU         67.2500  -18.4500  -18.4300 H         5 CUB7        0.0000 
     76 DU         61.3700  -13.1100  -12.8200 H         5 CUB7        0.0000 
     77 DU         62.5100  -14.0900  -12.7100 H         5 CUB7        0.0000 
     78 DU         65.0600  -15.8700  -13.9500 H         5 CUB7        0.0000 
     79 DU         66.7600  -16.5100  -16.7700 H         5 CUB7        0.0000 
@<TRIPOS>BOND
@<TRIPOS>SUBSTRUCTURE
     1 SER1        1 GROUP   
     2 ALA2        6 GROUP   
     3 LYS4       45 GROUP   
     4 GLY6       52 GROUP   
     5 CUB7       68 GROUP   
@<TRIPOS>SET

