#    Name: 6guf_1_23D
#    Modification time : Fri May 22 19:30:57 2020

@<TRIPOS>MOLECULE
6guf_1_23D
   27    30     1     0     0
SMALL
NO_CHARGES


@<TRIPOS>ATOM
      1 CAS        -5.5100  -26.2320   25.2600 C.ar      1 23D301      0.0000 
      2 CAQ        -4.4830  -26.9550   25.8110 C.ar      1 23D301      0.0000 
      3 CL1        -3.2710  -27.5340   24.7120 Cl        1 23D301      0.0000 
      4 CAP        -4.4030  -27.2350   27.1610 C.ar      1 23D301      0.0000 
      5 CAO        -5.3970  -26.7490   27.9860 C.ar      1 23D301      0.0000 
      6 CAN        -6.4660  -26.0360   27.4560 C.ar      1 23D301      0.0000 
      7 CAM        -6.5240  -25.7660   26.0890 C.ar      1 23D301      0.0000 
      8 N6         -7.5680  -25.0330   25.4820 N.pl3     1 23D301      0.0000 
      9 C6         -7.5060  -24.0490   24.5430 C.ar      1 23D301      0.0000 
     10 N1         -6.3630  -23.6970   23.9060 N.ar      1 23D301      0.0000 
     11 C5         -8.6730  -23.3550   24.2180 C.ar      1 23D301      0.0000 
     12 N7         -9.9740  -23.4750   24.6610 N.2       1 23D301      0.0000 
     13 C8        -10.6060  -22.5470   23.9830 C.2       1 23D301      0.0000 
     14 N9         -9.8090  -21.8330   23.1400 N.pl3     1 23D301      0.0000 
     15 CAZ       -10.2350  -20.7620   22.2370 C.3       1 23D301      0.0000 
     16 CBA        -9.4220  -19.5050   22.3880 C.3       1 23D301      0.0000 
     17 C4         -8.5630  -22.3530   23.2790 C.ar      1 23D301      0.0000 
     18 N3         -7.4560  -21.9750   22.6300 N.ar      1 23D301      0.0000 
     19 C2         -6.3790  -22.6950   22.9910 C.ar      1 23D301      0.0000 
     20 N2         -5.2330  -22.3710   22.3880 N.pl3     1 23D301      0.0000 
     21 CAG        -3.9100  -22.8280   22.7910 C.3       1 23D301      0.0000 
     22 CAF        -2.8900  -21.7420   22.4580 C.3       1 23D301      0.0000 
     23 CAE        -1.4530  -22.2570   22.4500 C.3       1 23D301      0.0000 
     24 CAD        -1.3160  -23.6340   23.0610 C.3       1 23D301      0.0000 
     25 CAC        -2.1620  -24.6420   22.3000 C.3       1 23D301      0.0000 
     26 CAA        -3.6090  -24.1720   22.1170 C.3       1 23D301      0.0000 
     27 NAB        -3.9270  -24.0810   20.6610 N.4       1 23D301      0.0000 
@<TRIPOS>BOND
     1    1    2 ar   
     2    1    7 ar   
     3    2    3 1    
     4    2    4 ar   
     5    4    5 ar   
     6    5    6 ar   
     7    6    7 ar   
     8    7    8 1    
     9    8    9 1    
    10    9   10 ar   
    11    9   11 ar   
    12   10   19 ar   
    13   11   12 1    
    14   11   17 ar   
    15   12   13 2    
    16   13   14 1    
    17   14   15 1    
    18   14   17 1    
    19   15   16 1    
    20   17   18 ar   
    21   18   19 ar   
    22   19   20 1    
    23   20   21 1    
    24   21   22 1    
    25   21   26 1    
    26   22   23 1    
    27   23   24 1    
    28   24   25 1    
    29   25   26 1    
    30   26   27 1    
@<TRIPOS>SUBSTRUCTURE
     1 23D301      1 GROUP   
@<TRIPOS>SET

