#    Name: 6guf_2_23D
#    Modification time : Fri May 22 19:31:01 2020

@<TRIPOS>MOLECULE
6guf_2_23D
   27    30     1     0     0
SMALL
NO_CHARGES


@<TRIPOS>ATOM
      1 CAS       -32.0670   22.2960   29.8800 C.ar      1 23D301      0.0000 
      2 CAQ       -32.0520   23.5610   30.4310 C.ar      1 23D301      0.0000 
      3 CL1       -30.6440   24.5300   30.1250 Cl        1 23D301      0.0000 
      4 CAP       -33.0860   24.0470   31.2110 C.ar      1 23D301      0.0000 
      5 CAO       -34.1740   23.2290   31.4420 C.ar      1 23D301      0.0000 
      6 CAN       -34.2210   21.9540   30.8960 C.ar      1 23D301      0.0000 
      7 CAM       -33.1740   21.4830   30.1010 C.ar      1 23D301      0.0000 
      8 N6        -33.1310   20.1990   29.5140 N.pl3     1 23D301      0.0000 
      9 C6        -33.3370   18.9920   30.1040 C.ar      1 23D301      0.0000 
     10 N1        -33.6430   18.9170   31.4090 N.ar      1 23D301      0.0000 
     11 C5        -33.2510   17.7920   29.3730 C.ar      1 23D301      0.0000 
     12 N7        -32.9580   17.4970   28.0470 N.2       1 23D301      0.0000 
     13 C8        -33.0360   16.1880   28.0140 C.2       1 23D301      0.0000 
     14 N9        -33.3620   15.6190   29.2020 N.pl3     1 23D301      0.0000 
     15 CAZ       -33.5370   14.2020   29.5040 C.3       1 23D301      0.0000 
     16 CBA       -32.4910   13.6790   30.4570 C.3       1 23D301      0.0000 
     17 C4        -33.4970   16.6360   30.0770 C.ar      1 23D301      0.0000 
     18 N3        -33.8080   16.5340   31.3760 N.ar      1 23D301      0.0000 
     19 C2        -33.8630   17.7280   31.9940 C.ar      1 23D301      0.0000 
     20 N2        -34.1600   17.7300   33.2920 N.pl3     1 23D301      0.0000 
     21 CAG       -34.1280   18.9100   34.1440 C.3       1 23D301      0.0000 
     22 CAF       -34.0200   18.4950   35.6100 C.3       1 23D301      0.0000 
     23 CAE       -33.9390   19.7230   36.5090 C.3       1 23D301      0.0000 
     24 CAD       -35.1290   20.6280   36.2860 C.3       1 23D301      0.0000 
     25 CAC       -35.2520   21.0290   34.8230 C.3       1 23D301      0.0000 
     26 CAA       -35.3490   19.8110   33.9020 C.3       1 23D301      0.0000 
     27 NAB       -36.6450   19.0810   34.1010 N.4       1 23D301      0.0000 
@<TRIPOS>BOND
     1    1    2 ar   
     2    1    7 ar   
     3    2    3 1    
     4    2    4 ar   
     5    4    5 ar   
     6    5    6 ar   
     7    6    7 ar   
     8    7    8 1    
     9    8    9 1    
    10    9   10 ar   
    11    9   11 ar   
    12   10   19 ar   
    13   11   12 1    
    14   11   17 ar   
    15   12   13 2    
    16   13   14 1    
    17   14   15 1    
    18   14   17 1    
    19   15   16 1    
    20   17   18 ar   
    21   18   19 ar   
    22   19   20 1    
    23   20   21 1    
    24   21   22 1    
    25   21   26 1    
    26   22   23 1    
    27   23   24 1    
    28   24   25 1    
    29   25   26 1    
    30   26   27 1    
@<TRIPOS>SUBSTRUCTURE
     1 23D301      1 GROUP   
@<TRIPOS>SET

