#    Name: 6aqo_2_45T
#    Modification time : Fri May 22 19:25:39 2020

@<TRIPOS>MOLECULE
6aqo_2_45T
   28    29     1     0     0
SMALL
NO_CHARGES


@<TRIPOS>ATOM
      1 OAE         2.4410  -34.3080   -5.8160           1 45T301      0.0000 
      2 PBA         2.4780  -33.2310   -4.7600           1 45T301      0.0000 
      3 OAF         1.2480  -33.3240   -3.8870           1 45T301      0.0000 
      4 OAC         3.7180  -33.3830   -3.9090           1 45T301      0.0000 
      5 CAL         2.5090  -31.5650   -5.5790           1 45T301      0.0000 
      6 CAJ         1.8330  -30.5370   -4.6810           1 45T301      0.0000 
      7 OAS         2.4760  -29.3190   -4.8930           1 45T301      0.0000 
      8 CAN         1.7150  -28.4760   -5.6970           1 45T301      0.0000 
      9 CAY         1.1470  -27.3540   -4.8380           1 45T301      0.0000 
     10 OAT         1.9070  -26.2210   -5.1310           1 45T301      0.0000 
     11 CAK         2.3920  -25.4820   -4.0490           1 45T301      0.0000 
     12 CAM         3.1790  -24.3320   -4.6740           1 45T301      0.0000 
     13 PBB         3.3910  -22.8950   -3.5160           1 45T301      0.0000 
     14 OAG         3.2410  -23.3760   -2.0900           1 45T301      0.0000 
     15 OAH         4.7740  -22.3170   -3.7120           1 45T301      0.0000 
     16 OAD         2.3540  -21.8380   -3.8090           1 45T301      0.0000 
     17 CAO        -0.3100  -27.0640   -5.1880           1 45T301      0.0000 
     18 N9         -0.4120  -26.5130   -6.5300           1 45T301      0.0000 
     19 C4         -0.7140  -27.1860   -7.6510           1 45T301      0.0000 
     20 N3         -1.0240  -28.6120   -7.9460           1 45T301      0.0000 
     21 C2         -1.3160  -29.0360   -9.3190           1 45T301      0.0000 
     22 N2         -1.6200  -30.4240   -9.6060           1 45T301      0.0000 
     23 N1         -1.3050  -28.0680  -10.3970           1 45T301      0.0000 
     24 C6         -1.0070  -26.6950  -10.1140           1 45T301      0.0000 
     25 O6         -0.9950  -25.8990  -10.9900           1 45T301      0.0000 
     26 C5         -0.7010  -26.2590   -8.6800           1 45T301      0.0000 
     27 N7         -0.3960  -25.0730   -8.1390           1 45T301      0.0000 
     28 C8         -0.2300  -25.2380   -6.8400           1 45T301      0.0000 
@<TRIPOS>BOND
     1    1    2 du   
     2    2    3 du   
     3    2    4 du   
     4    2    5 du   
     5    5    6 du   
     6    6    7 du   
     7    7    8 du   
     8    8    9 du   
     9    9   10 du   
    10    9   17 du   
    11   10   11 du   
    12   11   12 du   
    13   12   13 du   
    14   13   14 du   
    15   13   15 du   
    16   13   16 du   
    17   17   18 du   
    18   18   19 du   
    19   18   28 du   
    20   19   20 du   
    21   19   26 du   
    22   20   21 du   
    23   21   22 du   
    24   21   23 du   
    25   23   24 du   
    26   24   25 du   
    27   24   26 du   
    28   26   27 du   
    29   27   28 du   
@<TRIPOS>SUBSTRUCTURE
     1 45T301      1 GROUP   
@<TRIPOS>SET

