#    Name: 6aqo_6_45T_CAVITY_N1_8
#    Modification time : Fri May 22 19:25:50 2020

@<TRIPOS>MOLECULE
6aqo_6_45T_CAVITY_N1_8
   94     0     7     0     0
SMALL
NO_CHARGES


@<TRIPOS>ATOM
      1 OG         18.4000  -56.1800   -2.7200 O.3       1 SER1        0.0000 
      2 OG         23.7500  -51.3100   -6.3100 O.3       1 SER1        0.0000 
      3 OG         18.3400  -54.3800   -1.6000 O.3       1 SER1        0.0000 
      4 OG         18.9000  -55.7500   -1.3700 O.3       1 SER1        0.0000 
      5 OG         22.9600  -51.3000   -4.3400 O.3       1 SER1        0.0000 
      6 OG         19.4100  -55.3100   -0.0300 O.3       1 SER1        0.0000 
      7 N          23.8000  -53.1200   -7.4300 N.am      2 ALA2        0.0000 
      8 O          17.3900  -48.4700   -3.1600 O.2       2 ALA2        0.0000 
      9 O          18.6800  -48.0400   -3.7900 O.2       2 ALA2        0.0000 
     10 N          17.8900  -48.0300   -1.8200 N.am      2 ALA2        0.0000 
     11 O          18.6300  -46.2300   -2.6800 O.2       2 ALA2        0.0000 
     12 O          19.1900  -47.6100   -2.4400 O.2       2 ALA2        0.0000 
     13 O          17.8400  -46.2200   -0.7100 O.2       2 ALA2        0.0000 
     14 N          18.4000  -47.6000   -0.4700 N.am      2 ALA2        0.0000 
     15 O          19.1300  -45.8000   -1.3300 O.2       2 ALA2        0.0000 
     16 N          17.0500  -46.2100    1.2600 N.am      2 ALA2        0.0000 
     17 N          16.2700  -46.2000    3.2300 N.am      2 ALA2        0.0000 
     18 OD1        24.3600  -54.4900   -7.1900 O.co2     3 ASP3        0.0000 
     19 OD1        19.9800  -47.6200   -4.4100 O.co2     3 ASP3        0.0000 
     20 OD1        19.9200  -45.8100   -3.3000 O.co2     3 ASP3        0.0000 
     21 OD1        20.4300  -45.3700   -1.9600 O.co2     3 ASP3        0.0000 
     22 NZ         17.2700  -53.4400   -3.1800 N.4       4 LYS4        0.0000 
     23 NZ         17.8300  -54.8100   -2.9500 N.4       4 LYS4        0.0000 
     24 NZ         17.4400  -50.2700   -4.2700 N.4       4 LYS4        0.0000 
     25 NZ         18.0000  -51.6400   -4.0400 N.4       4 LYS4        0.0000 
     26 NZ         19.3000  -51.2200   -4.6700 N.4       4 LYS4        0.0000 
     27 NZ         20.0300  -49.4200   -5.5200 N.4       4 LYS4        0.0000 
     28 NZ         20.5900  -50.7900   -5.2900 N.4       4 LYS4        0.0000 
     29 NZ         22.8400  -56.2800   -4.3600 N.4       4 LYS4        0.0000 
     30 NZ         21.8900  -50.3700   -5.9200 N.4       4 LYS4        0.0000 
     31 NZ         24.1400  -55.8500   -4.9900 N.4       4 LYS4        0.0000 
     32 NZ         15.9200  -52.0600   -1.4400 N.4       4 LYS4        0.0000 
     33 NZ         16.6500  -50.2600   -2.3000 N.4       4 LYS4        0.0000 
     34 NZ         17.2200  -51.6300   -2.0700 N.4       4 LYS4        0.0000 
     35 NZ         17.7800  -53.0000   -1.8400 N.4       4 LYS4        0.0000 
     36 NZ         19.2400  -49.4100   -3.5500 N.4       4 LYS4        0.0000 
     37 NZ         20.5400  -48.9900   -4.1800 N.4       4 LYS4        0.0000 
     38 NZ         21.1000  -50.3600   -3.9500 N.4       4 LYS4        0.0000 
     39 NZ         22.4000  -49.9300   -4.5800 N.4       4 LYS4        0.0000 
     40 NZ         20.4800  -47.1800   -3.0700 N.4       4 LYS4        0.0000 
     41 NZ         21.0500  -48.5500   -2.8400 N.4       4 LYS4        0.0000 
     42 NZ         21.6100  -49.9200   -2.6100 N.4       4 LYS4        0.0000 
     43 NZ         20.9900  -46.7500   -1.7300 N.4       4 LYS4        0.0000 
     44 NZ         22.7900  -45.8800   -1.0100 N.4       4 LYS4        0.0000 
     45 CZ         21.9400  -52.1700   -7.0300 C.ar      5 PHE5        0.0000 
     46 CZ         23.0100  -53.1100   -5.4600 C.ar      5 PHE5        0.0000 
     47 CZ         23.5800  -54.4800   -5.2200 C.ar      5 PHE5        0.0000 
     48 CZ         24.3100  -52.6900   -6.0800 C.ar      5 PHE5        0.0000 
     49 CZ         24.8700  -54.0600   -5.8500 C.ar      5 PHE5        0.0000 
     50 CZ         25.4300  -55.4300   -5.6200 C.ar      5 PHE5        0.0000 
     51 CZ         23.5200  -52.6800   -4.1100 C.ar      5 PHE5        0.0000 
     52 CZ         24.0800  -54.0500   -3.8800 C.ar      5 PHE5        0.0000 
     53 CZ         25.9400  -54.9900   -4.2800 C.ar      5 PHE5        0.0000 
     54 CA         21.7700  -55.3400   -5.9400 C.3       6 GLY6        0.0000 
     55 CA         22.5100  -53.5500   -6.8000 C.3       6 GLY6        0.0000 
     56 CA         23.0700  -54.9200   -6.5700 C.3       6 GLY6        0.0000 
     57 CA         18.5700  -53.0100   -3.8100 C.3       6 GLY6        0.0000 
     58 CA         19.1300  -54.3900   -3.5700 C.3       6 GLY6        0.0000 
     59 CA         19.6900  -55.7600   -3.3400 C.3       6 GLY6        0.0000 
     60 CA         19.8600  -52.5900   -4.4300 C.3       6 GLY6        0.0000 
     61 CA         20.4200  -53.9600   -4.2000 C.3       6 GLY6        0.0000 
     62 CA         20.9900  -55.3300   -3.9700 C.3       6 GLY6        0.0000 
     63 CA         21.1600  -52.1600   -5.0600 C.3       6 GLY6        0.0000 
     64 CA         21.7200  -53.5400   -4.8300 C.3       6 GLY6        0.0000 
     65 CA         16.4900  -53.4300   -1.2100 C.3       6 GLY6        0.0000 
     66 CA         16.9900  -52.9900    0.1300 C.3       6 GLY6        0.0000 
     67 CA         17.1600  -49.8300   -0.9600 C.3       6 GLY6        0.0000 
     68 CA         17.7200  -51.2000   -0.7300 C.3       6 GLY6        0.0000 
     69 CA         17.1100  -48.0200    0.1500 C.3       6 GLY6        0.0000 
     70 CA         18.9600  -48.9700   -0.2400 C.3       6 GLY6        0.0000 
     71 CA         16.4900  -44.8400    1.0300 C.3       6 GLY6        0.0000 
     72 CA         17.7800  -44.4200    0.4100 C.3       6 GLY6        0.0000 
     73 CA         19.0800  -43.9900   -0.2200 C.3       6 GLY6        0.0000 
     74 CA         20.9400  -44.9400   -0.6200 C.3       6 GLY6        0.0000 
     75 DU         22.2800  -54.9100   -4.6000 H         7 CUB7        0.0000 
     76 DU         22.4500  -51.7400   -5.6900 H         7 CUB7        0.0000 
     77 DU         17.9500  -49.8400   -2.9300 H         7 CUB7        0.0000 
     78 DU         18.5100  -51.2100   -2.7000 H         7 CUB7        0.0000 
     79 DU         19.0700  -52.5800   -2.4600 H         7 CUB7        0.0000 
     80 DU         19.6400  -53.9500   -2.2300 H         7 CUB7        0.0000 
     81 DU         20.2000  -55.3200   -2.0000 H         7 CUB7        0.0000 
     82 DU         19.8100  -50.7800   -3.3200 H         7 CUB7        0.0000 
     83 DU         20.3700  -52.1500   -3.0900 H         7 CUB7        0.0000 
     84 DU         20.9300  -53.5300   -2.8600 H         7 CUB7        0.0000 
     85 DU         21.6600  -51.7300   -3.7200 H         7 CUB7        0.0000 
     86 DU         22.2300  -53.1000   -3.4900 H         7 CUB7        0.0000 
     87 DU         18.4600  -49.4000   -1.5800 H         7 CUB7        0.0000 
     88 DU         19.0200  -50.7700   -1.3500 H         7 CUB7        0.0000 
     89 DU         19.7500  -48.9800   -2.2100 H         7 CUB7        0.0000 
     90 DU         20.3100  -50.3500   -1.9800 H         7 CUB7        0.0000 
     91 DU         19.7000  -47.1700   -1.1000 H         7 CUB7        0.0000 
     92 DU         20.2600  -48.5400   -0.8700 H         7 CUB7        0.0000 
     93 DU         18.3500  -45.7900    0.6400 H         7 CUB7        0.0000 
     94 DU         19.6400  -45.3600    0.0100 H         7 CUB7        0.0000 
@<TRIPOS>BOND
@<TRIPOS>SUBSTRUCTURE
     1 SER1        1 GROUP   
     2 ALA2        7 GROUP   
     3 ASP3       18 GROUP   
     4 LYS4       22 GROUP   
     5 PHE5       45 GROUP   
     6 GLY6       54 GROUP   
     7 CUB7       75 GROUP   
@<TRIPOS>SET

