#    Name: 6aqo_2_45T_CAVITY_N1_6
#    Modification time : Fri May 22 19:25:41 2020

@<TRIPOS>MOLECULE
6aqo_2_45T_CAVITY_N1_6
   83     0     7     0     0
SMALL
NO_CHARGES


@<TRIPOS>ATOM
      1 OG         -1.9700  -29.4500   -8.7100 O.3       1 SER1        0.0000 
      2 OG         -1.4100  -30.8200   -8.4800 O.3       1 SER1        0.0000 
      3 OG         -0.9000  -30.3800   -7.1400 O.3       1 SER1        0.0000 
      4 O          -1.0100  -26.2900  -11.7700 O.2       2 ALA2        0.0000 
      5 N          -0.4500  -27.6600  -11.5400 N.am      2 ALA2        0.0000 
      6 O          -0.8500  -32.1900   -8.2500 O.2       2 ALA2        0.0000 
      7 N          -0.6800  -29.0200   -9.3400 N.am      2 ALA2        0.0000 
      8 O           3.0900  -33.2000   -4.3800 O.2       2 ALA2        0.0000 
      9 O           3.6600  -34.5700   -4.1500 O.2       2 ALA2        0.0000 
     10 O           4.3900  -32.7800   -5.0100 O.2       2 ALA2        0.0000 
     11 O           2.8700  -34.5600   -2.1800 O.2       2 ALA2        0.0000 
     12 O           3.6000  -32.7700   -3.0400 O.2       2 ALA2        0.0000 
     13 O           4.9000  -32.3400   -3.6700 O.2       2 ALA2        0.0000 
     14 N           6.1900  -31.9200   -4.2900 N.am      2 ALA2        0.0000 
     15 N           2.8200  -32.7600   -1.0700 N.am      2 ALA2        0.0000 
     16 N           3.5500  -30.9600   -1.9300 N.am      2 ALA2        0.0000 
     17 N           4.1100  -32.3300   -1.7000 N.am      2 ALA2        0.0000 
     18 N           4.6700  -33.7000   -1.4600 N.am      2 ALA2        0.0000 
     19 N           5.4000  -31.9100   -2.3200 N.am      2 ALA2        0.0000 
     20 OD1        -0.5100  -25.8600  -10.4300 O.co2     3 ASP3        0.0000 
     21 OD1        -1.2900  -25.8500   -8.4600 O.co2     3 ASP3        0.0000 
     22 OD1         2.5900  -33.6400   -5.7200 O.co2     3 ASP3        0.0000 
     23 OD1         1.8000  -33.6300   -3.7500 O.co2     3 ASP3        0.0000 
     24 OD1         2.3600  -35.0000   -3.5200 O.co2     3 ASP3        0.0000 
     25 NZ         -0.3400  -31.7600   -6.9000 N.4       4 LYS4        0.0000 
     26 NZ          0.9600  -31.3300   -7.5300 N.4       4 LYS4        0.0000 
     27 NZ          1.5200  -32.7000   -7.3000 N.4       4 LYS4        0.0000 
     28 NZ          2.8100  -32.2800   -7.9300 N.4       4 LYS4        0.0000 
     29 NZ          0.1700  -31.3200   -5.5600 N.4       4 LYS4        0.0000 
     30 NZ          0.7300  -32.6900   -5.3300 N.4       4 LYS4        0.0000 
     31 NZ          2.0300  -32.2700   -5.9600 N.4       4 LYS4        0.0000 
     32 NZ          2.7600  -30.4700   -6.8200 N.4       4 LYS4        0.0000 
     33 NZ          3.3200  -31.8400   -6.5800 N.4       4 LYS4        0.0000 
     34 NZ          1.2400  -32.2600   -3.9900 N.4       4 LYS4        0.0000 
     35 NZ          3.8300  -31.4100   -5.2400 N.4       4 LYS4        0.0000 
     36 NZ          5.1200  -30.9800   -5.8700 N.4       4 LYS4        0.0000 
     37 NZ          3.7700  -29.6000   -4.1300 N.4       4 LYS4        0.0000 
     38 NZ          5.6300  -30.5500   -4.5200 N.4       4 LYS4        0.0000 
     39 NZ          3.7200  -27.7900   -3.0200 N.4       4 LYS4        0.0000 
     40 NZ          4.2800  -29.1600   -2.7900 N.4       4 LYS4        0.0000 
     41 NZ          6.1400  -30.1100   -3.1800 N.4       4 LYS4        0.0000 
     42 CZ         -1.8000  -26.2800   -9.8000 C.ar      5 PHE5        0.0000 
     43 CZ         -1.2400  -27.6500   -9.5700 C.ar      5 PHE5        0.0000 
     44 CZ         -0.1100  -30.3900   -9.1100 C.ar      5 PHE5        0.0000 
     45 CZ          0.0600  -27.2300  -10.2000 C.ar      5 PHE5        0.0000 
     46 CZ          0.6200  -28.6000   -9.9600 C.ar      5 PHE5        0.0000 
     47 CZ         -2.5900  -26.2700   -7.8300 C.ar      5 PHE5        0.0000 
     48 CZ         -2.0300  -27.6400   -7.6000 C.ar      5 PHE5        0.0000 
     49 CZ         -1.4600  -29.0100   -7.3700 C.ar      5 PHE5        0.0000 
     50 CZ         -0.7300  -27.2200   -8.2300 C.ar      5 PHE5        0.0000 
     51 CZ          0.3900  -29.9600   -7.7600 C.ar      5 PHE5        0.0000 
     52 CZ          1.1200  -28.1600   -8.6200 C.ar      5 PHE5        0.0000 
     53 CZ          1.6900  -29.5300   -8.3900 C.ar      5 PHE5        0.0000 
     54 CZ          2.2500  -30.9100   -8.1600 C.ar      5 PHE5        0.0000 
     55 CA          0.2800  -25.8700  -12.4000 C.3       6 GLY6        0.0000 
     56 CA          0.8400  -27.2400  -12.1700 C.3       6 GLY6        0.0000 
     57 CA          0.4500  -31.7700   -8.8700 C.3       6 GLY6        0.0000 
     58 CA          0.7900  -25.4300  -11.0600 C.3       6 GLY6        0.0000 
     59 CA          1.3500  -26.8000  -10.8200 C.3       6 GLY6        0.0000 
     60 CA          0.0000  -25.4200   -9.0900 C.3       6 GLY6        0.0000 
     61 CA          0.5600  -26.7900   -8.8500 C.3       6 GLY6        0.0000 
     62 CA          1.0700  -26.3600   -7.5100 C.3       6 GLY6        0.0000 
     63 CA          1.6300  -27.7300   -7.2800 C.3       6 GLY6        0.0000 
     64 CA          2.1900  -29.1000   -7.0500 C.3       6 GLY6        0.0000 
     65 CA          2.1400  -27.2900   -5.9400 C.3       6 GLY6        0.0000 
     66 CA          2.7000  -28.6600   -5.7000 C.3       6 GLY6        0.0000 
     67 CA          3.2600  -30.0300   -5.4700 C.3       6 GLY6        0.0000 
     68 CA          4.7900  -28.7300   -1.4400 C.3       6 GLY6        0.0000 
     69 CA          5.3500  -30.1000   -1.2100 C.3       6 GLY6        0.0000 
     70 DU         -0.1700  -28.5900   -7.9900 H         7 CUB7        0.0000 
     71 DU         -0.3900  -29.9500   -5.7900 H         7 CUB7        0.0000 
     72 DU         -0.7900  -25.4100   -7.1200 H         7 CUB7        0.0000 
     73 DU         -0.2200  -26.7800   -6.8800 H         7 CUB7        0.0000 
     74 DU          0.3400  -28.1500   -6.6500 H         7 CUB7        0.0000 
     75 DU          0.9000  -29.5200   -6.4200 H         7 CUB7        0.0000 
     76 DU          1.4600  -30.8900   -6.1900 H         7 CUB7        0.0000 
     77 DU          1.4100  -29.0900   -5.0800 H         7 CUB7        0.0000 
     78 DU          1.9700  -30.4600   -4.8500 H         7 CUB7        0.0000 
     79 DU          2.5300  -31.8300   -4.6100 H         7 CUB7        0.0000 
     80 DU          1.7500  -31.8200   -2.6400 H         7 CUB7        0.0000 
     81 DU          2.3100  -33.1900   -2.4100 H         7 CUB7        0.0000 
     82 DU          4.3300  -30.9700   -3.9000 H         7 CUB7        0.0000 
     83 DU          4.8400  -30.5400   -2.5500 H         7 CUB7        0.0000 
@<TRIPOS>BOND
@<TRIPOS>SUBSTRUCTURE
     1 SER1        1 GROUP   
     2 ALA2        4 GROUP   
     3 ASP3       20 GROUP   
     4 LYS4       25 GROUP   
     5 PHE5       42 GROUP   
     6 GLY6       55 GROUP   
     7 CUB7       70 GROUP   
@<TRIPOS>SET

