#    Name: 6aqo_3_45T
#    Modification time : Fri May 22 19:25:43 2020

@<TRIPOS>MOLECULE
6aqo_3_45T
   28    29     1     0     0
SMALL
NO_CHARGES


@<TRIPOS>ATOM
      1 OAE       -27.4590  -29.4520  -77.9880           1 45T301      0.0000 
      2 PBA       -26.9710  -29.7970  -76.6000           1 45T301      0.0000 
      3 OAF       -26.3430  -31.1700  -76.6130           1 45T301      0.0000 
      4 OAC       -25.9500  -28.7730  -76.1600           1 45T301      0.0000 
      5 CAL       -28.4250  -29.7770  -75.4380           1 45T301      0.0000 
      6 CAJ       -28.3450  -30.8970  -74.4050           1 45T301      0.0000 
      7 OAS       -27.6820  -30.3960  -73.2800           1 45T301      0.0000 
      8 CAN       -28.5440  -29.8090  -72.3480           1 45T301      0.0000 
      9 CAY       -29.1200  -30.9050  -71.4510           1 45T301      0.0000 
     10 OAT       -28.6150  -30.7160  -70.1570           1 45T301      0.0000 
     11 CAK       -28.4050  -31.8840  -69.4150           1 45T301      0.0000 
     12 CAM       -27.7810  -31.4580  -68.0870           1 45T301      0.0000 
     13 PBB       -27.9220  -32.7670  -66.7710           1 45T301      0.0000 
     14 OAG       -29.3790  -33.1000  -66.5770           1 45T301      0.0000 
     15 OAH       -27.3410  -32.2430  -65.4800           1 45T301      0.0000 
     16 OAD       -27.1700  -34.0070  -67.1920           1 45T301      0.0000 
     17 CAO       -30.6480  -30.9000  -71.4100           1 45T301      0.0000 
     18 N9        -31.1960  -29.8490  -70.5640           1 45T301      0.0000 
     19 C4        -31.6930  -28.6730  -70.9800           1 45T301      0.0000 
     20 N3        -31.8440  -28.0380  -72.3160           1 45T301      0.0000 
     21 C2        -32.4360  -26.7000  -72.4350           1 45T301      0.0000 
     22 N2        -32.5790  -26.0830  -73.7410           1 45T301      0.0000 
     23 N1        -32.8780  -25.9920  -71.2510           1 45T301      0.0000 
     24 C6        -32.7340  -26.6040  -69.9640           1 45T301      0.0000 
     25 O6        -33.0950  -26.0270  -68.9950           1 45T301      0.0000 
     26 C5        -32.1150  -27.9990  -69.8450           1 45T301      0.0000 
     27 N7        -31.8640  -28.7940  -68.7990           1 45T301      0.0000 
     28 C8        -31.3150  -29.9120  -69.2470           1 45T301      0.0000 
@<TRIPOS>BOND
     1    1    2 du   
     2    2    3 du   
     3    2    4 du   
     4    2    5 du   
     5    5    6 du   
     6    6    7 du   
     7    7    8 du   
     8    8    9 du   
     9    9   10 du   
    10    9   17 du   
    11   10   11 du   
    12   11   12 du   
    13   12   13 du   
    14   13   14 du   
    15   13   15 du   
    16   13   16 du   
    17   17   18 du   
    18   18   19 du   
    19   18   28 du   
    20   19   20 du   
    21   19   26 du   
    22   20   21 du   
    23   21   22 du   
    24   21   23 du   
    25   23   24 du   
    26   24   25 du   
    27   24   26 du   
    28   26   27 du   
    29   27   28 du   
@<TRIPOS>SUBSTRUCTURE
     1 45T301      1 GROUP   
@<TRIPOS>SET

