#    Name: 6aqo_1_45T
#    Modification time : Fri May 22 19:25:34 2020

@<TRIPOS>MOLECULE
6aqo_1_45T
   28    29     1     0     0
SMALL
NO_CHARGES


@<TRIPOS>ATOM
      1 OAE        -8.4510    1.4040  -46.2440           1 45T301      0.0000 
      2 PBA        -9.7950    2.0350  -45.9600           1 45T301      0.0000 
      3 OAF       -10.3970    1.4020  -44.7260           1 45T301      0.0000 
      4 OAC        -9.6170    3.5180  -45.7280           1 45T301      0.0000 
      5 CAL       -10.9390    1.7490  -47.4020           1 45T301      0.0000 
      6 CAJ       -10.8640    2.8560  -48.4530           1 45T301      0.0000 
      7 OAS        -9.9280    2.4750  -49.4210           1 45T301      0.0000 
      8 CAN       -10.5120    1.9210  -50.5640           1 45T301      0.0000 
      9 CAY       -10.7220    3.0230  -51.6020           1 45T301      0.0000 
     10 OAT        -9.8770    2.7520  -52.6850           1 45T301      0.0000 
     11 CAK        -9.2600    3.8710  -53.2530           1 45T301      0.0000 
     12 CAM        -9.5290    3.8000  -54.7500           1 45T301      0.0000 
     13 PBB        -8.4220    4.9170  -55.7410           1 45T301      0.0000 
     14 OAG        -8.1230    6.1680  -54.9490           1 45T301      0.0000 
     15 OAH        -7.1370    4.2000  -56.0790           1 45T301      0.0000 
     16 OAD        -9.1360    5.2910  -57.0130           1 45T301      0.0000 
     17 CAO       -12.1650    3.1000  -52.1040           1 45T301      0.0000 
     18 N9        -12.4940    1.9580  -52.9410           1 45T301      0.0000 
     19 C4        -13.0310    0.7980  -52.5340           1 45T301      0.0000 
     20 N3        -13.4480    0.2720  -51.2070           1 45T301      0.0000 
     21 C2        -14.0110   -1.0760  -51.0900           1 45T301      0.0000 
     22 N2        -14.4200   -1.5810  -49.7950           1 45T301      0.0000 
     23 N1        -14.1660   -1.9050  -52.2680           1 45T301      0.0000 
     24 C6        -13.7640   -1.3990  -53.5490           1 45T301      0.0000 
     25 O6        -13.8890   -2.0780  -54.5120           1 45T301      0.0000 
     26 C5        -13.1740    0.0100  -53.6620           1 45T301      0.0000 
     27 N7        -12.7210    0.7280  -54.6950           1 45T301      0.0000 
     28 C8        -12.3180    1.9050  -54.2480           1 45T301      0.0000 
@<TRIPOS>BOND
     1    1    2 du   
     2    2    3 du   
     3    2    4 du   
     4    2    5 du   
     5    5    6 du   
     6    6    7 du   
     7    7    8 du   
     8    8    9 du   
     9    9   10 du   
    10    9   17 du   
    11   10   11 du   
    12   11   12 du   
    13   12   13 du   
    14   13   14 du   
    15   13   15 du   
    16   13   16 du   
    17   17   18 du   
    18   18   19 du   
    19   18   28 du   
    20   19   20 du   
    21   19   26 du   
    22   20   21 du   
    23   21   22 du   
    24   21   23 du   
    25   23   24 du   
    26   24   25 du   
    27   24   26 du   
    28   26   27 du   
    29   27   28 du   
@<TRIPOS>SUBSTRUCTURE
     1 45T301      1 GROUP   
@<TRIPOS>SET

