#    Name: 6aqo_6_45T
#    Modification time : Fri May 22 19:25:48 2020

@<TRIPOS>MOLECULE
6aqo_6_45T
   28    29     1     0     0
SMALL
NO_CHARGES


@<TRIPOS>ATOM
      1 OAE        18.1220  -47.8000   -3.5340           1 45T301      0.0000 
      2 PBA        19.3260  -47.4720   -2.6850           1 45T301      0.0000 
      3 OAF        20.2270  -46.5150   -3.4290           1 45T301      0.0000 
      4 OAC        18.8690  -46.8340   -1.3940           1 45T301      0.0000 
      5 CAL        20.2510  -49.0440   -2.3140           1 45T301      0.0000 
      6 CAJ        20.0560  -50.0690   -3.4270           1 45T301      0.0000 
      7 OAS        19.7710  -51.3110   -2.8500           1 45T301      0.0000 
      8 CAN        19.9260  -52.3820   -3.7370           1 45T301      0.0000 
      9 CAY        20.6530  -53.5110   -3.0040           1 45T301      0.0000 
     10 OAT        20.1000  -54.7230   -3.4240           1 45T301      0.0000 
     11 CAK        19.5050  -55.4830   -2.4120           1 45T301      0.0000 
     12 CAM        18.4340  -56.3510   -3.0720           1 45T301      0.0000 
     13 PBB        18.4550  -58.0920   -2.4190           1 45T301      0.0000 
     14 OAG        17.7990  -58.1300   -1.0590           1 45T301      0.0000 
     15 OAH        19.8840  -58.5650   -2.3010           1 45T301      0.0000 
     16 OAD        17.7000  -58.9900   -3.3700           1 45T301      0.0000 
     17 CAO        22.1670  -53.5130   -3.2390           1 45T301      0.0000 
     18 N9         22.6070  -54.1870   -4.4530           1 45T301      0.0000 
     19 C4         23.1860  -53.5900   -5.5010           1 45T301      0.0000 
     20 N3         23.5260  -52.1760   -5.7990           1 45T301      0.0000 
     21 C2         24.1610  -51.8210   -7.0710           1 45T301      0.0000 
     22 N2         24.4910  -50.4360   -7.3500           1 45T301      0.0000 
     23 N1         24.4610  -52.8520   -8.0450           1 45T301      0.0000 
     24 C6         24.1300  -54.2180   -7.7580           1 45T301      0.0000 
     25 O6         24.3730  -55.0620   -8.5530           1 45T301      0.0000 
     26 C5         23.4670  -54.5810   -6.4270           1 45T301      0.0000 
     27 N7         23.0560  -55.7380   -5.8980           1 45T301      0.0000 
     28 C8         22.5470  -55.4880   -4.7010           1 45T301      0.0000 
@<TRIPOS>BOND
     1    1    2 du   
     2    2    3 du   
     3    2    4 du   
     4    2    5 du   
     5    5    6 du   
     6    6    7 du   
     7    7    8 du   
     8    8    9 du   
     9    9   10 du   
    10    9   17 du   
    11   10   11 du   
    12   11   12 du   
    13   12   13 du   
    14   13   14 du   
    15   13   15 du   
    16   13   16 du   
    17   17   18 du   
    18   18   19 du   
    19   18   28 du   
    20   19   20 du   
    21   19   26 du   
    22   20   21 du   
    23   21   22 du   
    24   21   23 du   
    25   23   24 du   
    26   24   25 du   
    27   24   26 du   
    28   26   27 du   
    29   27   28 du   
@<TRIPOS>SUBSTRUCTURE
     1 45T301      1 GROUP   
@<TRIPOS>SET

