#    Name: 6aqo_1_45T_CAVITY_N1_4
#    Modification time : Fri May 22 19:25:36 2020

@<TRIPOS>MOLECULE
6aqo_1_45T_CAVITY_N1_4
   81     0     7     0     0
SMALL
NO_CHARGES


@<TRIPOS>ATOM
      1 OG        -14.8100    0.8700  -50.5500 O.3       1 SER1        0.0000 
      2 OG        -14.2500   -0.5000  -50.3200 O.3       1 SER1        0.0000 
      3 OG        -14.3000    1.3100  -49.2100 O.3       1 SER1        0.0000 
      4 OG        -13.7400   -0.0600  -48.9800 O.3       1 SER1        0.0000 
      5 O         -13.1800   -1.4300  -48.7400 O.2       2 ALA2        0.0000 
      6 N         -10.8200   -1.9400  -47.8000 N.am      2 ALA2        0.0000 
      7 O          -9.6300    2.0900  -46.2000 O.2       2 ALA2        0.0000 
      8 O          -9.0700    0.7200  -45.9700 O.2       2 ALA2        0.0000 
      9 O          -8.3400    2.5200  -46.8300 O.2       2 ALA2        0.0000 
     10 O          -7.7700    1.1500  -46.6000 O.2       2 ALA2        0.0000 
     11 N          -7.0400    2.9400  -47.4600 N.am      2 ALA2        0.0000 
     12 N          -6.4800    1.5700  -47.2200 N.am      2 ALA2        0.0000 
     13 O          -9.6900    3.9000  -45.0900 O.2       2 ALA2        0.0000 
     14 O          -9.1200    2.5300  -44.8600 O.2       2 ALA2        0.0000 
     15 O          -9.1800    4.3400  -43.7500 O.2       2 ALA2        0.0000 
     16 OD1       -13.9700   -0.9400  -53.6300 O.co2     3 ASP3        0.0000 
     17 OD1       -13.2400    0.8500  -54.4900 O.co2     3 ASP3        0.0000 
     18 OD1       -12.6800   -0.5200  -54.2600 O.co2     3 ASP3        0.0000 
     19 OD1       -10.8700   -0.1400  -46.6900 O.co2     3 ASP3        0.0000 
     20 OD1       -10.4200    2.1000  -44.2300 O.co2     3 ASP3        0.0000 
     21 NZ        -11.9400    1.2800  -55.1200 N.4       4 LYS4        0.0000 
     22 NZ        -12.0000    3.0900  -54.0100 N.4       4 LYS4        0.0000 
     23 NZ        -12.5000    2.1700  -48.4900 N.4       4 LYS4        0.0000 
     24 NZ        -11.9400    0.8000  -48.2600 N.4       4 LYS4        0.0000 
     25 NZ        -10.0800   -0.1500  -48.6600 N.4       4 LYS4        0.0000 
     26 NZ         -8.7900    0.2800  -49.2800 N.4       4 LYS4        0.0000 
     27 NZ         -8.6200    3.4500  -50.3700 N.4       4 LYS4        0.0000 
     28 NZ         -8.0600    2.0700  -50.1400 N.4       4 LYS4        0.0000 
     29 NZ        -11.9900    2.6100  -47.1500 N.4       4 LYS4        0.0000 
     30 NZ        -11.4300    1.2300  -46.9200 N.4       4 LYS4        0.0000 
     31 NZ         -9.5800    0.2900  -47.3100 N.4       4 LYS4        0.0000 
     32 NZ         -9.0100   -1.0800  -47.0800 N.4       4 LYS4        0.0000 
     33 NZ         -8.2800    0.7100  -47.9400 N.4       4 LYS4        0.0000 
     34 NZ         -8.1100    3.8800  -49.0300 N.4       4 LYS4        0.0000 
     35 NZ         -7.5500    2.5100  -48.8000 N.4       4 LYS4        0.0000 
     36 NZ         -6.9900    1.1400  -48.5700 N.4       4 LYS4        0.0000 
     37 NZ         -6.8200    4.3100  -49.6600 N.4       4 LYS4        0.0000 
     38 NZ        -11.4900    3.0400  -45.8100 N.4       4 LYS4        0.0000 
     39 NZ        -10.9300    1.6700  -45.5800 N.4       4 LYS4        0.0000 
     40 NZ        -12.2700    3.0500  -43.8400 N.4       4 LYS4        0.0000 
     41 CZ        -14.5300    0.4300  -53.8600 C.ar      5 PHE5        0.0000 
     42 CZ        -14.7600   -0.9300  -51.6600 C.ar      5 PHE5        0.0000 
     43 CZ        -14.0200    0.8600  -52.5200 C.ar      5 PHE5        0.0000 
     44 CZ        -13.4600   -0.5100  -52.2900 C.ar      5 PHE5        0.0000 
     45 CZ        -12.9000   -1.8800  -52.0600 C.ar      5 PHE5        0.0000 
     46 CZ        -13.5200    1.3000  -51.1800 C.ar      5 PHE5        0.0000 
     47 CZ        -12.3900   -1.4400  -50.7100 C.ar      5 PHE5        0.0000 
     48 CZ        -11.1000   -1.0200  -51.3400 C.ar      5 PHE5        0.0000 
     49 CZ        -11.8900   -1.0100  -49.3700 C.ar      5 PHE5        0.0000 
     50 CZ        -10.5900   -0.5800  -50.0000 C.ar      5 PHE5        0.0000 
     51 CA        -12.1700   -0.0800  -52.9200 C.3       6 GLY6        0.0000 
     52 CA        -11.6100   -1.4500  -52.6800 C.3       6 GLY6        0.0000 
     53 CA        -11.4400    1.7100  -53.7800 C.3       6 GLY6        0.0000 
     54 CA        -13.6900   -1.8700  -50.0900 C.3       6 GLY6        0.0000 
     55 CA        -11.6600    0.3500  -51.5700 C.3       6 GLY6        0.0000 
     56 CA        -10.9300    2.1500  -52.4300 C.3       6 GLY6        0.0000 
     57 CA        -11.1500    0.7900  -50.2300 C.3       6 GLY6        0.0000 
     58 CA        -10.4200    2.5800  -51.0900 C.3       6 GLY6        0.0000 
     59 CA         -9.8600    1.2100  -50.8600 C.3       6 GLY6        0.0000 
     60 CA        -12.6700   -1.0000  -47.4000 C.3       6 GLY6        0.0000 
     61 CA        -11.3800   -0.5700  -48.0300 C.3       6 GLY6        0.0000 
     62 CA         -8.9000    3.8900  -47.0600 C.3       6 GLY6        0.0000 
     63 CA         -7.6000    4.3200  -47.6900 C.3       6 GLY6        0.0000 
     64 CA         -8.3900    4.3300  -45.7200 C.3       6 GLY6        0.0000 
     65 CA        -10.4700    3.9100  -43.1200 C.3       6 GLY6        0.0000 
     66 DU        -12.7300    1.2900  -53.1500 H         7 CUB7        0.0000 
     67 DU        -12.9500   -0.0700  -50.9500 H         7 CUB7        0.0000 
     68 DU        -12.2200    1.7200  -51.8100 H         7 CUB7        0.0000 
     69 DU        -13.0100    1.7300  -49.8400 H         7 CUB7        0.0000 
     70 DU        -12.4500    0.3600  -49.6000 H         7 CUB7        0.0000 
     71 DU        -11.7200    2.1600  -50.4600 H         7 CUB7        0.0000 
     72 DU        -11.2100    2.6000  -49.1200 H         7 CUB7        0.0000 
     73 DU        -10.6500    1.2200  -48.8900 H         7 CUB7        0.0000 
     74 DU         -9.9100    3.0200  -49.7500 H         7 CUB7        0.0000 
     75 DU         -9.3500    1.6500  -49.5200 H         7 CUB7        0.0000 
     76 DU        -10.7000    3.0300  -47.7800 H         7 CUB7        0.0000 
     77 DU        -10.1400    1.6600  -47.5500 H         7 CUB7        0.0000 
     78 DU         -9.4100    3.4600  -48.4000 H         7 CUB7        0.0000 
     79 DU         -8.8400    2.0800  -48.1700 H         7 CUB7        0.0000 
     80 DU        -10.1900    3.4700  -46.4300 H         7 CUB7        0.0000 
     81 DU        -10.9800    3.4800  -44.4600 H         7 CUB7        0.0000 
@<TRIPOS>BOND
@<TRIPOS>SUBSTRUCTURE
     1 SER1        1 GROUP   
     2 ALA2        5 GROUP   
     3 ASP3       16 GROUP   
     4 LYS4       21 GROUP   
     5 PHE5       41 GROUP   
     6 GLY6       51 GROUP   
     7 CUB7       66 GROUP   
@<TRIPOS>SET

