#    Name: 6aqo_3_45T_CAVITY_N1_12
#    Modification time : Fri May 22 19:25:45 2020

@<TRIPOS>MOLECULE
6aqo_3_45T_CAVITY_N1_12
  102     0     7     0     0
SMALL
NO_CHARGES


@<TRIPOS>ATOM
      1 OG        -32.5100  -26.6700  -73.4700 O.3       1 SER1        0.0000 
      2 OG        -31.9500  -28.0400  -73.2400 O.3       1 SER1        0.0000 
      3 OG        -31.3900  -29.4100  -73.0100 O.3       1 SER1        0.0000 
      4 OG        -27.9000  -32.6700  -71.6000 O.3       1 SER1        0.0000 
      5 OG        -26.0400  -33.6100  -71.9900 O.3       1 SER1        0.0000 
      6 OG        -28.6800  -32.6600  -69.6300 O.3       1 SER1        0.0000 
      7 OG        -27.3900  -32.2300  -70.2500 O.3       1 SER1        0.0000 
      8 OG        -29.4700  -32.6500  -67.6600 O.3       1 SER1        0.0000 
      9 OG        -28.9100  -34.0200  -67.4300 O.3       1 SER1        0.0000 
     10 OG        -28.1800  -32.2200  -68.2800 O.3       1 SER1        0.0000 
     11 OG        -26.8800  -31.8000  -68.9100 O.3       1 SER1        0.0000 
     12 OG        -27.1100  -33.1600  -66.7100 O.3       1 SER1        0.0000 
     13 O         -26.1000  -31.3300  -77.7400 O.2       2 ALA2        0.0000 
     14 N         -25.5400  -32.7000  -77.5100 N.am      2 ALA2        0.0000 
     15 O         -26.1500  -29.5200  -76.6300 O.2       2 ALA2        0.0000 
     16 O         -25.5900  -30.8900  -76.4000 O.2       2 ALA2        0.0000 
     17 N         -25.0300  -32.2600  -76.1600 N.am      2 ALA2        0.0000 
     18 O         -25.6500  -29.0900  -75.2900 O.2       2 ALA2        0.0000 
     19 N         -25.0800  -30.4600  -75.0500 N.am      2 ALA2        0.0000 
     20 N         -24.5200  -31.8300  -74.8200 N.am      2 ALA2        0.0000 
     21 N         -32.0000  -26.2400  -72.1300 N.am      2 ALA2        0.0000 
     22 O         -32.7900  -26.2300  -70.1600 O.2       2 ALA2        0.0000 
     23 N         -27.4400  -30.4300  -69.1400 N.am      2 ALA2        0.0000 
     24 N         -26.1500  -30.0000  -69.7700 N.am      2 ALA2        0.0000 
     25 O         -27.6700  -31.7900  -66.9400 O.2       2 ALA2        0.0000 
     26 N         -26.3700  -31.3600  -67.5700 N.am      2 ALA2        0.0000 
     27 N         -25.0800  -30.9400  -68.2000 N.am      2 ALA2        0.0000 
     28 OD1       -27.9500  -30.3800  -77.3400 O.co2     3 ASP3        0.0000 
     29 OD1       -26.6600  -29.9600  -77.9700 O.co2     3 ASP3        0.0000 
     30 OD1       -28.0100  -28.5800  -76.2300 O.co2     3 ASP3        0.0000 
     31 OD1       -27.4500  -29.9500  -76.0000 O.co2     3 ASP3        0.0000 
     32 OD1       -33.5200  -28.0200  -69.3000 O.co2     3 ASP3        0.0000 
     33 OD1       -32.9600  -29.3900  -69.0700 O.co2     3 ASP3        0.0000 
     34 OD1       -32.2300  -27.6000  -69.9300 O.co2     3 ASP3        0.0000 
     35 NZ        -30.6000  -29.4300  -74.9800 N.4       4 LYS4        0.0000 
     36 NZ        -29.3000  -29.0000  -75.6100 N.4       4 LYS4        0.0000 
     37 NZ        -28.7400  -30.3700  -75.3700 N.4       4 LYS4        0.0000 
     38 NZ        -28.0600  -26.7700  -75.1200 N.4       4 LYS4        0.0000 
     39 NZ        -27.5000  -28.1400  -74.8900 N.4       4 LYS4        0.0000 
     40 NZ        -26.2100  -27.7100  -75.5200 N.4       4 LYS4        0.0000 
     41 NZ        -28.2900  -28.1300  -72.9200 N.4       4 LYS4        0.0000 
     42 NZ        -27.1600  -30.8700  -72.4600 N.4       4 LYS4        0.0000 
     43 NZ        -26.6000  -32.2400  -72.2200 N.4       4 LYS4        0.0000 
     44 NZ        -26.4300  -29.0800  -73.3200 N.4       4 LYS4        0.0000 
     45 NZ        -25.8700  -30.4500  -73.0800 N.4       4 LYS4        0.0000 
     46 NZ        -25.3100  -31.8200  -72.8500 N.4       4 LYS4        0.0000 
     47 NZ        -25.1400  -28.6500  -73.9400 N.4       4 LYS4        0.0000 
     48 NZ        -24.5800  -30.0200  -73.7100 N.4       4 LYS4        0.0000 
     49 NZ        -24.0100  -31.3900  -73.4800 N.4       4 LYS4        0.0000 
     50 NZ        -26.6600  -30.4400  -71.1100 N.4       4 LYS4        0.0000 
     51 NZ        -26.0900  -31.8100  -70.8800 N.4       4 LYS4        0.0000 
     52 NZ        -25.5900  -31.3700  -69.5400 N.4       4 LYS4        0.0000 
     53 CZ        -32.6800  -29.8400  -72.3800 C.ar      5 PHE5        0.0000 
     54 CZ        -29.3600  -27.1900  -74.4900 C.ar      5 PHE5        0.0000 
     55 CZ        -33.4700  -29.8300  -70.4100 C.ar      5 PHE5        0.0000 
     56 CZ        -33.3000  -26.6600  -71.5000 C.ar      5 PHE5        0.0000 
     57 CZ        -32.7400  -28.0300  -71.2700 C.ar      5 PHE5        0.0000 
     58 CZ        -32.1700  -29.4000  -71.0400 C.ar      5 PHE5        0.0000 
     59 CZ        -30.7100  -25.8100  -72.7600 C.ar      5 PHE5        0.0000 
     60 CZ        -30.1500  -27.1800  -72.5200 C.ar      5 PHE5        0.0000 
     61 CZ        -28.8500  -26.7600  -73.1500 C.ar      5 PHE5        0.0000 
     62 CA        -31.1600  -28.0500  -75.2100 C.3       6 GLY6        0.0000 
     63 CA        -29.8700  -27.6300  -75.8400 C.3       6 GLY6        0.0000 
     64 CA        -26.3200  -32.6900  -75.5400 C.3       6 GLY6        0.0000 
     65 CA        -31.2200  -26.2500  -74.1000 C.3       6 GLY6        0.0000 
     66 CA        -25.8200  -32.2500  -74.1900 C.3       6 GLY6        0.0000 
     67 CA        -29.5800  -28.5500  -72.2900 C.3       6 GLY6        0.0000 
     68 CA        -31.5000  -25.8000  -70.7900 C.3       6 GLY6        0.0000 
     69 CA        -30.9300  -27.1700  -70.5600 C.3       6 GLY6        0.0000 
     70 CA        -30.3700  -28.5400  -70.3200 C.3       6 GLY6        0.0000 
     71 CA        -29.8100  -29.9200  -70.0900 C.3       6 GLY6        0.0000 
     72 CA        -28.5100  -29.4900  -70.7200 C.3       6 GLY6        0.0000 
     73 CA        -27.2200  -29.0700  -71.3500 C.3       6 GLY6        0.0000 
     74 CA        -31.7200  -27.1600  -68.5900 C.3       6 GLY6        0.0000 
     75 CA        -31.1600  -28.5300  -68.3500 C.3       6 GLY6        0.0000 
     76 CA        -30.6000  -29.9100  -68.1200 C.3       6 GLY6        0.0000 
     77 CA        -30.0300  -31.2800  -67.8900 C.3       6 GLY6        0.0000 
     78 CA        -29.8600  -28.1100  -68.9800 C.3       6 GLY6        0.0000 
     79 CA        -29.3000  -29.4800  -68.7500 C.3       6 GLY6        0.0000 
     80 CA        -28.7400  -30.8500  -68.5200 C.3       6 GLY6        0.0000 
     81 CA        -25.8100  -32.7300  -67.3400 C.3       6 GLY6        0.0000 
     82 DU        -27.3900  -31.7500  -77.1100 H         7 CUB7        0.0000 
     83 DU        -28.1800  -31.7400  -75.1400 H         7 CUB7        0.0000 
     84 DU        -26.8900  -31.3200  -75.7700 H         7 CUB7        0.0000 
     85 DU        -30.6500  -27.6200  -73.8700 H         7 CUB7        0.0000 
     86 DU        -30.0900  -28.9900  -73.6400 H         7 CUB7        0.0000 
     87 DU        -28.8000  -28.5600  -74.2600 H         7 CUB7        0.0000 
     88 DU        -28.2300  -29.9400  -74.0300 H         7 CUB7        0.0000 
     89 DU        -27.6700  -31.3100  -73.8000 H         7 CUB7        0.0000 
     90 DU        -27.1100  -32.6800  -73.5700 H         7 CUB7        0.0000 
     91 DU        -26.9400  -29.5100  -74.6600 H         7 CUB7        0.0000 
     92 DU        -26.3800  -30.8800  -74.4300 H         7 CUB7        0.0000 
     93 DU        -31.4400  -27.6100  -71.9000 H         7 CUB7        0.0000 
     94 DU        -30.8800  -28.9800  -71.6700 H         7 CUB7        0.0000 
     95 DU        -30.3200  -30.3500  -71.4300 H         7 CUB7        0.0000 
     96 DU        -29.0200  -29.9300  -72.0600 H         7 CUB7        0.0000 
     97 DU        -28.4600  -31.3000  -71.8300 H         7 CUB7        0.0000 
     98 DU        -27.7300  -29.5000  -72.6900 H         7 CUB7        0.0000 
     99 DU        -31.6700  -28.9700  -69.7000 H         7 CUB7        0.0000 
    100 DU        -31.1000  -30.3400  -69.4600 H         7 CUB7        0.0000 
    101 DU        -29.2500  -31.2900  -69.8600 H         7 CUB7        0.0000 
    102 DU        -27.9500  -30.8600  -70.4900 H         7 CUB7        0.0000 
@<TRIPOS>BOND
@<TRIPOS>SUBSTRUCTURE
     1 SER1        1 GROUP   
     2 ALA2       13 GROUP   
     3 ASP3       28 GROUP   
     4 LYS4       35 GROUP   
     5 PHE5       53 GROUP   
     6 GLY6       62 GROUP   
     7 CUB7       82 GROUP   
@<TRIPOS>SET

