#    Name: 6c58_3_UDX
#    Modification time : Fri May 22 19:36:13 2020

@<TRIPOS>MOLECULE
6c58_3_UDX
   34    36     1     0     0
SMALL
NO_CHARGES


@<TRIPOS>ATOM
      1 C1'       -70.1220   14.3440  127.5970 C.3       1 UDX501      0.0000 
      2 C2'       -69.7140   13.7960  126.2470 C.3       1 UDX501      0.0000 
      3 O2'       -70.1040   14.7320  125.2630 O.3       1 UDX501      0.0000 
      4 C3'       -70.4120   12.4520  125.9680 C.3       1 UDX501      0.0000 
      5 O3'       -69.9700   11.9190  124.7270 O.3       1 UDX501      0.0000 
      6 C4'       -70.0400   11.4920  127.0690 C.3       1 UDX501      0.0000 
      7 O4'       -70.5970   10.1980  126.7960 O.3       1 UDX501      0.0000 
      8 C5'       -70.5670   12.0680  128.3790 C.3       1 UDX501      0.0000 
      9 O5'       -69.9680   13.3590  128.6200 O.3       1 UDX501      0.0000 
     10 PB        -72.1440   15.6290  128.6650 P.3       1 UDX501      0.0000 
     11 O1B       -72.8530   16.7810  128.0700 O.co2     1 UDX501      0.0000 
     12 O2B       -71.1720   15.8790  129.7720 O.co2     1 UDX501      0.0000 
     13 O3B       -71.4180   14.8400  127.4900 O.3       1 UDX501      0.0000 
     14 O3A       -73.2420   14.6270  129.2090 O.3       1 UDX501      0.0000 
     15 PA        -74.3170   14.5690  130.3760 P.3       1 UDX501      0.0000 
     16 O1A       -73.9660   15.6710  131.3050 O.co2     1 UDX501      0.0000 
     17 O2A       -74.4610   13.1840  130.8510 O.co2     1 UDX501      0.0000 
     18 O5D       -75.6320   14.9990  129.5850 O.3       1 UDX501      0.0000 
     19 C5D       -76.3300   14.0710  128.7670 C.3       1 UDX501      0.0000 
     20 C4D       -77.7950   14.4490  128.7760 C.3       1 UDX501      0.0000 
     21 O4D       -78.4800   13.7530  127.7000 O.3       1 UDX501      0.0000 
     22 C3D       -78.4230   13.9910  130.0880 C.3       1 UDX501      0.0000 
     23 O3D       -79.0300   15.1290  130.7190 O.3       1 UDX501      0.0000 
     24 C2D       -79.4760   12.9640  129.6760 C.3       1 UDX501      0.0000 
     25 O2D       -80.6610   13.1260  130.4280 O.3       1 UDX501      0.0000 
     26 C1D       -79.7500   13.3160  128.2280 C.3       1 UDX501      0.0000 
     27 N1        -80.2750   12.1460  127.5460 N.am      1 UDX501      0.0000 
     28 C6        -79.6050   10.9620  127.5980 C.2       1 UDX501      0.0000 
     29 C2        -81.4370   12.2880  126.8640 C.2       1 UDX501      0.0000 
     30 O2        -82.0400   13.3550  126.8140 O.2       1 UDX501      0.0000 
     31 N3        -81.8790   11.1420  126.2390 N.am      1 UDX501      0.0000 
     32 C4        -81.2540    9.9130  126.2520 C.2       1 UDX501      0.0000 
     33 O4        -81.7350    8.9550  125.6600 O.2       1 UDX501      0.0000 
     34 C5        -80.0470    9.8790  126.9920 C.2       1 UDX501      0.0000 
@<TRIPOS>BOND
     1    1    2 1    
     2    1    9 1    
     3    1   13 1    
     4    2    3 1    
     5    2    4 1    
     6    4    5 1    
     7    4    6 1    
     8    6    7 1    
     9    6    8 1    
    10    8    9 1    
    11   10   11 ar   
    12   10   12 ar   
    13   10   13 1    
    14   10   14 1    
    15   14   15 1    
    16   15   16 ar   
    17   15   17 ar   
    18   15   18 1    
    19   18   19 1    
    20   19   20 1    
    21   20   21 1    
    22   20   22 1    
    23   21   26 1    
    24   22   23 1    
    25   22   24 1    
    26   24   25 1    
    27   24   26 1    
    28   26   27 1    
    29   27   28 1    
    30   27   29 1    
    31   28   34 2    
    32   29   30 2    
    33   29   31 1    
    34   31   32 1    
    35   32   33 2    
    36   32   34 1    
@<TRIPOS>SUBSTRUCTURE
     1 UDX501      1 GROUP   
@<TRIPOS>SET

