#    Name: 6c58_6_UDX
#    Modification time : Fri May 22 19:36:33 2020

@<TRIPOS>MOLECULE
6c58_6_UDX
   34    36     1     0     0
SMALL
NO_CHARGES


@<TRIPOS>ATOM
      1 C1'       -52.1030  -34.3270   94.9450 C.3       1 UDX501      0.0000 
      2 C2'       -53.6100  -34.3100   94.8360 C.3       1 UDX501      0.0000 
      3 O2'       -54.0740  -35.6370   94.9890 O.3       1 UDX501      0.0000 
      4 C3'       -54.0290  -33.7620   93.4560 C.3       1 UDX501      0.0000 
      5 O3'       -55.4460  -33.6890   93.3470 O.3       1 UDX501      0.0000 
      6 C4'       -53.4640  -32.3700   93.3160 C.3       1 UDX501      0.0000 
      7 O4'       -53.8730  -31.8030   92.0620 O.3       1 UDX501      0.0000 
      8 C5'       -51.9440  -32.4600   93.4130 C.3       1 UDX501      0.0000 
      9 O5'       -51.5790  -33.0270   94.6900 O.3       1 UDX501      0.0000 
     10 PB        -50.1400  -35.8790   94.2560 P.3       1 UDX501      0.0000 
     11 O1B       -49.3800  -34.9790   95.1470 O.co2     1 UDX501      0.0000 
     12 O2B       -49.6100  -36.2270   92.9050 O.co2     1 UDX501      0.0000 
     13 O3B       -51.5930  -35.2690   94.0550 O.3       1 UDX501      0.0000 
     14 O3A       -50.3300  -37.2700   94.9980 O.3       1 UDX501      0.0000 
     15 PA        -51.4570  -38.0710   95.7860 P.3       1 UDX501      0.0000 
     16 O1A       -51.7670  -39.2610   94.9600 O.co2     1 UDX501      0.0000 
     17 O2A       -52.5320  -37.1700   96.2310 O.co2     1 UDX501      0.0000 
     18 O5D       -50.6100  -38.5470   97.0510 O.3       1 UDX501      0.0000 
     19 C5D       -49.9170  -37.5770   97.8340 C.3       1 UDX501      0.0000 
     20 C4D       -49.1700  -38.2490   98.9710 C.3       1 UDX501      0.0000 
     21 O4D       -50.1380  -38.7260   99.9460 O.3       1 UDX501      0.0000 
     22 C3D       -48.3910  -39.4640   98.4810 C.3       1 UDX501      0.0000 
     23 O3D       -47.1180  -39.4610   99.1430 O.3       1 UDX501      0.0000 
     24 C2D       -49.2130  -40.6590   98.9500 C.3       1 UDX501      0.0000 
     25 O2D       -48.3670  -41.7390   99.2850 O.3       1 UDX501      0.0000 
     26 C1D       -49.8770  -40.1270  100.2030 C.3       1 UDX501      0.0000 
     27 N1        -51.1050  -40.8620  100.4500 N.am      1 UDX501      0.0000 
     28 C6        -52.1540  -40.7440   99.5870 C.2       1 UDX501      0.0000 
     29 C2        -51.1720  -41.6310  101.5640 C.2       1 UDX501      0.0000 
     30 O2        -50.2340  -41.7350  102.3460 O.2       1 UDX501      0.0000 
     31 N3        -52.3740  -42.2850  101.7350 N.am      1 UDX501      0.0000 
     32 C4        -53.4700  -42.2150  100.8980 C.2       1 UDX501      0.0000 
     33 O4        -54.4910  -42.8390  101.1470 O.2       1 UDX501      0.0000 
     34 C5        -53.2940  -41.3780   99.7690 C.2       1 UDX501      0.0000 
@<TRIPOS>BOND
     1    1    2 1    
     2    1    9 1    
     3    1   13 1    
     4    2    3 1    
     5    2    4 1    
     6    4    5 1    
     7    4    6 1    
     8    6    7 1    
     9    6    8 1    
    10    8    9 1    
    11   10   11 ar   
    12   10   12 ar   
    13   10   13 1    
    14   10   14 1    
    15   14   15 1    
    16   15   16 ar   
    17   15   17 ar   
    18   15   18 1    
    19   18   19 1    
    20   19   20 1    
    21   20   21 1    
    22   20   22 1    
    23   21   26 1    
    24   22   23 1    
    25   22   24 1    
    26   24   25 1    
    27   24   26 1    
    28   26   27 1    
    29   27   28 1    
    30   27   29 1    
    31   28   34 2    
    32   29   30 2    
    33   29   31 1    
    34   31   32 1    
    35   32   33 2    
    36   32   34 1    
@<TRIPOS>SUBSTRUCTURE
     1 UDX501      1 GROUP   
@<TRIPOS>SET

