#    Name: 6c58_10_UDX
#    Modification time : Fri May 22 19:36:58 2020

@<TRIPOS>MOLECULE
6c58_10_UDX
   34    36     1     0     0
SMALL
NO_CHARGES


@<TRIPOS>ATOM
      1 C1'       -38.6400  -17.5110  170.5350 C.3       1 UDX501      0.0000 
      2 C2'       -37.1440  -17.3370  170.5940 C.3       1 UDX501      0.0000 
      3 O2'       -36.5850  -18.5610  171.0220 O.3       1 UDX501      0.0000 
      4 C3'       -36.8000  -16.2200  171.5980 C.3       1 UDX501      0.0000 
      5 O3'       -35.3960  -16.0050  171.6430 O.3       1 UDX501      0.0000 
      6 C4'       -37.4630  -14.9460  171.1400 C.3       1 UDX501      0.0000 
      7 O4'       -37.1420  -13.8880  172.0540 O.3       1 UDX501      0.0000 
      8 C5'       -38.9690  -15.1760  171.0740 C.3       1 UDX501      0.0000 
      9 O5'       -39.2500  -16.2730  170.1810 O.3       1 UDX501      0.0000 
     10 PB        -40.4680  -18.7480  171.8890 P.3       1 UDX501      0.0000 
     11 O1B       -41.3760  -18.2180  170.8510 O.co2     1 UDX501      0.0000 
     12 O2B       -40.8750  -18.7370  173.3240 O.co2     1 UDX501      0.0000 
     13 O3B       -39.0870  -17.9760  171.7690 O.3       1 UDX501      0.0000 
     14 O3A       -40.1880  -20.2750  171.5610 O.3       1 UDX501      0.0000 
     15 PA        -38.9670  -21.2660  171.3190 P.3       1 UDX501      0.0000 
     16 O1A       -38.6940  -21.9100  172.6240 O.co2     1 UDX501      0.0000 
     17 O2A       -37.8930  -20.5760  170.5880 O.co2     1 UDX501      0.0000 
     18 O5D       -39.6620  -22.3290  170.3570 O.3       1 UDX501      0.0000 
     19 C5D       -40.3010  -21.8530  169.1740 C.3       1 UDX501      0.0000 
     20 C4D       -40.9730  -22.9920  168.4350 C.3       1 UDX501      0.0000 
     21 O4D       -39.9520  -23.7580  167.7430 O.3       1 UDX501      0.0000 
     22 C3D       -41.6710  -23.9370  169.4050 C.3       1 UDX501      0.0000 
     23 O3D       -42.9430  -24.2790  168.8370 O.3       1 UDX501      0.0000 
     24 C2D       -40.7720  -25.1680  169.4560 C.3       1 UDX501      0.0000 
     25 O2D       -41.5490  -26.3410  169.5750 O.3       1 UDX501      0.0000 
     26 C1D       -40.0920  -25.1520  168.1020 C.3       1 UDX501      0.0000 
     27 N1        -38.7970  -25.8060  168.2030 N.am      1 UDX501      0.0000 
     28 C6        -37.8170  -25.2610  168.9760 C.2       1 UDX501      0.0000 
     29 C2        -38.6020  -26.9450  167.4950 C.2       1 UDX501      0.0000 
     30 O2        -39.4800  -27.4380  166.7940 O.2       1 UDX501      0.0000 
     31 N3        -37.3460  -27.4990  167.6330 N.am      1 UDX501      0.0000 
     32 C4        -36.3110  -27.0030  168.4010 C.2       1 UDX501      0.0000 
     33 O4        -35.2290  -27.5760  168.4550 O.2       1 UDX501      0.0000 
     34 C5        -36.6230  -25.8080  169.0930 C.2       1 UDX501      0.0000 
@<TRIPOS>BOND
     1    1    2 1    
     2    1    9 1    
     3    1   13 1    
     4    2    3 1    
     5    2    4 1    
     6    4    5 1    
     7    4    6 1    
     8    6    7 1    
     9    6    8 1    
    10    8    9 1    
    11   10   11 ar   
    12   10   12 ar   
    13   10   13 1    
    14   10   14 1    
    15   14   15 1    
    16   15   16 ar   
    17   15   17 ar   
    18   15   18 1    
    19   18   19 1    
    20   19   20 1    
    21   20   21 1    
    22   20   22 1    
    23   21   26 1    
    24   22   23 1    
    25   22   24 1    
    26   24   25 1    
    27   24   26 1    
    28   26   27 1    
    29   27   28 1    
    30   27   29 1    
    31   28   34 2    
    32   29   30 2    
    33   29   31 1    
    34   31   32 1    
    35   32   33 2    
    36   32   34 1    
@<TRIPOS>SUBSTRUCTURE
     1 UDX501      1 GROUP   
@<TRIPOS>SET

