#    Name: 6c58_7_UDX
#    Modification time : Fri May 22 19:36:43 2020

@<TRIPOS>MOLECULE
6c58_7_UDX
   34    36     1     0     0
SMALL
NO_CHARGES


@<TRIPOS>ATOM
      1 C1'       -74.1840  -38.3620  114.4330 C.3       1 UDX501      0.0000 
      2 C2'       -73.5910  -39.2220  113.3440 C.3       1 UDX501      0.0000 
      3 O2'       -73.9630  -38.6780  112.0950 O.3       1 UDX501      0.0000 
      4 C3'       -74.1400  -40.6530  113.4910 C.3       1 UDX501      0.0000 
      5 O3'       -73.6170  -41.4920  112.4720 O.3       1 UDX501      0.0000 
      6 C4'       -73.7090  -41.1810  114.8410 C.3       1 UDX501      0.0000 
      7 O4'       -74.1850  -42.5240  115.0190 O.3       1 UDX501      0.0000 
      8 C5'       -74.2680  -40.2640  115.9230 C.3       1 UDX501      0.0000 
      9 O5'       -73.8300  -38.9060  115.7010 O.3       1 UDX501      0.0000 
     10 PB        -76.4370  -37.1180  114.8600 P.3       1 UDX501      0.0000 
     11 O1B       -75.7240  -36.5760  116.0340 O.co2     1 UDX501      0.0000 
     12 O2B       -77.8360  -37.6230  114.9840 O.co2     1 UDX501      0.0000 
     13 O3B       -75.5650  -38.2970  114.2480 O.3       1 UDX501      0.0000 
     14 O3A       -76.5210  -35.9580  113.7770 O.3       1 UDX501      0.0000 
     15 PA        -75.8470  -35.5380  112.3980 P.3       1 UDX501      0.0000 
     16 O1A       -76.9160  -35.6680  111.3780 O.co2     1 UDX501      0.0000 
     17 O2A       -74.5530  -36.2170  112.2230 O.co2     1 UDX501      0.0000 
     18 O5D       -75.5830  -33.9880  112.6690 O.3       1 UDX501      0.0000 
     19 C5D       -74.6850  -33.6080  113.7120 C.3       1 UDX501      0.0000 
     20 C4D       -74.5710  -32.0980  113.8080 C.3       1 UDX501      0.0000 
     21 O4D       -73.6730  -31.6360  112.7600 O.3       1 UDX501      0.0000 
     22 C3D       -75.9180  -31.4240  113.5790 C.3       1 UDX501      0.0000 
     23 O3D       -76.0330  -30.3330  114.5060 O.3       1 UDX501      0.0000 
     24 C2D       -75.8350  -30.8970  112.1500 C.3       1 UDX501      0.0000 
     25 O2D       -76.5560  -29.6890  112.0210 O.3       1 UDX501      0.0000 
     26 C1D       -74.3530  -30.6290  111.9770 C.3       1 UDX501      0.0000 
     27 N1        -74.0070  -30.7260  110.5680 N.am      1 UDX501      0.0000 
     28 C6        -74.1700  -31.9060  109.9050 C.2       1 UDX501      0.0000 
     29 C2        -73.5090  -29.6220  109.9610 C.2       1 UDX501      0.0000 
     30 O2        -73.3580  -28.5610  110.5590 O.2       1 UDX501      0.0000 
     31 N3        -73.1950  -29.7910  108.6270 N.am      1 UDX501      0.0000 
     32 C4        -73.3390  -30.9550  107.8960 C.2       1 UDX501      0.0000 
     33 O4        -73.0300  -31.0020  106.7130 O.2       1 UDX501      0.0000 
     34 C5        -73.8630  -32.0470  108.6310 C.2       1 UDX501      0.0000 
@<TRIPOS>BOND
     1    1    2 1    
     2    1    9 1    
     3    1   13 1    
     4    2    3 1    
     5    2    4 1    
     6    4    5 1    
     7    4    6 1    
     8    6    7 1    
     9    6    8 1    
    10    8    9 1    
    11   10   11 ar   
    12   10   12 ar   
    13   10   13 1    
    14   10   14 1    
    15   14   15 1    
    16   15   16 ar   
    17   15   17 ar   
    18   15   18 1    
    19   18   19 1    
    20   19   20 1    
    21   20   21 1    
    22   20   22 1    
    23   21   26 1    
    24   22   23 1    
    25   22   24 1    
    26   24   25 1    
    27   24   26 1    
    28   26   27 1    
    29   27   28 1    
    30   27   29 1    
    31   28   34 2    
    32   29   30 2    
    33   29   31 1    
    34   31   32 1    
    35   32   33 2    
    36   32   34 1    
@<TRIPOS>SUBSTRUCTURE
     1 UDX501      1 GROUP   
@<TRIPOS>SET

