#    Name: 6c58_3_UDX_CAVITY_N1_8
#    Modification time : Fri May 22 19:36:14 2020

@<TRIPOS>MOLECULE
6c58_3_UDX_CAVITY_N1_8
   89     0     7     0     0
SMALL
NO_CHARGES


@<TRIPOS>ATOM
      1 OG        -68.5200   12.1400  125.7800 O.3       1 SER1        0.0000 
      2 OG        -69.8300   12.6400  126.3100 O.3       1 SER1        0.0000 
      3 OG        -69.1000   13.5100  127.2800 O.3       1 SER1        0.0000 
      4 OG        -69.1200   12.4000  128.2900 O.3       1 SER1        0.0000 
      5 OG        -69.6800   14.8900  128.7900 O.3       1 SER1        0.0000 
      6 N         -82.0900    9.2800  124.6600 N.am      2 ALA2        0.0000 
      7 N         -79.9100   10.7900  128.5900 N.am      2 ALA2        0.0000 
      8 N         -77.8600   12.2800  128.0300 N.am      2 ALA2        0.0000 
      9 N         -79.1700   12.7800  128.5600 N.am      2 ALA2        0.0000 
     10 N         -79.1800   11.6700  129.5600 N.am      2 ALA2        0.0000 
     11 N         -69.2500   11.2600  124.8000 N.am      2 ALA2        0.0000 
     12 N         -70.5600   11.7600  125.3300 N.am      2 ALA2        0.0000 
     13 O         -75.8000   13.7600  127.4600 O.2       2 ALA2        0.0000 
     14 N         -77.1100   14.2600  127.9900 N.am      2 ALA2        0.0000 
     15 O         -70.5800   10.6500  126.3400 O.2       2 ALA2        0.0000 
     16 N         -77.1300   13.1500  129.0000 N.am      2 ALA2        0.0000 
     17 N         -78.4500   12.5400  130.5400 N.am      2 ALA2        0.0000 
     18 N         -73.7500   15.2500  126.9000 N.am      2 ALA2        0.0000 
     19 N         -71.1400   13.1400  126.8400 N.am      2 ALA2        0.0000 
     20 O         -73.7600   14.1400  127.9000 O.2       2 ALA2        0.0000 
     21 N         -75.0700   14.6400  128.4400 N.am      2 ALA2        0.0000 
     22 N         -76.4100   12.9200  130.9800 N.am      2 ALA2        0.0000 
     23 O         -76.4300   11.8100  131.9900 O.2       2 ALA2        0.0000 
     24 O         -73.0200   16.1200  127.8700 O.2       2 ALA2        0.0000 
     25 O         -72.2900   17.0000  128.8500 O.2       2 ALA2        0.0000 
     26 O         -73.6100   16.3900  130.3900 O.2       2 ALA2        0.0000 
     27 OD1       -76.4000   14.0300  129.9800 O.co2     3 ASP3        0.0000 
     28 OD1       -77.7100   14.5300  130.5100 O.co2     3 ASP3        0.0000 
     29 OD1       -77.7200   13.4200  131.5200 O.co2     3 ASP3        0.0000 
     30 OD1       -79.0300   13.9200  132.0500 O.co2     3 ASP3        0.0000 
     31 OD1       -70.4100   14.0100  127.8200 O.co2     3 ASP3        0.0000 
     32 OD1       -71.7200   14.5100  128.3500 O.co2     3 ASP3        0.0000 
     33 OD1       -73.0300   15.0100  128.8800 O.co2     3 ASP3        0.0000 
     34 OD1       -70.4300   12.9000  128.8200 O.co2     3 ASP3        0.0000 
     35 OD1       -73.0500   13.9000  129.8900 O.co2     3 ASP3        0.0000 
     36 OD1       -74.3600   14.4000  130.4200 O.co2     3 ASP3        0.0000 
     37 OD1       -75.6700   14.9000  130.9500 O.co2     3 ASP3        0.0000 
     38 OD1       -74.3700   13.2900  131.4300 O.co2     3 ASP3        0.0000 
     39 OD1       -75.6800   13.7900  131.9600 O.co2     3 ASP3        0.0000 
     40 OD1       -70.9900   15.3900  129.3200 O.co2     3 ASP3        0.0000 
     41 OD1       -72.3000   15.8900  129.8600 O.co2     3 ASP3        0.0000 
     42 OD1       -73.6300   15.2800  131.4000 O.co2     3 ASP3        0.0000 
     43 NZ        -81.1900   13.5200  127.1100 N.4       4 LYS4        0.0000 
     44 NZ        -79.1500   13.8900  127.5500 N.4       4 LYS4        0.0000 
     45 NZ        -80.4800   13.2800  129.0900 N.4       4 LYS4        0.0000 
     46 NZ        -78.4200   14.7700  128.5200 N.4       4 LYS4        0.0000 
     47 NZ        -78.4400   13.6500  129.5300 N.4       4 LYS4        0.0000 
     48 NZ        -79.7500   14.1500  130.0600 N.4       4 LYS4        0.0000 
     49 NZ        -77.6900   15.6400  129.5000 N.4       4 LYS4        0.0000 
     50 NZ        -79.0200   15.0300  131.0400 N.4       4 LYS4        0.0000 
     51 CZ        -82.8500    6.1800  125.7000 C.ar      5 PHE5        0.0000 
     52 CZ        -82.1200    7.0600  126.6700 C.ar      5 PHE5        0.0000 
     53 CZ        -81.3700    9.0400  126.6400 C.ar      5 PHE5        0.0000 
     54 CZ        -81.3900    7.9300  127.6500 C.ar      5 PHE5        0.0000 
     55 CZ        -79.3300    9.4200  127.0800 C.ar      5 PHE5        0.0000 
     56 CA        -84.7200    9.1700  126.7300 C.3       6 GLY6        0.0000 
     57 CA        -81.3600   10.1500  125.6300 C.3       6 GLY6        0.0000 
     58 CA        -82.6800    9.5400  127.1700 C.3       6 GLY6        0.0000 
     59 CA        -81.9200   12.6400  126.1300 C.3       6 GLY6        0.0000 
     60 CA        -79.3200   10.5300  126.0700 C.3       6 GLY6        0.0000 
     61 CA        -80.6300   11.0300  126.6100 C.3       6 GLY6        0.0000 
     62 CA        -81.9400   11.5300  127.1400 C.3       6 GLY6        0.0000 
     63 CA        -80.6400    9.9200  127.6100 C.3       6 GLY6        0.0000 
     64 CA        -81.9500   10.4200  128.1500 C.3       6 GLY6        0.0000 
     65 CA        -79.8800   13.0200  126.5700 C.3       6 GLY6        0.0000 
     66 CA        -78.5900   11.4000  127.0500 C.3       6 GLY6        0.0000 
     67 CA        -79.9000   11.9000  127.5800 C.3       6 GLY6        0.0000 
     68 CA        -81.2100   12.4000  128.1100 C.3       6 GLY6        0.0000 
     69 CA        -81.2200   11.2900  129.1200 C.3       6 GLY6        0.0000 
     70 CA        -77.8400   13.3900  127.0200 C.3       6 GLY6        0.0000 
     71 CA        -80.4900   12.1700  130.1000 C.3       6 GLY6        0.0000 
     72 CA        -69.2700   10.1500  125.8100 C.3       6 GLY6        0.0000 
     73 CA        -72.4500   13.6400  127.3700 C.3       6 GLY6        0.0000 
     74 CA        -76.3800   15.1400  128.9700 C.3       6 GLY6        0.0000 
     75 CA        -68.5400   11.0300  126.7800 C.3       6 GLY6        0.0000 
     76 CA        -71.1600   12.0300  127.8500 C.3       6 GLY6        0.0000 
     77 CA        -75.0900   13.5300  129.4400 C.3       6 GLY6        0.0000 
     78 CA        -69.8600   10.4200  128.3200 C.3       6 GLY6        0.0000 
     79 CA        -75.1000   12.4200  130.4500 C.3       6 GLY6        0.0000 
     80 CA        -70.4000   15.1200  126.8100 C.3       6 GLY6        0.0000 
     81 CA        -71.7100   15.6200  127.3400 C.3       6 GLY6        0.0000 
     82 CA        -74.3400   15.5100  129.4100 C.3       6 GLY6        0.0000 
     83 CA        -69.6700   16.0000  127.7800 C.3       6 GLY6        0.0000 
     84 CA        -70.9800   16.5000  128.3200 C.3       6 GLY6        0.0000 
     85 DU        -84.1400    7.7900  125.2200 H         7 CUB7        0.0000 
     86 DU        -83.4100    8.6700  126.1900 H         7 CUB7        0.0000 
     87 DU        -69.8500   11.5300  127.3200 H         7 CUB7        0.0000 
     88 DU        -77.7400   12.3100  132.5200 H         7 CUB7        0.0000 
     89 DU        -75.7000   12.6800  132.9700 H         7 CUB7        0.0000 
@<TRIPOS>BOND
@<TRIPOS>SUBSTRUCTURE
     1 SER1        1 GROUP   
     2 ALA2        6 GROUP   
     3 ASP3       27 GROUP   
     4 LYS4       43 GROUP   
     5 PHE5       51 GROUP   
     6 GLY6       56 GROUP   
     7 CUB7       85 GROUP   
@<TRIPOS>SET

