#    Name: 6c58_7_UDX_CAVITY_N1_ALL
#    Modification time : Fri May 22 19:36:44 2020

@<TRIPOS>MOLECULE
6c58_7_UDX_CAVITY_N1_ALL
   82     0     6     0     0
SMALL
NO_CHARGES


@<TRIPOS>ATOM
      1 OG        -73.1600  -29.4200  111.1500 O.3       1 SER1        0.0000 
      2 O         -75.4800  -33.1800  104.7400 O.2       2 ALA2        0.0000 
      3 N         -73.5600  -41.6900  113.2400 N.am      2 ALA2        0.0000 
      4 N         -74.8700  -41.1900  113.7700 N.am      2 ALA2        0.0000 
      5 N         -72.8300  -40.8200  114.2200 N.am      2 ALA2        0.0000 
      6 N         -74.1400  -40.3200  114.7500 N.am      2 ALA2        0.0000 
      7 N         -75.4500  -39.8200  115.2800 N.am      2 ALA2        0.0000 
      8 N         -73.2900  -30.5500  107.6600 N.am      2 ALA2        0.0000 
      9 N         -73.4100  -39.4400  115.7200 N.am      2 ALA2        0.0000 
     10 N         -72.5600  -29.6800  108.6400 N.am      2 ALA2        0.0000 
     11 N         -73.8700  -29.1800  109.1700 N.am      2 ALA2        0.0000 
     12 N         -76.5400  -31.5100  113.2600 N.am      2 ALA2        0.0000 
     13 O         -74.5000  -31.1400  113.7000 O.2       2 ALA2        0.0000 
     14 N         -75.8100  -30.6400  114.2300 N.am      2 ALA2        0.0000 
     15 N         -74.5100  -32.2500  114.7100 N.am      2 ALA2        0.0000 
     16 OD1       -74.8400  -38.9700  111.7600 O.co2     3 ASP3        0.0000 
     17 OD1       -73.5500  -40.5800  112.2300 O.co2     3 ASP3        0.0000 
     18 OD1       -76.7000  -34.8700  111.7800 O.co2     3 ASP3        0.0000 
     19 OD1       -76.7200  -35.9800  112.7900 O.co2     3 ASP3        0.0000 
     20 OD1       -75.2000  -29.7900  110.7100 O.co2     3 ASP3        0.0000 
     21 OD1       -75.2100  -30.9000  111.7200 O.co2     3 ASP3        0.0000 
     22 OD1       -76.5200  -30.4000  112.2500 O.co2     3 ASP3        0.0000 
     23 OD1       -74.4700  -28.9200  111.6800 O.co2     3 ASP3        0.0000 
     24 OD1       -75.7900  -29.5300  113.2200 O.co2     3 ASP3        0.0000 
     25 CZ        -75.5000  -34.2900  105.7400 C.ar      4 PHE5        0.0000 
     26 CZ        -74.7700  -33.4200  106.7200 C.ar      4 PHE5        0.0000 
     27 CZ        -74.0400  -32.5400  107.6900 C.ar      4 PHE5        0.0000 
     28 CZ        -74.0500  -33.6500  108.7000 C.ar      4 PHE5        0.0000 
     29 CZ        -75.3800  -34.2600  110.2400 C.ar      4 PHE5        0.0000 
     30 CZ        -75.3900  -35.3700  111.2500 C.ar      4 PHE5        0.0000 
     31 CZ        -74.1000  -36.9800  111.7200 C.ar      4 PHE5        0.0000 
     32 CZ        -74.1100  -38.1000  112.7300 C.ar      4 PHE5        0.0000 
     33 CZ        -72.0000  -32.1700  108.1400 C.ar      4 PHE5        0.0000 
     34 CZ        -73.3200  -32.7800  109.6800 C.ar      4 PHE5        0.0000 
     35 CZ        -74.6500  -33.3900  111.2200 C.ar      4 PHE5        0.0000 
     36 CZ        -74.6600  -34.5000  112.2200 C.ar      4 PHE5        0.0000 
     37 CZ        -74.6800  -35.6100  113.2300 C.ar      4 PHE5        0.0000 
     38 CZ        -75.9900  -35.1100  113.7600 C.ar      4 PHE5        0.0000 
     39 CZ        -74.6900  -36.7200  114.2400 C.ar      4 PHE5        0.0000 
     40 CZ        -76.0000  -36.2200  114.7700 C.ar      4 PHE5        0.0000 
     41 CZ        -73.4000  -38.3300  114.7200 C.ar      4 PHE5        0.0000 
     42 CZ        -73.9300  -33.6200  113.2000 C.ar      4 PHE5        0.0000 
     43 CZ        -75.2400  -33.1200  113.7300 C.ar      4 PHE5        0.0000 
     44 CZ        -76.5500  -32.6200  114.2600 C.ar      4 PHE5        0.0000 
     45 CZ        -73.9500  -34.7300  114.2100 C.ar      4 PHE5        0.0000 
     46 CZ        -75.2600  -34.2300  114.7400 C.ar      4 PHE5        0.0000 
     47 CZ        -73.2000  -32.7500  114.1800 C.ar      4 PHE5        0.0000 
     48 CA        -74.7500  -32.3000  105.7100 C.3       5 GLY6        0.0000 
     49 CA        -76.0600  -31.8000  106.2400 C.3       5 GLY6        0.0000 
     50 CA        -74.8600  -40.0800  112.7600 C.3       5 GLY6        0.0000 
     51 CA        -74.0200  -31.4300  106.6900 C.3       5 GLY6        0.0000 
     52 CA        -75.3300  -30.9300  107.2200 C.3       5 GLY6        0.0000 
     53 CA        -75.4100  -36.4800  112.2600 C.3       5 GLY6        0.0000 
     54 CA        -75.4200  -37.6000  113.2600 C.3       5 GLY6        0.0000 
     55 CA        -76.7300  -37.0900  113.8000 C.3       5 GLY6        0.0000 
     56 CA        -72.8200  -39.7100  113.2100 C.3       5 GLY6        0.0000 
     57 CA        -75.4400  -38.7100  114.2700 C.3       5 GLY6        0.0000 
     58 CA        -74.1600  -41.4300  115.7600 C.3       5 GLY6        0.0000 
     59 CA        -71.9800  -31.0600  107.1300 C.3       5 GLY6        0.0000 
     60 CA        -73.3100  -31.6700  108.6700 C.3       5 GLY6        0.0000 
     61 CA        -74.6300  -32.2800  110.2100 C.3       5 GLY6        0.0000 
     62 CA        -77.2700  -32.3900  112.2800 C.3       5 GLY6        0.0000 
     63 CA        -75.9700  -34.0000  112.7600 C.3       5 GLY6        0.0000 
     64 CA        -77.2800  -33.5000  113.2900 C.3       5 GLY6        0.0000 
     65 CA        -74.7200  -38.9400  116.2600 C.3       5 GLY6        0.0000 
     66 CA        -72.5800  -30.7900  109.6500 C.3       5 GLY6        0.0000 
     67 CA        -73.8900  -30.2900  110.1800 C.3       5 GLY6        0.0000 
     68 CA        -73.9000  -31.4000  111.1800 C.3       5 GLY6        0.0000 
     69 CA        -73.9200  -32.5100  112.1900 C.3       5 GLY6        0.0000 
     70 CA        -73.1700  -30.5300  112.1600 C.3       5 GLY6        0.0000 
     71 CA        -74.4800  -30.0300  112.6900 C.3       5 GLY6        0.0000 
     72 CA        -73.1900  -31.6400  113.1700 C.3       5 GLY6        0.0000 
     73 DU        -76.7900  -32.6800  105.2700 H         6 CUB7        0.0000 
     74 DU        -77.3700  -31.3000  106.7700 H         6 CUB7        0.0000 
     75 DU        -76.0800  -32.9200  107.2500 H         6 CUB7        0.0000 
     76 DU        -75.3500  -32.0400  108.2300 H         6 CUB7        0.0000 
     77 DU        -74.1300  -39.2100  113.7400 H         6 CUB7        0.0000 
     78 DU        -74.6200  -31.1700  109.2000 H         6 CUB7        0.0000 
     79 DU        -75.9600  -32.8900  111.7500 H         6 CUB7        0.0000 
     80 DU        -74.7100  -37.8300  115.2500 H         6 CUB7        0.0000 
     81 DU        -76.0200  -37.3300  115.7800 H         6 CUB7        0.0000 
     82 DU        -75.2300  -32.0100  112.7200 H         6 CUB7        0.0000 
@<TRIPOS>BOND
@<TRIPOS>SUBSTRUCTURE
     1 SER1        1 GROUP   
     2 ALA2        2 GROUP   
     3 ASP3       16 GROUP   
     4 PHE5       25 GROUP   
     5 GLY6       48 GROUP   
     6 CUB7       73 GROUP   
@<TRIPOS>SET

