#    Name: 6c58_9_UDX
#    Modification time : Fri May 22 19:36:49 2020

@<TRIPOS>MOLECULE
6c58_9_UDX
   34    36     1     0     0
SMALL
NO_CHARGES


@<TRIPOS>ATOM
      1 C1'       -45.4240  -10.8090  172.0830 C.3       1 UDX500      0.0000 
      2 C2'       -44.3910  -10.0180  171.3100 C.3       1 UDX500      0.0000 
      3 O2'       -43.5390   -9.3700  172.2320 O.3       1 UDX500      0.0000 
      4 C3'       -45.0820   -8.9700  170.4180 C.3       1 UDX500      0.0000 
      5 O3'       -44.1240   -8.2370  169.6670 O.3       1 UDX500      0.0000 
      6 C4'       -45.9820   -9.7080  169.4630 C.3       1 UDX500      0.0000 
      7 O4'       -46.5830   -8.7780  168.5500 O.3       1 UDX500      0.0000 
      8 C5'       -47.0340  -10.4390  170.2890 C.3       1 UDX500      0.0000 
      9 O5'       -46.3860  -11.3650  171.1870 O.3       1 UDX500      0.0000 
     10 PB        -46.7520  -10.6080  174.3250 P.3       1 UDX500      0.0000 
     11 O1B       -46.1320  -10.0820  175.5560 O.co2     1 UDX500      0.0000 
     12 O2B       -46.8600  -12.0880  174.1580 O.co2     1 UDX500      0.0000 
     13 O3B       -45.9880   -9.9970  173.0680 O.3       1 UDX500      0.0000 
     14 O3A       -48.2270  -10.0260  174.3390 O.3       1 UDX500      0.0000 
     15 PA        -49.7310  -10.5280  174.4410 P.3       1 UDX500      0.0000 
     16 O1A       -49.6770  -11.7940  175.2130 O.co2     1 UDX500      0.0000 
     17 O2A       -50.3740  -10.4820  173.1170 O.co2     1 UDX500      0.0000 
     18 O5D       -50.3460   -9.3900  175.3730 O.3       1 UDX500      0.0000 
     19 C5D       -50.2020   -8.0210  175.0060 C.3       1 UDX500      0.0000 
     20 C4D       -50.8010   -7.1430  176.0860 C.3       1 UDX500      0.0000 
     21 O4D       -50.6370   -5.7430  175.7240 O.3       1 UDX500      0.0000 
     22 C3D       -52.2960   -7.4100  176.2030 C.3       1 UDX500      0.0000 
     23 O3D       -52.5810   -7.7470  177.5690 O.3       1 UDX500      0.0000 
     24 C2D       -52.9560   -6.0870  175.8240 C.3       1 UDX500      0.0000 
     25 O2D       -54.0530   -5.8110  176.6680 O.3       1 UDX500      0.0000 
     26 C1D       -51.8650   -5.0710  176.0860 C.3       1 UDX500      0.0000 
     27 N1        -52.1450   -3.8830  175.2970 N.am      1 UDX500      0.0000 
     28 C6        -52.1120   -3.9360  173.9350 C.2       1 UDX500      0.0000 
     29 C2        -52.4310   -2.7390  175.9650 C.2       1 UDX500      0.0000 
     30 O2        -52.4600   -2.6870  177.1920 O.2       1 UDX500      0.0000 
     31 N3        -52.6830   -1.6520  175.1560 N.am      1 UDX500      0.0000 
     32 C4        -52.6680   -1.6360  173.7750 C.2       1 UDX500      0.0000 
     33 O4        -52.9090   -0.6090  173.1510 O.2       1 UDX500      0.0000 
     34 C5        -52.3580   -2.8840  173.1820 C.2       1 UDX500      0.0000 
@<TRIPOS>BOND
     1    1    2 1    
     2    1    9 1    
     3    1   13 1    
     4    2    3 1    
     5    2    4 1    
     6    4    5 1    
     7    4    6 1    
     8    6    7 1    
     9    6    8 1    
    10    8    9 1    
    11   10   11 ar   
    12   10   12 ar   
    13   10   13 1    
    14   10   14 1    
    15   14   15 1    
    16   15   16 ar   
    17   15   17 ar   
    18   15   18 1    
    19   18   19 1    
    20   19   20 1    
    21   20   21 1    
    22   20   22 1    
    23   21   26 1    
    24   22   23 1    
    25   22   24 1    
    26   24   25 1    
    27   24   26 1    
    28   26   27 1    
    29   27   28 1    
    30   27   29 1    
    31   28   34 2    
    32   29   30 2    
    33   29   31 1    
    34   31   32 1    
    35   32   33 2    
    36   32   34 1    
@<TRIPOS>SUBSTRUCTURE
     1 UDX500      1 GROUP   
@<TRIPOS>SET

