#    Name: 6c58_4_UDX
#    Modification time : Fri May 22 19:36:21 2020

@<TRIPOS>MOLECULE
6c58_4_UDX
   34    36     1     0     0
SMALL
NO_CHARGES


@<TRIPOS>ATOM
      1 C1'       -61.3470   17.9410  128.0970 C.3       1 UDX502      0.0000 
      2 C2'       -60.6080   18.6040  126.9600 C.3       1 UDX502      0.0000 
      3 O2'       -59.7670   19.5990  127.5100 O.3       1 UDX502      0.0000 
      4 C3'       -61.6110   19.2500  125.9860 C.3       1 UDX502      0.0000 
      5 O3'       -60.9230   19.8220  124.8840 O.3       1 UDX502      0.0000 
      6 C4'       -62.5380   18.1780  125.4720 C.3       1 UDX502      0.0000 
      7 O4'       -63.4700   18.7490  124.5420 O.3       1 UDX502      0.0000 
      8 C5'       -63.2680   17.5690  126.6640 C.3       1 UDX502      0.0000 
      9 O5'       -62.3090   17.0190  127.5910 O.3       1 UDX502      0.0000 
     10 PB        -62.3350   18.6210  130.4040 P.3       1 UDX502      0.0000 
     11 O1B       -62.3570   17.1550  130.6030 O.co2     1 UDX502      0.0000 
     12 O2B       -63.5470   19.4460  130.6890 O.co2     1 UDX502      0.0000 
     13 O3B       -61.9180   18.9250  128.9000 O.3       1 UDX502      0.0000 
     14 O3A       -61.1890   19.2170  131.3260 O.3       1 UDX502      0.0000 
     15 PA        -59.6180   19.4560  131.2420 P.3       1 UDX502      0.0000 
     16 O1A       -59.4130   20.8920  131.5490 O.co2     1 UDX502      0.0000 
     17 O2A       -59.0700   18.8770  130.0050 O.co2     1 UDX502      0.0000 
     18 O5D       -59.1360   18.5970  132.4940 O.3       1 UDX502      0.0000 
     19 C5D       -59.2050   17.1730  132.4560 C.3       1 UDX502      0.0000 
     20 C4D       -58.4730   16.5840  133.6480 C.3       1 UDX502      0.0000 
     21 O4D       -57.0360   16.6710  133.4140 O.3       1 UDX502      0.0000 
     22 C3D       -58.7620   17.3660  134.9230 C.3       1 UDX502      0.0000 
     23 O3D       -58.9000   16.4190  135.9920 O.3       1 UDX502      0.0000 
     24 C2D       -57.5080   18.2060  135.1370 C.3       1 UDX502      0.0000 
     25 O2D       -57.2600   18.4050  136.5120 O.3       1 UDX502      0.0000 
     26 C1D       -56.4250   17.3270  134.5500 C.3       1 UDX502      0.0000 
     27 N1        -55.2990   18.1590  134.1610 N.am      1 UDX502      0.0000 
     28 C6        -55.4300   19.0360  133.1270 C.2       1 UDX502      0.0000 
     29 C2        -54.1360   18.0170  134.8380 C.2       1 UDX502      0.0000 
     30 O2        -54.0100   17.2270  135.7690 O.2       1 UDX502      0.0000 
     31 N3        -53.1150   18.8360  134.3990 N.am      1 UDX502      0.0000 
     32 C4        -53.1810   19.7470  133.3620 C.2       1 UDX502      0.0000 
     33 O4        -52.2110   20.4280  133.0510 O.2       1 UDX502      0.0000 
     34 C5        -54.4420   19.8080  132.7210 C.2       1 UDX502      0.0000 
@<TRIPOS>BOND
     1    1    2 1    
     2    1    9 1    
     3    1   13 1    
     4    2    3 1    
     5    2    4 1    
     6    4    5 1    
     7    4    6 1    
     8    6    7 1    
     9    6    8 1    
    10    8    9 1    
    11   10   11 ar   
    12   10   12 ar   
    13   10   13 1    
    14   10   14 1    
    15   14   15 1    
    16   15   16 ar   
    17   15   17 ar   
    18   15   18 1    
    19   18   19 1    
    20   19   20 1    
    21   20   21 1    
    22   20   22 1    
    23   21   26 1    
    24   22   23 1    
    25   22   24 1    
    26   24   25 1    
    27   24   26 1    
    28   26   27 1    
    29   27   28 1    
    30   27   29 1    
    31   28   34 2    
    32   29   30 2    
    33   29   31 1    
    34   31   32 1    
    35   32   33 2    
    36   32   34 1    
@<TRIPOS>SUBSTRUCTURE
     1 UDX502      1 GROUP   
@<TRIPOS>SET

