#    Name: 6c58_5_UDX
#    Modification time : Fri May 22 19:36:25 2020

@<TRIPOS>MOLECULE
6c58_5_UDX
   34    36     1     0     0
SMALL
NO_CHARGES


@<TRIPOS>ATOM
      1 C1'       -46.2570  -28.2400   90.5800 C.3       1 UDX500      0.0000 
      2 C2'       -47.3320  -27.2560   90.9820 C.3       1 UDX500      0.0000 
      3 O2'       -48.2690  -27.1780   89.9260 O.3       1 UDX500      0.0000 
      4 C3'       -46.7330  -25.8600   91.2430 C.3       1 UDX500      0.0000 
      5 O3'       -47.7460  -24.9670   91.6900 O.3       1 UDX500      0.0000 
      6 C4'       -45.6860  -25.9960   92.3210 C.3       1 UDX500      0.0000 
      7 O4'       -45.1510  -24.7090   92.6620 O.3       1 UDX500      0.0000 
      8 C5'       -44.5980  -26.9270   91.7980 C.3       1 UDX500      0.0000 
      9 O5'       -45.1740  -28.2190   91.5100 O.3       1 UDX500      0.0000 
     10 PB        -44.9400  -28.9160   88.4240 P.3       1 UDX500      0.0000 
     11 O1B       -45.4580  -28.9590   87.0410 O.co2     1 UDX500      0.0000 
     12 O2B       -44.7630  -30.2030   89.1600 O.co2     1 UDX500      0.0000 
     13 O3B       -45.8700  -27.9480   89.2750 O.3       1 UDX500      0.0000 
     14 O3A       -43.5260  -28.2090   88.3700 O.3       1 UDX500      0.0000 
     15 PA        -42.0900  -28.5370   87.7820 P.3       1 UDX500      0.0000 
     16 O1A       -42.0920  -29.9990   87.5270 O.co2     1 UDX500      0.0000 
     17 O2A       -41.0520  -27.9090   88.6130 O.co2     1 UDX500      0.0000 
     18 O5D       -42.1640  -27.7810   86.3810 O.3       1 UDX500      0.0000 
     19 C5D       -42.0590  -26.3650   86.3150 C.3       1 UDX500      0.0000 
     20 C4D       -41.4020  -26.0030   85.0020 C.3       1 UDX500      0.0000 
     21 O4D       -41.5410  -24.5780   84.7520 O.3       1 UDX500      0.0000 
     22 C3D       -39.9100  -26.3010   85.0800 C.3       1 UDX500      0.0000 
     23 O3D       -39.5840  -27.1910   84.0010 O.3       1 UDX500      0.0000 
     24 C2D       -39.2300  -24.9470   84.8920 C.3       1 UDX500      0.0000 
     25 O2D       -38.0840  -25.0740   84.0750 O.3       1 UDX500      0.0000 
     26 C1D       -40.2910  -24.1520   84.1600 C.3       1 UDX500      0.0000 
     27 N1        -40.0470  -22.7260   84.3080 N.am      1 UDX500      0.0000 
     28 C6        -39.9290  -22.1650   85.5430 C.2       1 UDX500      0.0000 
     29 C2        -39.9650  -21.9910   83.1720 C.2       1 UDX500      0.0000 
     30 O2        -40.0740  -22.4950   82.0600 O.2       1 UDX500      0.0000 
     31 N3        -39.7430  -20.6450   83.3750 N.am      1 UDX500      0.0000 
     32 C4        -39.6090  -20.0110   84.5950 C.2       1 UDX500      0.0000 
     33 O4        -39.4130  -18.8030   84.6610 O.2       1 UDX500      0.0000 
     34 C5        -39.7180  -20.8740   85.7130 C.2       1 UDX500      0.0000 
@<TRIPOS>BOND
     1    1    2 1    
     2    1    9 1    
     3    1   13 1    
     4    2    3 1    
     5    2    4 1    
     6    4    5 1    
     7    4    6 1    
     8    6    7 1    
     9    6    8 1    
    10    8    9 1    
    11   10   11 ar   
    12   10   12 ar   
    13   10   13 1    
    14   10   14 1    
    15   14   15 1    
    16   15   16 ar   
    17   15   17 ar   
    18   15   18 1    
    19   18   19 1    
    20   19   20 1    
    21   20   21 1    
    22   20   22 1    
    23   21   26 1    
    24   22   23 1    
    25   22   24 1    
    26   24   25 1    
    27   24   26 1    
    28   26   27 1    
    29   27   28 1    
    30   27   29 1    
    31   28   34 2    
    32   29   30 2    
    33   29   31 1    
    34   31   32 1    
    35   32   33 2    
    36   32   34 1    
@<TRIPOS>SUBSTRUCTURE
     1 UDX500      1 GROUP   
@<TRIPOS>SET

