#    Name: 6vdj_1_TXD
#    Modification time : Fri May 22 19:30:29 2020

@<TRIPOS>MOLECULE
6vdj_1_TXD
   73    77     1     0     0
SMALL
NO_CHARGES


@<TRIPOS>ATOM
      1 O7N       -20.6450   33.5200  -40.1240 O.2       1 TXD401      0.0000 
      2 C7N       -20.2480   34.6160  -40.1510 C.2       1 TXD401      0.0000 
      3 N7N       -21.1990   35.7340  -39.8540 N.am      1 TXD401      0.0000 
      4 C3N       -18.7680   34.8920  -40.4250 C.3       1 TXD401      0.0000 
      5 C2N       -18.4130   36.3060  -39.5340 C.3       1 TXD401      0.0000 
      6 C4N       -18.0340   33.7840  -40.0370 C.2       1 TXD401      0.0000 
      7 C5N       -16.5290   34.0430  -39.7080 C.2       1 TXD401      0.0000 
      8 C6N       -16.1970   35.3300  -39.0610 C.3       1 TXD401      0.0000 
      9 N1N       -17.1500   36.6170  -39.4560 N.4       1 TXD401      0.0000 
     10 C1'A      -17.0610   37.8430  -38.5690 C.3       1 TXD401      0.0000 
     11 O4'A      -16.5040   39.1490  -39.3930 O.3       1 TXD401      0.0000 
     12 C2'A      -16.2880   37.8390  -37.5170 C.3       1 TXD401      0.0000 
     13 O2'A      -17.1330   37.8850  -36.3130 O.3       1 TXD401      0.0000 
     14 C3'A      -15.4440   39.1710  -37.5690 C.3       1 TXD401      0.0000 
     15 O3'A      -16.0870   40.2900  -37.1250 O.3       1 TXD401      0.0000 
     16 C4'A      -15.2180   39.3060  -39.0580 C.3       1 TXD401      0.0000 
     17 C5'A      -14.3790   38.2010  -39.6520 C.3       1 TXD401      0.0000 
     18 O5'A      -13.6720   38.6480  -40.8390 O.3       1 TXD401      0.0000 
     19 PN        -11.9960   38.4790  -40.8200 P.3       1 TXD401      0.0000 
     20 O1N       -11.3450   38.9940  -42.0960 O.co2     1 TXD401      0.0000 
     21 O2N       -11.6080   37.0280  -40.6510 O.co2     1 TXD401      0.0000 
     22 O3        -11.4090   39.3240  -39.4580 O.3       1 TXD401      0.0000 
     23 PA        -10.0420   40.3310  -39.6480 P.3       1 TXD401      0.0000 
     24 O2P        -9.3850   40.6670  -38.3170 O.co2     1 TXD401      0.0000 
     25 O1P        -9.0310   39.6200  -40.5310 O.co2     1 TXD401      0.0000 
     26 O5'       -10.5490   41.7560  -40.3930 O.3       1 TXD401      0.0000 
     27 C5'       -11.3720   42.7100  -39.6770 C.3       1 TXD401      0.0000 
     28 C4'       -11.1670   43.9960  -40.4330 C.3       1 TXD401      0.0000 
     29 C3'        -9.8070   44.8130  -39.8880 C.3       1 TXD401      0.0000 
     30 O3'        -8.7990   44.6210  -40.9340 O.3       1 TXD401      0.0000 
     31 C2'       -10.1000   46.0360  -39.7190 C.3       1 TXD401      0.0000 
     32 O2'        -8.9530   46.9270  -40.1400 O.3       1 TXD401      0.0000 
     33 C1'       -11.4090   46.1620  -40.5780 C.3       1 TXD401      0.0000 
     34 O4'       -12.0930   44.8330  -40.2030 O.3       1 TXD401      0.0000 
     35 N9A       -12.0940   47.2240  -40.2740 N.pl3     1 TXD401      0.0000 
     36 C4A       -12.4210   47.9080  -39.1810 C.ar      1 TXD401      0.0000 
     37 N3A       -12.1670   47.7390  -37.8770 N.ar      1 TXD401      0.0000 
     38 C2A       -12.6710   48.6210  -37.0140 C.ar      1 TXD401      0.0000 
     39 N1A       -13.4420   49.6970  -37.4130 N.ar      1 TXD401      0.0000 
     40 C6A       -13.6730   49.8440  -38.6780 C.ar      1 TXD401      0.0000 
     41 N6A       -14.4180   50.8590  -39.4190 N.pl3     1 TXD401      0.0000 
     42 C5A       -13.1650   48.9510  -39.5760 C.ar      1 TXD401      0.0000 
     43 N7A       -13.2810   48.9140  -40.8860 N.2       1 TXD401      0.0000 
     44 C8A       -12.6120   47.8450  -41.3200 C.2       1 TXD401      0.0000 
     45 H7N1      -20.8990   36.5330  -39.8660 H         1 TXD401      0.0000 
     46 H7N2      -22.0340   35.5890  -39.6810 H         1 TXD401      0.0000 
     47 H2N1      -18.8800   37.0490  -39.9480 H         1 TXD401      0.0000 
     48 H2N2      -18.7480   36.1850  -38.6320 H         1 TXD401      0.0000 
     49 H6N1      -15.2840   35.5520  -39.2980 H         1 TXD401      0.0000 
     50 H6N2      -16.2550   35.2010  -38.1010 H         1 TXD401      0.0000 
     51 H3N       -18.5860   35.0320  -41.3680 H         1 TXD401      0.0000 
     52 H4N       -18.4140   32.9380  -39.9760 H         1 TXD401      0.0000 
     53 H5N       -15.8720   33.4160  -39.9100 H         1 TXD401      0.0000 
     54 H1'A      -17.9710   37.9120  -38.2420 H         1 TXD401      0.0000 
     55 H2'A      -15.7040   37.0650  -37.5430 H         1 TXD401      0.0000 
     56 HO2A      -17.7030   38.5080  -36.4580 H         1 TXD401      0.0000 
     57 H3'A      -14.6460   39.0670  -37.0260 H         1 TXD401      0.0000 
     58 HO3A      -15.7670   40.9590  -37.5660 H         1 TXD401      0.0000 
     59 H4'A      -14.7800   40.1290  -39.3250 H         1 TXD401      0.0000 
     60 H5'1      -14.9590   37.4600  -39.8890 H         1 TXD401      0.0000 
     61 H5'2      -13.7340   37.9060  -38.9910 H         1 TXD401      0.0000 
     62 H5'A      -11.0790   42.7990  -38.7570 H         1 TXD401      0.0000 
     63 H5'B      -12.3050   42.4440  -39.6940 H         1 TXD401      0.0000 
     64 H4'       -11.1090   43.7780  -41.3760 H         1 TXD401      0.0000 
     65 H3'        -9.5180   44.5000  -39.0160 H         1 TXD401      0.0000 
     66 HO3'       -8.8880   43.8850  -41.3620 H         1 TXD401      0.0000 
     67 H2'       -10.2890   46.2790  -38.7990 H         1 TXD401      0.0000 
     68 HO2'       -8.8860   47.5960  -39.6080 H         1 TXD401      0.0000 
     69 H1'       -11.2530   46.2290  -41.5330 H         1 TXD401      0.0000 
     70 H2A       -12.5540   48.5940  -36.0920 H         1 TXD401      0.0000 
     71 H6A1      -14.4350   51.6680  -39.1340 H         1 TXD401      0.0000 
     72 H6A2      -14.8050   50.6420  -40.1510 H         1 TXD401      0.0000 
     73 H8A       -12.5250   47.5810  -42.2070 H         1 TXD401      0.0000 
@<TRIPOS>BOND
     1    1    2 2    
     2    2    3 am   
     3    2    4 1    
     4    4    5 1    
     5    3   45 1    
     6    3   46 1    
     7    4    6 1    
     8    4   51 1    
     9    5    9 1    
    10    5   47 1    
    11    5   48 1    
    12    6    7 2    
    13    7    8 1    
    14    6   52 1    
    15    8    9 1    
    16    7   53 1    
    17    8   49 1    
    18    8   50 1    
    19    9   10 1    
    20   10   11 1    
    21   10   12 1    
    22   10   54 1    
    23   12   55 1    
    24   11   16 1    
    25   12   13 1    
    26   12   14 1    
    27   13   56 1    
    28   14   15 1    
    29   14   16 1    
    30   14   57 1    
    31   15   58 1    
    32   16   17 1    
    33   16   59 1    
    34   17   18 1    
    35   17   60 1    
    36   17   61 1    
    37   18   19 1    
    38   19   20 ar   
    39   19   21 ar   
    40   19   22 1    
    41   22   23 1    
    42   23   24 ar   
    43   23   25 ar   
    44   23   26 1    
    45   26   27 1    
    46   27   28 1    
    47   27   62 1    
    48   27   63 1    
    49   28   29 1    
    50   28   34 1    
    51   28   64 1    
    52   29   30 1    
    53   29   31 1    
    54   29   65 1    
    55   31   67 1    
    56   31   32 1    
    57   30   66 1    
    58   31   33 1    
    59   33   34 1    
    60   32   68 1    
    61   33   35 1    
    62   33   69 1    
    63   35   36 1    
    64   35   44 1    
    65   36   37 ar   
    66   36   42 ar   
    67   37   38 ar   
    68   38   39 ar   
    69   39   40 ar   
    70   38   70 1    
    71   40   41 1    
    72   40   42 ar   
    73   42   43 1    
    74   41   71 1    
    75   41   72 1    
    76   43   44 2    
    77   44   73 1    
@<TRIPOS>SUBSTRUCTURE
     1 TXD401      1 GROUP   
@<TRIPOS>SET

