#    Name: 5w7k_1_SAH
#    Modification time : Fri May 22 19:15:37 2020

@<TRIPOS>MOLECULE
5w7k_1_SAH
   26    28     1     0     0
SMALL
NO_CHARGES


@<TRIPOS>ATOM
      1 N          -0.5020    2.7030   49.0560 N.4       1 SAH301      0.0000 
      2 CA          0.3820    3.7550   49.5820 C.3       1 SAH301      0.0000 
      3 CB          1.5660    3.2000   50.3670 C.3       1 SAH301      0.0000 
      4 CG          2.5160    2.1900   49.6890 C.3       1 SAH301      0.0000 
      5 SD          3.9870    1.9650   50.7300 S.3       1 SAH301      0.0000 
      6 C           0.8990    4.6360   48.4550 C.2       1 SAH301      0.0000 
      7 O           0.4850    4.4620   47.3030 O.co2     1 SAH301      0.0000 
      8 OXT         1.6950    5.5550   48.6960 O.co2     1 SAH301      0.0000 
      9 C5'         3.6730    0.2650   51.3360 C.3       1 SAH301      0.0000 
     10 C4'         2.7050    0.2320   52.5430 C.3       1 SAH301      0.0000 
     11 O4'         2.3390   -1.1000   52.8720 O.3       1 SAH301      0.0000 
     12 C3'         3.2460    0.8400   53.8290 C.3       1 SAH301      0.0000 
     13 O3'         2.3760    1.8780   54.2420 O.3       1 SAH301      0.0000 
     14 C2'         3.1910   -0.2820   54.8570 C.3       1 SAH301      0.0000 
     15 O2'         2.8390    0.1940   56.1410 O.3       1 SAH301      0.0000 
     16 C1'         2.1480   -1.2050   54.2690 C.3       1 SAH301      0.0000 
     17 N9          2.2660   -2.6440   54.5910 N.pl3     1 SAH301      0.0000 
     18 C8          3.3960   -3.4150   54.5860 C.2       1 SAH301      0.0000 
     19 N7          3.0380   -4.6810   54.9110 N.2       1 SAH301      0.0000 
     20 C5          1.7130   -4.7390   55.1180 C.ar      1 SAH301      0.0000 
     21 C6          0.8330   -5.7810   55.4530 C.ar      1 SAH301      0.0000 
     22 N6          1.2320   -7.0340   55.6590 N.pl3     1 SAH301      0.0000 
     23 N1         -0.5050   -5.4900   55.5830 N.ar      1 SAH301      0.0000 
     24 C2         -0.9700   -4.2120   55.3710 C.ar      1 SAH301      0.0000 
     25 N3         -0.1070   -3.1880   55.0350 N.ar      1 SAH301      0.0000 
     26 C4          1.2190   -3.4590   54.9070 C.ar      1 SAH301      0.0000 
@<TRIPOS>BOND
     1    1    2 1    
     2    2    3 1    
     3    2    6 1    
     4    3    4 1    
     5    4    5 1    
     6    5    9 1    
     7    6    7 ar   
     8    6    8 ar   
     9    9   10 1    
    10   10   11 1    
    11   10   12 1    
    12   11   16 1    
    13   12   13 1    
    14   12   14 1    
    15   14   15 1    
    16   14   16 1    
    17   16   17 1    
    18   17   18 1    
    19   17   26 1    
    20   18   19 2    
    21   19   20 1    
    22   20   21 ar   
    23   20   26 ar   
    24   21   22 1    
    25   21   23 ar   
    26   23   24 ar   
    27   24   25 ar   
    28   25   26 ar   
@<TRIPOS>SUBSTRUCTURE
     1 SAH301      1 GROUP   
@<TRIPOS>SET

