#    Name: 5w7k_1_SAH_CAVITY_N1_8
#    Modification time : Fri May 22 19:15:39 2020

@<TRIPOS>MOLECULE
5w7k_1_SAH_CAVITY_N1_8
  128     0     6     0     0
SMALL
NO_CHARGES


@<TRIPOS>ATOM
      1 OG          1.4000    6.3200   49.5500 O.3       1 SER1        0.0000 
      2 OG          2.5000    6.6300   50.5300 O.3       1 SER1        0.0000 
      3 OG          3.5100    6.4800   49.4400 O.3       1 SER1        0.0000 
      4 OG          7.2200   -1.2600   47.7500 O.3       1 SER1        0.0000 
      5 OG          8.2300   -1.4100   46.6600 O.3       1 SER1        0.0000 
      6 OG          4.1200    1.1000   52.7800 O.3       1 SER1        0.0000 
      7 OG          4.2500   -0.3600   53.1000 O.3       1 SER1        0.0000 
      8 OG          5.1300    0.9500   51.6900 O.3       1 SER1        0.0000 
      9 OG          5.2700   -0.5100   52.0100 O.3       1 SER1        0.0000 
     10 OG          7.3000   -0.8000   49.8200 O.3       1 SER1        0.0000 
     11 OG          8.3100   -0.9500   48.7300 O.3       1 SER1        0.0000 
     12 OG          8.4400   -2.4100   49.0500 O.3       1 SER1        0.0000 
     13 OG          8.5800   -3.8700   49.3600 O.3       1 SER1        0.0000 
     14 OG          9.3300   -1.1000   47.6300 O.3       1 SER1        0.0000 
     15 OG          9.4600   -2.5600   47.9500 O.3       1 SER1        0.0000 
     16 OG          9.5900   -4.0200   48.2700 O.3       1 SER1        0.0000 
     17 OG          9.5400   -2.1000   50.0200 O.3       1 SER1        0.0000 
     18 OG          9.6700   -3.5600   50.3400 O.3       1 SER1        0.0000 
     19 OG          9.0400    6.1200   52.5600 O.3       1 SER1        0.0000 
     20 OG          9.3100    3.2000   53.2000 O.3       1 SER1        0.0000 
     21 OG         10.0600    5.9700   51.4700 O.3       1 SER1        0.0000 
     22 OG          9.3900    3.6600   55.2700 O.3       1 SER1        0.0000 
     23 OG         10.2700    4.9700   53.8600 O.3       1 SER1        0.0000 
     24 N           0.5700    3.0800   49.2200 N.am      2 ALA2        0.0000 
     25 N           1.5800    2.9400   48.1200 N.am      2 ALA2        0.0000 
     26 O           0.3800    6.4600   50.6500 O.2       2 ALA2        0.0000 
     27 N           0.5200    5.0000   50.9700 N.am      2 ALA2        0.0000 
     28 N           1.6600    3.4000   50.1900 N.am      2 ALA2        0.0000 
     29 N           1.8000    1.9400   50.5100 N.am      2 ALA2        0.0000 
     30 N           1.9300    0.4800   50.8300 N.am      2 ALA2        0.0000 
     31 N           2.6800    3.2500   49.1000 N.am      2 ALA2        0.0000 
     32 N           2.8100    1.7900   49.4200 N.am      2 ALA2        0.0000 
     33 O           1.4800    6.7700   51.6200 O.2       2 ALA2        0.0000 
     34 N           3.9100    2.1000   50.3900 N.am      2 ALA2        0.0000 
     35 N           4.0400    0.6400   50.7100 N.am      2 ALA2        0.0000 
     36 N           4.1700   -0.8200   51.0300 N.am      2 ALA2        0.0000 
     37 N           4.9200    1.9500   49.3000 N.am      2 ALA2        0.0000 
     38 N           5.1900   -0.9700   49.9400 N.am      2 ALA2        0.0000 
     39 O           5.8100    3.2700   47.8900 O.2       2 ALA2        0.0000 
     40 N           5.9400    1.8100   48.2100 N.am      2 ALA2        0.0000 
     41 O           6.6900    4.5800   46.4700 O.2       2 ALA2        0.0000 
     42 N           7.0900    0.2000   47.4300 N.am      2 ALA2        0.0000 
     43 N           6.1500    0.8000   50.5900 N.am      2 ALA2        0.0000 
     44 N           7.1700    0.6600   49.5000 N.am      2 ALA2        0.0000 
     45 O           7.7900    4.8900   47.4500 O.2       2 ALA2        0.0000 
     46 O           7.9200    3.4300   47.7700 O.2       2 ALA2        0.0000 
     47 O           8.0500    1.9700   48.0900 O.2       2 ALA2        0.0000 
     48 O           8.8000    4.7400   46.3600 O.2       2 ALA2        0.0000 
     49 O           8.9300    3.2800   46.6800 O.2       2 ALA2        0.0000 
     50 O           9.9500    3.1300   45.5800 O.2       2 ALA2        0.0000 
     51 N           9.8000   -5.0200   50.6600 N.am      2 ALA2        0.0000 
     52 NZ          2.0100    0.9400   52.9000 N.4       3 LYS4        0.0000 
     53 NZ          3.1000    1.2500   53.8800 N.4       3 LYS4        0.0000 
     54 CZ          2.6300    5.1700   50.8500 C.ar      4 PHE5        0.0000 
     55 CZ          7.5800    5.8900   45.0600 C.ar      4 PHE5        0.0000 
     56 CZ          3.9900    2.5600   52.4600 C.ar      4 PHE5        0.0000 
     57 CZ          4.7400    5.3300   50.7300 C.ar      4 PHE5        0.0000 
     58 CZ          4.8700    3.8700   51.0500 C.ar      4 PHE5        0.0000 
     59 CZ          5.0000    2.4100   51.3700 C.ar      4 PHE5        0.0000 
     60 CZ          5.8900    3.7200   49.9600 C.ar      4 PHE5        0.0000 
     61 CZ          6.0200    2.2600   50.2800 C.ar      4 PHE5        0.0000 
     62 CZ          8.6700    6.2000   46.0400 C.ar      4 PHE5        0.0000 
     63 CZ          9.0700    1.8200   46.9900 C.ar      4 PHE5        0.0000 
     64 CZ          9.2000    0.3600   47.3100 C.ar      4 PHE5        0.0000 
     65 CZ         10.0800    1.6700   45.9000 C.ar      4 PHE5        0.0000 
     66 CZ         10.2100    0.2100   46.2200 C.ar      4 PHE5        0.0000 
     67 CZ          6.9800    4.0400   50.9300 C.ar      4 PHE5        0.0000 
     68 CZ          7.1100    2.5800   51.2500 C.ar      4 PHE5        0.0000 
     69 CZ          8.0800    4.3500   51.9100 C.ar      4 PHE5        0.0000 
     70 CZ          8.2100    2.8900   52.2300 C.ar      4 PHE5        0.0000 
     71 CZ          9.1700    4.6600   52.8800 C.ar      4 PHE5        0.0000 
     72 CA          0.4400    4.5400   48.9000 C.3       5 GLY6        0.0000 
     73 CA          1.4500    4.4000   47.8000 C.3       5 GLY6        0.0000 
     74 CA          0.6500    3.5400   51.2900 C.3       5 GLY6        0.0000 
     75 CA          2.5500    4.7100   48.7800 C.3       5 GLY6        0.0000 
     76 CA          3.7000    3.1000   48.0000 C.3       5 GLY6        0.0000 
     77 CA          4.7100    2.9500   46.9100 C.3       5 GLY6        0.0000 
     78 CA          1.6100    5.3200   51.9400 C.3       5 GLY6        0.0000 
     79 CA          1.8700    2.4000   52.5800 C.3       5 GLY6        0.0000 
     80 CA          2.7600    3.7100   51.1700 C.3       5 GLY6        0.0000 
     81 CA          3.1500   -0.6700   52.1200 C.3       5 GLY6        0.0000 
     82 CA          3.6400    5.0200   49.7500 C.3       5 GLY6        0.0000 
     83 CA          4.6600    4.8700   48.6600 C.3       5 GLY6        0.0000 
     84 CA          5.6800    4.7200   47.5700 C.3       5 GLY6        0.0000 
     85 CA          6.5600    6.0400   46.1600 C.3       5 GLY6        0.0000 
     86 CA          5.7600    5.1800   49.6400 C.3       5 GLY6        0.0000 
     87 CA          6.7700    5.0400   48.5400 C.3       5 GLY6        0.0000 
     88 CA          7.6600    6.3500   47.1300 C.3       5 GLY6        0.0000 
     89 CA          6.8500    5.5000   50.6100 C.3       5 GLY6        0.0000 
     90 CA          7.8700    5.3500   49.5200 C.3       5 GLY6        0.0000 
     91 CA          8.7500    6.6600   48.1100 C.3       5 GLY6        0.0000 
     92 CA          8.8800    5.2000   48.4300 C.3       5 GLY6        0.0000 
     93 CA          7.9500    5.8100   51.5900 C.3       5 GLY6        0.0000 
     94 CA          8.9600    5.6600   50.5000 C.3       5 GLY6        0.0000 
     95 CA          9.8500    6.9700   49.0800 C.3       5 GLY6        0.0000 
     96 CA          9.9800    5.5100   49.4000 C.3       5 GLY6        0.0000 
     97 DU          1.5300    4.8600   49.8700 H         6 CUB7        0.0000 
     98 DU          2.8900    2.2500   51.4900 H         6 CUB7        0.0000 
     99 DU          3.0200    0.7900   51.8100 H         6 CUB7        0.0000 
    100 DU          3.7800    3.5600   50.0700 H         6 CUB7        0.0000 
    101 DU          4.7900    3.4100   48.9800 H         6 CUB7        0.0000 
    102 DU          6.9000    3.5800   48.8600 H         6 CUB7        0.0000 
    103 DU          7.0300    2.1200   49.1800 H         6 CUB7        0.0000 
    104 DU          8.1800    0.5100   48.4100 H         6 CUB7        0.0000 
    105 DU          8.0000    3.8900   49.8400 H         6 CUB7        0.0000 
    106 DU          8.1300    2.4300   50.1600 H         6 CUB7        0.0000 
    107 DU          8.2600    0.9700   50.4800 H         6 CUB7        0.0000 
    108 DU          9.0100    3.7400   48.7400 H         6 CUB7        0.0000 
    109 DU          9.1500    2.2800   49.0600 H         6 CUB7        0.0000 
    110 DU          9.4100   -0.6400   49.7000 H         6 CUB7        0.0000 
    111 DU          9.9000    5.0500   47.3300 H         6 CUB7        0.0000 
    112 DU         10.0300    3.5900   47.6500 H         6 CUB7        0.0000 
    113 DU         10.1600    2.1300   47.9700 H         6 CUB7        0.0000 
    114 DU         10.2900    0.6700   48.2900 H         6 CUB7        0.0000 
    115 DU         10.4200   -0.7900   48.6100 H         6 CUB7        0.0000 
    116 DU         10.5600   -2.2500   48.9300 H         6 CUB7        0.0000 
    117 DU          9.0900    4.2000   50.8100 H         6 CUB7        0.0000 
    118 DU          9.2300    2.7400   51.1300 H         6 CUB7        0.0000 
    119 DU         11.1300    3.9100   48.6300 H         6 CUB7        0.0000 
    120 DU         11.2600    2.4500   48.9500 H         6 CUB7        0.0000 
    121 DU         11.5200   -0.4700   49.5800 H         6 CUB7        0.0000 
    122 DU         10.1900    4.5100   51.7900 H         6 CUB7        0.0000 
    123 DU         10.3200    3.0500   52.1100 H         6 CUB7        0.0000 
    124 DU         11.2100    4.3700   50.7000 H         6 CUB7        0.0000 
    125 DU         11.3400    2.9100   51.0200 H         6 CUB7        0.0000 
    126 DU         11.4700    1.4500   51.3300 H         6 CUB7        0.0000 
    127 DU         10.4000    3.5100   54.1800 H         6 CUB7        0.0000 
    128 DU         11.4200    3.3600   53.0800 H         6 CUB7        0.0000 
@<TRIPOS>BOND
@<TRIPOS>SUBSTRUCTURE
     1 SER1        1 GROUP   
     2 ALA2       24 GROUP   
     3 LYS4       52 GROUP   
     4 PHE5       54 GROUP   
     5 GLY6       72 GROUP   
     6 CUB7       97 GROUP   
@<TRIPOS>SET

