#    Name: 5w7k_2_SAH
#    Modification time : Fri May 22 19:15:42 2020

@<TRIPOS>MOLECULE
5w7k_2_SAH
   26    28     1     0     0
SMALL
NO_CHARGES


@<TRIPOS>ATOM
      1 N         -15.5850    8.4900   11.8620 N.4       1 SAH301      0.0000 
      2 CA        -15.8470    7.1540   12.4030 C.3       1 SAH301      0.0000 
      3 CB        -16.3040    6.1840   11.3070 C.3       1 SAH301      0.0000 
      4 CG        -16.7050    4.7830   11.7840 C.3       1 SAH301      0.0000 
      5 SD        -18.2780    4.2230   11.0760 S.3       1 SAH301      0.0000 
      6 C         -14.6010    6.6100   13.1030 C.2       1 SAH301      0.0000 
      7 O         -13.8330    5.7990   12.5430 O.co2     1 SAH301      0.0000 
      8 OXT       -14.3480    6.9850   14.2560 O.co2     1 SAH301      0.0000 
      9 C5'       -17.6160    2.6410   10.4860 C.3       1 SAH301      0.0000 
     10 C4'       -16.7970    2.7790    9.2020 C.3       1 SAH301      0.0000 
     11 O4'       -16.2780    1.5170    8.8310 O.3       1 SAH301      0.0000 
     12 C3'       -17.6180    3.2830    8.0180 C.3       1 SAH301      0.0000 
     13 O3'       -17.0750    4.5050    7.5630 O.3       1 SAH301      0.0000 
     14 C2'       -17.4560    2.2400    6.9280 C.3       1 SAH301      0.0000 
     15 O2'       -17.0610    2.8510    5.7210 O.3       1 SAH301      0.0000 
     16 C1'       -16.3240    1.3640    7.4250 C.3       1 SAH301      0.0000 
     17 N9        -16.4730   -0.0620    7.0930 N.pl3     1 SAH301      0.0000 
     18 C8        -17.6110   -0.8260    7.0540 C.2       1 SAH301      0.0000 
     19 N7        -17.2470   -2.0930    6.7040 N.2       1 SAH301      0.0000 
     20 C5        -15.9060   -2.1410    6.5260 C.ar      1 SAH301      0.0000 
     21 C6        -15.0140   -3.1500    6.1680 C.ar      1 SAH301      0.0000 
     22 N6        -15.4250   -4.3930    5.9260 N.pl3     1 SAH301      0.0000 
     23 N1        -13.6690   -2.8630    6.0700 N.ar      1 SAH301      0.0000 
     24 C2        -13.2030   -1.5970    6.3140 C.ar      1 SAH301      0.0000 
     25 N3        -14.0940   -0.6040    6.6520 N.ar      1 SAH301      0.0000 
     26 C4        -15.4140   -0.8680    6.7670 C.ar      1 SAH301      0.0000 
@<TRIPOS>BOND
     1    1    2 1    
     2    2    3 1    
     3    2    6 1    
     4    3    4 1    
     5    4    5 1    
     6    5    9 1    
     7    6    7 ar   
     8    6    8 ar   
     9    9   10 1    
    10   10   11 1    
    11   10   12 1    
    12   11   16 1    
    13   12   13 1    
    14   12   14 1    
    15   14   15 1    
    16   14   16 1    
    17   16   17 1    
    18   17   18 1    
    19   17   26 1    
    20   18   19 2    
    21   19   20 1    
    22   20   21 ar   
    23   20   26 ar   
    24   21   22 1    
    25   21   23 ar   
    26   23   24 ar   
    27   24   25 ar   
    28   25   26 ar   
@<TRIPOS>SUBSTRUCTURE
     1 SAH301      1 GROUP   
@<TRIPOS>SET

