#    Name: 5w7k_1_SAH_CAVITY_N1_4
#    Modification time : Fri May 22 19:15:39 2020

@<TRIPOS>MOLECULE
5w7k_1_SAH_CAVITY_N1_4
   57     0     6     0     0
SMALL
NO_CHARGES


@<TRIPOS>ATOM
      1 OG          1.4000    6.3200   49.5500 O.3       1 SER1        0.0000 
      2 OG          2.5000    6.6300   50.5300 O.3       1 SER1        0.0000 
      3 OG          3.5100    6.4800   49.4400 O.3       1 SER1        0.0000 
      4 OG          4.1200    1.1000   52.7800 O.3       1 SER1        0.0000 
      5 OG          4.2500   -0.3600   53.1000 O.3       1 SER1        0.0000 
      6 OG          5.1300    0.9500   51.6900 O.3       1 SER1        0.0000 
      7 OG          5.2700   -0.5100   52.0100 O.3       1 SER1        0.0000 
      8 N           0.5700    3.0800   49.2200 N.am      2 ALA2        0.0000 
      9 N           1.5800    2.9400   48.1200 N.am      2 ALA2        0.0000 
     10 O           0.3800    6.4600   50.6500 O.2       2 ALA2        0.0000 
     11 N           0.5200    5.0000   50.9700 N.am      2 ALA2        0.0000 
     12 N           1.6600    3.4000   50.1900 N.am      2 ALA2        0.0000 
     13 N           1.8000    1.9400   50.5100 N.am      2 ALA2        0.0000 
     14 N           1.9300    0.4800   50.8300 N.am      2 ALA2        0.0000 
     15 N           2.6800    3.2500   49.1000 N.am      2 ALA2        0.0000 
     16 N           2.8100    1.7900   49.4200 N.am      2 ALA2        0.0000 
     17 O           1.4800    6.7700   51.6200 O.2       2 ALA2        0.0000 
     18 N           3.9100    2.1000   50.3900 N.am      2 ALA2        0.0000 
     19 N           4.0400    0.6400   50.7100 N.am      2 ALA2        0.0000 
     20 N           4.1700   -0.8200   51.0300 N.am      2 ALA2        0.0000 
     21 N           4.9200    1.9500   49.3000 N.am      2 ALA2        0.0000 
     22 N           5.1900   -0.9700   49.9400 N.am      2 ALA2        0.0000 
     23 O           5.8100    3.2700   47.8900 O.2       2 ALA2        0.0000 
     24 N           5.9400    1.8100   48.2100 N.am      2 ALA2        0.0000 
     25 N           6.1500    0.8000   50.5900 N.am      2 ALA2        0.0000 
     26 N           7.1700    0.6600   49.5000 N.am      2 ALA2        0.0000 
     27 NZ          2.0100    0.9400   52.9000 N.4       3 LYS4        0.0000 
     28 NZ          3.1000    1.2500   53.8800 N.4       3 LYS4        0.0000 
     29 CZ          2.6300    5.1700   50.8500 C.ar      4 PHE5        0.0000 
     30 CZ          3.9900    2.5600   52.4600 C.ar      4 PHE5        0.0000 
     31 CZ          4.7400    5.3300   50.7300 C.ar      4 PHE5        0.0000 
     32 CZ          4.8700    3.8700   51.0500 C.ar      4 PHE5        0.0000 
     33 CZ          5.0000    2.4100   51.3700 C.ar      4 PHE5        0.0000 
     34 CZ          5.8900    3.7200   49.9600 C.ar      4 PHE5        0.0000 
     35 CZ          6.0200    2.2600   50.2800 C.ar      4 PHE5        0.0000 
     36 CZ          6.9800    4.0400   50.9300 C.ar      4 PHE5        0.0000 
     37 CZ          7.1100    2.5800   51.2500 C.ar      4 PHE5        0.0000 
     38 CA          0.4400    4.5400   48.9000 C.3       5 GLY6        0.0000 
     39 CA          1.4500    4.4000   47.8000 C.3       5 GLY6        0.0000 
     40 CA          0.6500    3.5400   51.2900 C.3       5 GLY6        0.0000 
     41 CA          2.5500    4.7100   48.7800 C.3       5 GLY6        0.0000 
     42 CA          3.7000    3.1000   48.0000 C.3       5 GLY6        0.0000 
     43 CA          4.7100    2.9500   46.9100 C.3       5 GLY6        0.0000 
     44 CA          1.6100    5.3200   51.9400 C.3       5 GLY6        0.0000 
     45 CA          1.8700    2.4000   52.5800 C.3       5 GLY6        0.0000 
     46 CA          2.7600    3.7100   51.1700 C.3       5 GLY6        0.0000 
     47 CA          3.1500   -0.6700   52.1200 C.3       5 GLY6        0.0000 
     48 CA          3.6400    5.0200   49.7500 C.3       5 GLY6        0.0000 
     49 CA          4.6600    4.8700   48.6600 C.3       5 GLY6        0.0000 
     50 CA          5.7600    5.1800   49.6400 C.3       5 GLY6        0.0000 
     51 DU          1.5300    4.8600   49.8700 H         6 CUB7        0.0000 
     52 DU          2.8900    2.2500   51.4900 H         6 CUB7        0.0000 
     53 DU          3.0200    0.7900   51.8100 H         6 CUB7        0.0000 
     54 DU          3.7800    3.5600   50.0700 H         6 CUB7        0.0000 
     55 DU          4.7900    3.4100   48.9800 H         6 CUB7        0.0000 
     56 DU          6.9000    3.5800   48.8600 H         6 CUB7        0.0000 
     57 DU          7.0300    2.1200   49.1800 H         6 CUB7        0.0000 
@<TRIPOS>BOND
@<TRIPOS>SUBSTRUCTURE
     1 SER1        1 GROUP   
     2 ALA2        8 GROUP   
     3 LYS4       27 GROUP   
     4 PHE5       29 GROUP   
     5 GLY6       38 GROUP   
     6 CUB7       51 GROUP   
@<TRIPOS>SET

