#    Name: 6fcq_1_BUL_CAVITY_N1_8
#    Modification time : Fri May 22 19:30:13 2020

@<TRIPOS>MOLECULE
6fcq_1_BUL_CAVITY_N1_8
   70     0     5     0     0
SMALL
NO_CHARGES


@<TRIPOS>ATOM
      1 OG         64.3500  -23.4500  -23.9500 O.3       1 SER1        0.0000 
      2 OG         65.5000  -24.4100  -23.9400 O.3       1 SER1        0.0000 
      3 OG         65.3000  -24.6400  -22.4800 O.3       1 SER1        0.0000 
      4 OG         65.2900  -22.3200  -23.6400 O.3       1 SER1        0.0000 
      5 OG         66.4400  -23.2800  -23.6400 O.3       1 SER1        0.0000 
      6 OG         64.0600  -16.7600  -18.3200 O.3       1 SER1        0.0000 
      7 OG         63.8600  -16.9900  -16.8600 O.3       1 SER1        0.0000 
      8 OG         64.8000  -15.8600  -16.5500 O.3       1 SER1        0.0000 
      9 OG         66.1500  -16.5900  -18.0100 O.3       1 SER1        0.0000 
     10 OG         65.7400  -14.7300  -16.2400 O.3       1 SER1        0.0000 
     11 N          63.0000  -22.7200  -22.4800 N.am      2 ALA2        0.0000 
     12 N          64.1500  -23.6800  -22.4800 N.am      2 ALA2        0.0000 
     13 N          62.3900  -21.1000  -19.2400 N.am      2 ALA2        0.0000 
     14 N          63.7400  -21.8300  -20.7100 N.am      2 ALA2        0.0000 
     15 N          65.0900  -22.5500  -22.1700 N.am      2 ALA2        0.0000 
     16 N          64.8900  -22.7900  -20.7000 N.am      2 ALA2        0.0000 
     17 O          66.2400  -23.5200  -22.1700 O.2       2 ALA2        0.0000 
     18 N          66.0400  -23.7500  -20.7000 N.am      2 ALA2        0.0000 
     19 O          67.4000  -24.4800  -22.1700 O.2       2 ALA2        0.0000 
     20 O          61.9800  -19.2500  -17.4700 O.2       2 ALA2        0.0000 
     21 N          63.5300  -19.7400  -20.4000 N.am      2 ALA2        0.0000 
     22 N          63.3300  -19.9700  -18.9300 N.am      2 ALA2        0.0000 
     23 O          63.1300  -20.2100  -17.4700 O.2       2 ALA2        0.0000 
     24 O          62.9300  -20.4400  -16.0000 O.2       2 ALA2        0.0000 
     25 N          64.4800  -20.9300  -18.9300 N.am      2 ALA2        0.0000 
     26 N          64.2800  -21.1700  -17.4600 N.am      2 ALA2        0.0000 
     27 N          65.8300  -21.6600  -20.4000 N.am      2 ALA2        0.0000 
     28 N          66.9800  -22.6200  -20.4000 N.am      2 ALA2        0.0000 
     29 O          61.5700  -17.3900  -15.7000 O.2       2 ALA2        0.0000 
     30 O          61.3700  -17.6300  -14.2300 O.2       2 ALA2        0.0000 
     31 O          62.9200  -18.1200  -17.1600 O.2       2 ALA2        0.0000 
     32 O          62.7200  -18.3500  -15.6900 O.2       2 ALA2        0.0000 
     33 N          64.0700  -19.0800  -17.1600 N.am      2 ALA2        0.0000 
     34 N          63.8700  -19.3100  -15.6900 N.am      2 ALA2        0.0000 
     35 N          65.4200  -19.8100  -18.6300 N.am      2 ALA2        0.0000 
     36 N          65.2200  -20.0400  -17.1600 N.am      2 ALA2        0.0000 
     37 N          66.7700  -20.5300  -20.0900 N.am      2 ALA2        0.0000 
     38 N          67.9200  -21.4900  -20.0900 N.am      2 ALA2        0.0000 
     39 O          62.7100  -16.0300  -16.8600 O.2       2 ALA2        0.0000 
     40 O          62.5100  -16.2600  -15.3900 O.2       2 ALA2        0.0000 
     41 O          62.3100  -16.5000  -13.9200 O.2       2 ALA2        0.0000 
     42 N          67.5100  -19.6400  -18.3200 N.am      2 ALA2        0.0000 
     43 O          62.3000  -14.1800  -15.0900 O.2       2 ALA2        0.0000 
     44 NZ         65.0100  -17.9500  -16.8500 N.4       3 LYS4        0.0000 
     45 NZ         64.8100  -18.1800  -15.3800 N.4       3 LYS4        0.0000 
     46 NZ         66.1600  -18.9100  -16.8500 N.4       3 LYS4        0.0000 
     47 NZ         65.9500  -16.8200  -16.5500 N.4       3 LYS4        0.0000 
     48 NZ         65.7500  -17.0600  -15.0800 N.4       3 LYS4        0.0000 
     49 NZ         67.1000  -17.7800  -16.5400 N.4       3 LYS4        0.0000 
     50 CA         66.6500  -25.3700  -23.9400 C.3       4 GLY6        0.0000 
     51 CA         63.9400  -21.5900  -22.1700 C.3       4 GLY6        0.0000 
     52 CA         64.8800  -20.4700  -21.8700 C.3       4 GLY6        0.0000 
     53 CA         66.2300  -21.1900  -23.3300 C.3       4 GLY6        0.0000 
     54 CA         66.0300  -21.4300  -21.8700 C.3       4 GLY6        0.0000 
     55 CA         61.7700  -17.1600  -17.1600 C.3       4 GLY6        0.0000 
     56 CA         63.1200  -17.8900  -18.6300 C.3       4 GLY6        0.0000 
     57 CA         64.4700  -18.6100  -20.1000 C.3       4 GLY6        0.0000 
     58 CA         64.2700  -18.8500  -18.6300 C.3       4 GLY6        0.0000 
     59 CA         65.6200  -19.5700  -20.0900 C.3       4 GLY6        0.0000 
     60 CA         66.9700  -20.3000  -21.5600 C.3       4 GLY6        0.0000 
     61 CA         65.4100  -17.4800  -19.7900 C.3       4 GLY6        0.0000 
     62 CA         66.5600  -18.4400  -19.7900 C.3       4 GLY6        0.0000 
     63 DU         64.6800  -20.7000  -20.4000 H         5 CUB7        0.0000 
     64 DU         67.1800  -22.3900  -21.8600 H         5 CUB7        0.0000 
     65 DU         63.6600  -17.2200  -15.3900 H         5 CUB7        0.0000 
     66 DU         65.2100  -17.7200  -18.3200 H         5 CUB7        0.0000 
     67 DU         66.3600  -18.6800  -18.3200 H         5 CUB7        0.0000 
     68 DU         64.6000  -16.1000  -15.0800 H         5 CUB7        0.0000 
     69 DU         64.4000  -16.3300  -13.6100 H         5 CUB7        0.0000 
     70 DU         67.3000  -17.5500  -18.0100 H         5 CUB7        0.0000 
@<TRIPOS>BOND
@<TRIPOS>SUBSTRUCTURE
     1 SER1        1 GROUP   
     2 ALA2       11 GROUP   
     3 LYS4       44 GROUP   
     4 GLY6       50 GROUP   
     5 CUB7       63 GROUP   
@<TRIPOS>SET

