#    Name: 6fcq_1_BUL
#    Modification time : Fri May 22 19:30:11 2020

@<TRIPOS>MOLECULE
6fcq_1_BUL
   35    36     1     0     0
SMALL
NO_CHARGES


@<TRIPOS>ATOM
      1 O1         66.5310  -21.4850  -21.7590 O.3       1 BUL701      0.0000 
      2 C2         65.2540  -21.8140  -21.2220 C.3       1 BUL701      0.0000 
      3 C3         64.4200  -22.5300  -22.2610 C.3       1 BUL701      0.0000 
      4 C4         65.1430  -23.8250  -22.6330 C.3       1 BUL701      0.0000 
      5 C5         66.5240  -23.4580  -23.1610 C.3       1 BUL701      0.0000 
      6 C6         67.3020  -22.6210  -22.1450 C.3       1 BUL701      0.0000 
      7 N7         63.4660  -18.7960  -18.1470 N.4       1 BUL701      0.0000 
      8 C8         64.8790  -18.5430  -17.9560 C.3       1 BUL701      0.0000 
      9 C9         65.5260  -19.2410  -19.1410 C.3       1 BUL701      0.0000 
     10 C10        64.5430  -20.3480  -19.4830 C.3       1 BUL701      0.0000 
     11 C11        63.1630  -19.8990  -19.0340 C.3       1 BUL701      0.0000 
     12 C12        68.6360  -22.0790  -22.6570 C.3       1 BUL701      0.0000 
     13 O13        69.0970  -22.7750  -23.8180 O.3       1 BUL701      0.0000 
     14 O14        67.2420  -24.6520  -23.4440 O.3       1 BUL701      0.0000 
     15 O15        64.4800  -24.5480  -23.6680 O.3       1 BUL701      0.0000 
     16 N16        63.0480  -22.5880  -21.7560 N.am      1 BUL701      0.0000 
     17 C17        62.0430  -22.9640  -22.5210 C.2       1 BUL701      0.0000 
     18 O18        62.2500  -23.4290  -23.6180 O.2       1 BUL701      0.0000 
     19 C19        60.6390  -22.7640  -22.0290 C.3       1 BUL701      0.0000 
     20 O20        64.5530  -20.6200  -20.8740 O.3       1 BUL701      0.0000 
     21 C21        62.3850  -21.0260  -18.3480 C.3       1 BUL701      0.0000 
     22 O22        62.6770  -21.0390  -16.9490 O.3       1 BUL701      0.0000 
     23 C23        65.2470  -17.0920  -17.8870 C.2       1 BUL701      0.0000 
     24 O24        64.8640  -16.3350  -18.7640 O.2       1 BUL701      0.0000 
     25 N25        65.9890  -16.7100  -16.8440 N.am      1 BUL701      0.0000 
     26 C26        66.4000  -15.3350  -16.6420 C.3       1 BUL701      0.0000 
     27 C27        67.4540  -15.2060  -15.5520 C.3       1 BUL701      0.0000 
     28 S28        68.0390  -13.6510  -15.4630 S.o2      1 BUL701      0.0000 
     29 O29        67.1590  -12.7090  -16.1020 O.co2     1 BUL701      0.0000 
     30 O30        68.1650  -13.3000  -14.0750 O.co2     1 BUL701      0.0000 
     31 O31        69.5020  -13.5980  -16.1970 O.co2     1 BUL701      0.0000 
     32 S32        67.4150  -25.2060  -24.8680 S.o2      1 BUL701      0.0000 
     33 O33        66.1280  -25.3600  -25.4940 O.co2     1 BUL701      0.0000 
     34 O34        68.2420  -24.3010  -25.6210 O.co2     1 BUL701      0.0000 
     35 O35        68.1660  -26.6580  -24.8170 O.co2     1 BUL701      0.0000 
@<TRIPOS>BOND
     1    1    2 1    
     2    1    6 1    
     3    2    3 1    
     4    2   20 1    
     5    3    4 1    
     6    3   16 1    
     7    4    5 1    
     8    4   15 1    
     9    5    6 1    
    10    5   14 1    
    11    6   12 1    
    12    7    8 1    
    13    7   11 1    
    14    8    9 1    
    15    8   23 1    
    16    9   10 1    
    17   10   11 1    
    18   10   20 1    
    19   11   21 1    
    20   12   13 1    
    21   14   32 1    
    22   16   17 am   
    23   17   18 2    
    24   17   19 1    
    25   21   22 1    
    26   23   24 2    
    27   23   25 am   
    28   25   26 1    
    29   26   27 1    
    30   27   28 1    
    31   28   29 ar   
    32   28   30 ar   
    33   28   31 ar   
    34   32   33 ar   
    35   32   34 ar   
    36   32   35 ar   
@<TRIPOS>SUBSTRUCTURE
     1 BUL701      1 GROUP   
@<TRIPOS>SET

