#    Name: 6gar_4_FAD
#    Modification time : Fri May 22 19:27:08 2020

@<TRIPOS>MOLECULE
6gar_4_FAD
   53    58     1     0     1
SMALL
NO_CHARGES


@<TRIPOS>ATOM
      1 PA         -1.2000   19.9210   38.7320 P.3       1 FAD401      0.0000 
      2 O1A        -0.5860   21.1100   38.1320 O.co2     1 FAD401      0.0000 
      3 O2A        -0.5850   19.3560   40.0270 O.co2     1 FAD401      0.0000 
      4 O5B        -2.7580   20.2120   39.0040 O.3       1 FAD401      0.0000 
      5 C5B        -3.5150   19.4300   39.9560 C.3       1 FAD401      0.0000 
      6 C4B        -4.5830   20.3110   40.5510 C.3       1 FAD401      0.0000 
      7 O4B        -5.6580   19.5010   41.0730 O.3       1 FAD401      0.0000 
      8 C3B        -4.1150   21.2190   41.6920 C.3       1 FAD401      0.0000 
      9 O3B        -4.5290   22.5660   41.4990 O.3       1 FAD401      0.0000 
     10 C2B        -4.7340   20.5810   42.9380 C.3       1 FAD401      0.0000 
     11 O2B        -5.1010   21.5600   43.8900 O.3       1 FAD401      0.0000 
     12 C1B        -6.0000   19.9500   42.3710 C.3       1 FAD401      0.0000 
     13 N9A        -6.4990   18.8120   43.1460 N.pl3     1 FAD401      0.0000 
     14 C8A        -5.8090   17.6750   43.4740 C.2       1 FAD401      0.0000 
     15 N7A        -6.5030   16.8120   44.1790 N.2       1 FAD401      0.0000 
     16 C5A        -7.7350   17.4230   44.3260 C.ar      1 FAD401      0.0000 
     17 C6A        -8.9160   17.0320   44.9880 C.ar      1 FAD401      0.0000 
     18 N6A        -9.0580   15.8730   45.6350 N.pl3     1 FAD401      0.0000 
     19 N1A        -9.9620   17.8890   44.9620 N.ar      1 FAD401      0.0000 
     20 C2A        -9.8280   19.0510   44.3150 C.ar      1 FAD401      0.0000 
     21 N3A        -8.7640   19.5290   43.6670 N.ar      1 FAD401      0.0000 
     22 C4A        -7.7450   18.6620   43.7070 C.ar      1 FAD401      0.0000 
     23 N1          6.3720   21.1900   33.0110 N.2       1 FAD401      0.0000 
     24 C2          6.7180   21.8450   31.8690 C.2       1 FAD401      0.0000 
     25 O2          6.2310   21.5350   30.7780 O.2       1 FAD401      0.0000 
     26 N3          7.6200   22.8830   31.9140 N.am      1 FAD401      0.0000 
     27 C4          8.2340   23.3520   33.0210 C.2       1 FAD401      0.0000 
     28 O4          9.0250   24.2910   32.9370 O.2       1 FAD401      0.0000 
     29 C4X         7.8570   22.6550   34.2410 C.2       1 FAD401      0.0000 
     30 N5          8.3850   23.0560   35.3400 N.2       1 FAD401      0.0000 
     31 C5X         8.0660   22.3900   36.4880 C.ar      1 FAD401      0.0000 
     32 C6          8.6700   22.8400   37.6540 C.ar      1 FAD401      0.0000 
     33 C7          8.3870   22.2520   38.8720 C.ar      1 FAD401      0.0000 
     34 C7M         9.0670   22.7720   40.1140 C.3       1 FAD401      0.0000 
     35 C8          7.4850   21.1750   38.9280 C.ar      1 FAD401      0.0000 
     36 C8M         7.1780   20.5040   40.2370 C.3       1 FAD401      0.0000 
     37 C9          6.8870   20.7090   37.7540 C.ar      1 FAD401      0.0000 
     38 C9A         7.1600   21.3030   36.5240 C.ar      1 FAD401      0.0000 
     39 N10         6.4820   20.9680   35.3130 N.pl3     1 FAD401      0.0000 
     40 C10         6.9070   21.5750   34.1310 C.2       1 FAD401      0.0000 
     41 C1'         5.7080   19.6810   35.1570 C.3       1 FAD401      0.0000 
     42 C2'         4.2120   19.5330   35.5340 C.3       1 FAD401      0.0000 
     43 O2'         3.5640   18.7530   34.5220 O.3       1 FAD401      0.0000 
     44 C3'         3.4570   20.8450   35.5920 C.3       1 FAD401      0.0000 
     45 O3'         4.1390   21.5410   36.6300 O.3       1 FAD401      0.0000 
     46 C4'         1.9200   20.6880   35.8520 C.3       1 FAD401      0.0000 
     47 O4'         1.6350   21.0300   37.2020 O.3       1 FAD401      0.0000 
     48 C5'         1.1540   19.3800   35.6620 C.3       1 FAD401      0.0000 
     49 O5'        -0.2590   19.6750   35.4580 O.3       1 FAD401      0.0000 
     50 P          -1.4600   18.8280   36.1210 P.3       1 FAD401      0.0000 
     51 O1P        -2.7570   19.6070   35.8820 O.co2     1 FAD401      0.0000 
     52 O2P        -1.7080   17.4410   35.5960 O.co2     1 FAD401      0.0000 
     53 O3P        -1.2250   18.7470   37.6740 O.3       1 FAD401      0.0000 
@<TRIPOS>BOND
     1    1    2 ar   
     2    1    3 ar   
     3    1    4 1    
     4    1   53 1    
     5    4    5 1    
     6    5    6 1    
     7    6    7 1    
     8    6    8 1    
     9    7   12 1    
    10    8    9 1    
    11    8   10 1    
    12   10   11 1    
    13   10   12 1    
    14   12   13 1    
    15   13   14 1    
    16   13   22 1    
    17   14   15 2    
    18   15   16 1    
    19   16   17 ar   
    20   16   22 ar   
    21   17   18 1    
    22   17   19 ar   
    23   19   20 ar   
    24   20   21 ar   
    25   21   22 ar   
    26   23   24 1    
    27   23   40 2    
    28   24   25 2    
    29   24   26 am   
    30   26   27 am   
    31   27   28 2    
    32   27   29 1    
    33   29   30 2    
    34   29   40 1    
    35   30   31 1    
    36   31   32 ar   
    37   31   38 ar   
    38   32   33 ar   
    39   33   34 1    
    40   33   35 ar   
    41   35   36 1    
    42   35   37 ar   
    43   37   38 ar   
    44   38   39 1    
    45   39   40 1    
    46   39   41 1    
    47   41   42 1    
    48   42   43 1    
    49   42   44 1    
    50   44   45 1    
    51   44   46 1    
    52   46   47 1    
    53   46   48 1    
    54   48   49 1    
    55   49   50 1    
    56   50   51 ar   
    57   50   52 ar   
    58   50   53 1    
@<TRIPOS>SUBSTRUCTURE
     1 FAD401      1 GROUP   
@<TRIPOS>SET
ATOM$ORANGE STATIC     ATOMS   COLORGROUP SYSTEM 
54 5 5 6 6 8 8 10 10 12 12 14 14 16 16 17 17 20 \
20 22 22 24 24 27 27 29 29 31 31 32 32 33 33 34 34 35 \
35 36 36 37 37 38 38 40 40 41 41 42 42 44 44 46 46 48 \
48 

