#    Name: 6gar_3_FAD
#    Modification time : Fri May 22 19:26:54 2020

@<TRIPOS>MOLECULE
6gar_3_FAD
   53    58     1     0     1
SMALL
NO_CHARGES


@<TRIPOS>ATOM
      1 PA          3.0650   19.7330    8.5480 P.3       1 FAD401      0.0000 
      2 O1A         2.4680   20.9700    9.1260 O.co2     1 FAD401      0.0000 
      3 O2A         2.3680   19.1530    7.3040 O.co2     1 FAD401      0.0000 
      4 O5B         4.5790   19.9500    8.1970 O.3       1 FAD401      0.0000 
      5 C5B         5.3080   19.0100    7.3760 C.3       1 FAD401      0.0000 
      6 C4B         6.4400   19.7700    6.7390 C.3       1 FAD401      0.0000 
      7 O4B         7.4420   18.8700    6.2100 O.3       1 FAD401      0.0000 
      8 C3B         6.0430   20.7120    5.6040 C.3       1 FAD401      0.0000 
      9 O3B         6.6420   21.9790    5.8330 O.3       1 FAD401      0.0000 
     10 C2B         6.6320   20.0460    4.3580 C.3       1 FAD401      0.0000 
     11 O2B         7.0920   21.0210    3.4410 O.3       1 FAD401      0.0000 
     12 C1B         7.8500   19.3260    4.9330 C.3       1 FAD401      0.0000 
     13 N9A         8.2540   18.1640    4.1530 N.pl3     1 FAD401      0.0000 
     14 C8A         7.4440   17.1170    3.8140 C.2       1 FAD401      0.0000 
     15 N7A         8.0370   16.1850    3.1130 N.2       1 FAD401      0.0000 
     16 C5A         9.3380   16.6380    3.0060 C.ar      1 FAD401      0.0000 
     17 C6A        10.4740   16.0940    2.3860 C.ar      1 FAD401      0.0000 
     18 N6A        10.4740   14.9320    1.7310 N.pl3     1 FAD401      0.0000 
     19 N1A        11.6140   16.8080    2.4400 N.ar      1 FAD401      0.0000 
     20 C2A        11.6140   17.9790    3.0830 C.ar      1 FAD401      0.0000 
     21 N3A        10.6060   18.5900    3.7090 N.ar      1 FAD401      0.0000 
     22 C4A         9.4860   17.8640    3.6290 C.ar      1 FAD401      0.0000 
     23 N1         -4.4440   21.6630   14.3450 N.2       1 FAD401      0.0000 
     24 C2         -4.7340   22.3450   15.4950 C.2       1 FAD401      0.0000 
     25 O2         -4.2900   21.9910   16.5920 O.2       1 FAD401      0.0000 
     26 N3         -5.5360   23.4540   15.4540 N.am      1 FAD401      0.0000 
     27 C4         -6.1020   23.9930   14.3250 C.2       1 FAD401      0.0000 
     28 O4         -6.8100   25.0010   14.4000 O.2       1 FAD401      0.0000 
     29 C4X        -5.7870   23.2670   13.1040 C.2       1 FAD401      0.0000 
     30 N5         -6.2940   23.6970   12.0220 N.2       1 FAD401      0.0000 
     31 C5X        -6.0170   23.0300   10.8610 C.ar      1 FAD401      0.0000 
     32 C6         -6.5850   23.5410    9.6960 C.ar      1 FAD401      0.0000 
     33 C7         -6.3620   22.9300    8.4730 C.ar      1 FAD401      0.0000 
     34 C7M        -6.9950   23.5050    7.2330 C.3       1 FAD401      0.0000 
     35 C8         -5.5620   21.7760    8.4080 C.ar      1 FAD401      0.0000 
     36 C8M        -5.3260   21.0970    7.0900 C.3       1 FAD401      0.0000 
     37 C9         -5.0000   21.2520    9.5780 C.ar      1 FAD401      0.0000 
     38 C9A        -5.2140   21.8620   10.8120 C.ar      1 FAD401      0.0000 
     39 N10        -4.5740   21.4580   12.0200 N.pl3     1 FAD401      0.0000 
     40 C10        -4.9380   22.1060   13.2140 C.2       1 FAD401      0.0000 
     41 C1'        -3.8970   20.1220   12.1610 C.3       1 FAD401      0.0000 
     42 C2'        -2.4220   19.8570   11.7400 C.3       1 FAD401      0.0000 
     43 O2'        -1.8210   19.0270   12.7410 O.3       1 FAD401      0.0000 
     44 C3'        -1.5250   21.0810   11.7100 C.3       1 FAD401      0.0000 
     45 O3'        -2.1000   21.9100   10.7050 O.3       1 FAD401      0.0000 
     46 C4'        -0.0110   20.7600   11.4420 C.3       1 FAD401      0.0000 
     47 O4'         0.3540   21.1820   10.1300 O.3       1 FAD401      0.0000 
     48 C5'         0.6050   19.3610   11.5550 C.3       1 FAD401      0.0000 
     49 O5'         2.0220   19.4730   11.9010 O.3       1 FAD401      0.0000 
     50 P           3.1860   18.5770   11.2340 P.3       1 FAD401      0.0000 
     51 O1P         4.5210   19.2270   11.6000 O.co2     1 FAD401      0.0000 
     52 O2P         3.3550   17.1360   11.7080 O.co2     1 FAD401      0.0000 
     53 O3P         3.0620   18.5800    9.6360 O.3       1 FAD401      0.0000 
@<TRIPOS>BOND
     1    1    2 ar   
     2    1    3 ar   
     3    1    4 1    
     4    1   53 1    
     5    4    5 1    
     6    5    6 1    
     7    6    7 1    
     8    6    8 1    
     9    7   12 1    
    10    8    9 1    
    11    8   10 1    
    12   10   11 1    
    13   10   12 1    
    14   12   13 1    
    15   13   14 1    
    16   13   22 1    
    17   14   15 2    
    18   15   16 1    
    19   16   17 ar   
    20   16   22 ar   
    21   17   18 1    
    22   17   19 ar   
    23   19   20 ar   
    24   20   21 ar   
    25   21   22 ar   
    26   23   24 1    
    27   23   40 2    
    28   24   25 2    
    29   24   26 am   
    30   26   27 am   
    31   27   28 2    
    32   27   29 1    
    33   29   30 2    
    34   29   40 1    
    35   30   31 1    
    36   31   32 ar   
    37   31   38 ar   
    38   32   33 ar   
    39   33   34 1    
    40   33   35 ar   
    41   35   36 1    
    42   35   37 ar   
    43   37   38 ar   
    44   38   39 1    
    45   39   40 1    
    46   39   41 1    
    47   41   42 1    
    48   42   43 1    
    49   42   44 1    
    50   44   45 1    
    51   44   46 1    
    52   46   47 1    
    53   46   48 1    
    54   48   49 1    
    55   49   50 1    
    56   50   51 ar   
    57   50   52 ar   
    58   50   53 1    
@<TRIPOS>SUBSTRUCTURE
     1 FAD401      1 GROUP   
@<TRIPOS>SET
ATOM$ORANGE STATIC     ATOMS   COLORGROUP SYSTEM 
54 5 5 6 6 8 8 10 10 12 12 14 14 16 16 17 17 20 \
20 22 22 24 24 27 27 29 29 31 31 32 32 33 33 34 34 35 \
35 36 36 37 37 38 38 40 40 41 41 42 42 44 44 46 46 48 \
48 

