#    Name: 6nmf_1_CHD
#    Modification time : Fri May 22 19:30:16 2020

@<TRIPOS>MOLECULE
6nmf_1_CHD
   29    32     1     0     0
SMALL
NO_CHARGES


@<TRIPOS>ATOM
      1 C1        -25.8640  -15.8670   22.3140 C.3       1 CHD303      0.0000 
      2 C2        -26.4590  -16.2730   23.6570 C.3       1 CHD303      0.0000 
      3 C3        -26.2770  -17.7620   24.0070 C.3       1 CHD303      0.0000 
      4 O3        -26.9660  -18.0880   25.2220 O.3       1 CHD303      0.0000 
      5 C4        -26.8160  -18.6570   22.9030 C.3       1 CHD303      0.0000 
      6 C5        -26.2300  -18.2460   21.5550 C.3       1 CHD303      0.0000 
      7 C6        -26.8050  -19.2180   20.5270 C.3       1 CHD303      0.0000 
      8 C7        -28.2290  -18.9160   20.0470 C.3       1 CHD303      0.0000 
      9 O7        -29.1920  -19.4120   20.9850 O.3       1 CHD303      0.0000 
     10 C8        -28.4420  -17.4280   19.7560 C.3       1 CHD303      0.0000 
     11 C9        -27.9080  -16.5070   20.8780 C.3       1 CHD303      0.0000 
     12 C10       -26.4100  -16.7500   21.1910 C.3       1 CHD303      0.0000 
     13 C11       -28.2680  -15.0340   20.6590 C.3       1 CHD303      0.0000 
     14 C12       -29.7390  -14.8300   20.2770 C.3       1 CHD303      0.0000 
     15 O12       -30.5830  -15.0490   21.4180 O.3       1 CHD303      0.0000 
     16 C13       -30.1870  -15.6980   19.1050 C.3       1 CHD303      0.0000 
     17 C14       -29.9200  -17.1290   19.5060 C.3       1 CHD303      0.0000 
     18 C15       -30.6320  -17.9380   18.4320 C.3       1 CHD303      0.0000 
     19 C16       -31.8120  -17.0640   18.0040 C.3       1 CHD303      0.0000 
     20 C17       -31.6950  -15.7410   18.7750 C.3       1 CHD303      0.0000 
     21 C18       -29.3860  -15.3100   17.8460 C.3       1 CHD303      0.0000 
     22 C19       -25.4910  -16.4040   20.0220 C.3       1 CHD303      0.0000 
     23 C20       -32.2990  -14.5150   18.0420 C.3       1 CHD303      0.0000 
     24 C21       -32.4490  -13.3120   18.9640 C.3       1 CHD303      0.0000 
     25 C22       -33.6160  -14.7310   17.2740 C.3       1 CHD303      0.0000 
     26 C23       -34.8250  -15.0970   18.1410 C.3       1 CHD303      0.0000 
     27 O25       -37.1700  -15.2850   17.7680 O.co2     1 CHD303      0.0000 
     28 C24       -36.1390  -14.6330   17.5300 C.2       1 CHD303      0.0000 
     29 O26       -36.2060  -13.6090   16.8210 O.co2     1 CHD303      0.0000 
@<TRIPOS>BOND
     1    1    2 1    
     2    1   12 1    
     3    2    3 1    
     4    3    4 1    
     5    3    5 1    
     6    5    6 1    
     7    6    7 1    
     8    6   12 1    
     9    7    8 1    
    10    8    9 1    
    11    8   10 1    
    12   10   11 1    
    13   10   17 1    
    14   11   12 1    
    15   11   13 1    
    16   12   22 1    
    17   13   14 1    
    18   14   15 1    
    19   14   16 1    
    20   16   17 1    
    21   16   20 1    
    22   16   21 1    
    23   17   18 1    
    24   18   19 1    
    25   19   20 1    
    26   20   23 1    
    27   23   24 1    
    28   23   25 1    
    29   25   26 1    
    30   26   28 1    
    31   27   28 ar   
    32   28   29 ar   
@<TRIPOS>SUBSTRUCTURE
     1 CHD303      1 GROUP   
@<TRIPOS>SET

