#    Name: 6nmf_4_CHD
#    Modification time : Fri May 22 19:30:30 2020

@<TRIPOS>MOLECULE
6nmf_4_CHD
   29    32     1     0     0
SMALL
NO_CHARGES


@<TRIPOS>ATOM
      1 C1        -23.7170   20.1420  -28.8410 C.3       1 CHD104      0.0000 
      2 C2        -24.2830   20.4990  -30.1870 C.3       1 CHD104      0.0000 
      3 C3        -23.9930   21.9520  -30.5310 C.3       1 CHD104      0.0000 
      4 O3        -24.8290   22.3180  -31.6370 O.3       1 CHD104      0.0000 
      5 C4        -24.2990   22.9360  -29.4100 C.3       1 CHD104      0.0000 
      6 C5        -23.8730   22.4730  -28.0250 C.3       1 CHD104      0.0000 
      7 C6        -24.4190   23.4970  -27.0210 C.3       1 CHD104      0.0000 
      8 C7        -25.8750   23.2740  -26.5780 C.3       1 CHD104      0.0000 
      9 O7        -26.7420   23.8120  -27.5770 O.3       1 CHD104      0.0000 
     10 C8        -26.2280   21.8130  -26.2970 C.3       1 CHD104      0.0000 
     11 C9        -25.8000   20.9500  -27.4980 C.3       1 CHD104      0.0000 
     12 C10       -24.2620   21.0240  -27.7150 C.3       1 CHD104      0.0000 
     13 C11       -26.3950   19.5420  -27.4340 C.3       1 CHD104      0.0000 
     14 C12       -27.8880   19.4910  -27.0360 C.3       1 CHD104      0.0000 
     15 O12       -28.6990   20.0740  -28.0700 O.3       1 CHD104      0.0000 
     16 C13       -28.1660   20.2010  -25.7240 C.3       1 CHD104      0.0000 
     17 C14       -27.7030   21.6340  -25.9490 C.3       1 CHD104      0.0000 
     18 C15       -28.1920   22.3460  -24.7130 C.3       1 CHD104      0.0000 
     19 C16       -29.5210   21.6580  -24.3820 C.3       1 CHD104      0.0000 
     20 C17       -29.6170   20.4430  -25.2920 C.3       1 CHD104      0.0000 
     21 C18       -27.4170   19.4510  -24.6140 C.3       1 CHD104      0.0000 
     22 C19       -23.4660   20.5460  -26.4890 C.3       1 CHD104      0.0000 
     23 C20       -30.3340   19.3040  -24.5980 C.3       1 CHD104      0.0000 
     24 C21       -30.4490   18.1270  -25.5520 C.3       1 CHD104      0.0000 
     25 C22       -31.6960   19.6760  -24.0060 C.3       1 CHD104      0.0000 
     26 C23       -32.7690   19.9290  -25.0390 C.3       1 CHD104      0.0000 
     27 O25       -34.7390   21.1050  -24.4080 O.co2     1 CHD104      0.0000 
     28 C24       -34.1220   20.0070  -24.3630 C.2       1 CHD104      0.0000 
     29 O26       -34.6000   18.9910  -23.8010 O.co2     1 CHD104      0.0000 
@<TRIPOS>BOND
     1    1    2 1    
     2    1   12 1    
     3    2    3 1    
     4    3    4 1    
     5    3    5 1    
     6    5    6 1    
     7    6    7 1    
     8    6   12 1    
     9    7    8 1    
    10    8    9 1    
    11    8   10 1    
    12   10   11 1    
    13   10   17 1    
    14   11   12 1    
    15   11   13 1    
    16   12   22 1    
    17   13   14 1    
    18   14   15 1    
    19   14   16 1    
    20   16   17 1    
    21   16   20 1    
    22   16   21 1    
    23   17   18 1    
    24   18   19 1    
    25   19   20 1    
    26   20   23 1    
    27   23   24 1    
    28   23   25 1    
    29   25   26 1    
    30   26   28 1    
    31   27   28 ar   
    32   28   29 ar   
@<TRIPOS>SUBSTRUCTURE
     1 CHD104      1 GROUP   
@<TRIPOS>SET

