#    Name: 6nmf_4_CHD_CAVITY_N1_4
#    Modification time : Fri May 22 19:30:31 2020

@<TRIPOS>MOLECULE
6nmf_4_CHD_CAVITY_N1_4
  128     0     7     0     0
SMALL
NO_CHARGES


@<TRIPOS>ATOM
      1 OG        -24.5800   22.3300  -31.4800 O.3       1 SER1        0.0000 
      2 OG        -22.8000   21.3000  -30.9600 O.3       1 SER1        0.0000 
      3 OG        -23.3800   23.0200  -29.8700 O.3       1 SER1        0.0000 
      4 OG        -22.8400   22.4000  -28.6100 O.3       1 SER1        0.0000 
      5 O         -30.9500   19.4900  -28.3400 O.2       2 ALA2        0.0000 
      6 N         -30.8400   21.4000  -29.2400 N.am      2 ALA2        0.0000 
      7 N         -32.0700   21.8200  -28.5000 N.am      2 ALA2        0.0000 
      8 N         -27.8200   19.9500  -29.4600 N.am      2 ALA2        0.0000 
      9 N         -29.0600   20.3700  -28.7200 N.am      2 ALA2        0.0000 
     10 N         -30.2900   20.7900  -27.9800 N.am      2 ALA2        0.0000 
     11 N         -25.5000   18.3000  -27.6900 N.am      2 ALA2        0.0000 
     12 O         -27.4300   18.5100  -24.9600 O.2       2 ALA2        0.0000 
     13 N         -30.1800   22.7100  -28.8800 N.am      2 ALA2        0.0000 
     14 N         -25.9300   20.8300  -29.8400 N.am      2 ALA2        0.0000 
     15 N         -27.1700   21.2500  -29.1000 N.am      2 ALA2        0.0000 
     16 N         -28.4000   21.6700  -28.3600 N.am      2 ALA2        0.0000 
     17 N         -29.6400   22.0900  -27.6200 N.am      2 ALA2        0.0000 
     18 N         -23.6100   19.1800  -28.0700 N.am      2 ALA2        0.0000 
     19 N         -24.8500   19.6000  -27.3300 N.am      2 ALA2        0.0000 
     20 N         -26.0800   20.0100  -26.5900 N.am      2 ALA2        0.0000 
     21 N         -25.5400   19.4000  -25.3400 N.am      2 ALA2        0.0000 
     22 N         -25.8200   22.7500  -30.7400 N.am      2 ALA2        0.0000 
     23 N         -27.0500   23.1700  -30.0000 N.am      2 ALA2        0.0000 
     24 N         -28.2900   23.5900  -29.2600 N.am      2 ALA2        0.0000 
     25 N         -29.5300   24.0100  -28.5200 N.am      2 ALA2        0.0000 
     26 N         -25.2800   22.1300  -29.4800 N.am      2 ALA2        0.0000 
     27 N         -26.5100   22.5500  -28.7400 N.am      2 ALA2        0.0000 
     28 N         -27.7500   22.9700  -28.0000 N.am      2 ALA2        0.0000 
     29 O         -30.2200   23.8100  -26.5200 O.2       2 ALA2        0.0000 
     30 O         -29.6800   23.1900  -25.2700 O.2       2 ALA2        0.0000 
     31 N         -29.1400   22.5700  -24.0200 N.am      2 ALA2        0.0000 
     32 O         -24.8900   20.7000  -24.9800 O.2       2 ALA2        0.0000 
     33 N         -23.9300   23.6400  -31.1200 N.am      2 ALA2        0.0000 
     34 N         -24.6200   23.4400  -29.1300 N.am      2 ALA2        0.0000 
     35 O         -29.5600   25.1100  -26.1700 O.2       2 ALA2        0.0000 
     36 OD1       -34.7700   18.8200  -25.2200 O.co2     3 ASP3        0.0000 
     37 OD1       -31.7600   17.3700  -25.4500 O.co2     3 ASP3        0.0000 
     38 OD1       -31.6400   19.2900  -26.3500 O.co2     3 ASP3        0.0000 
     39 OD1       -32.8800   19.7000  -25.6100 O.co2     3 ASP3        0.0000 
     40 OD1       -34.1100   20.1200  -24.8700 O.co2     3 ASP3        0.0000 
     41 OD1       -33.5700   19.5000  -23.6100 O.co2     3 ASP3        0.0000 
     42 NZ        -27.6300   24.8900  -28.9000 N.4       4 LYS4        0.0000 
     43 NZ        -28.8700   25.3100  -28.1600 N.4       4 LYS4        0.0000 
     44 NZ        -30.1100   25.7300  -27.4200 N.4       4 LYS4        0.0000 
     45 NZ        -25.8600   23.8500  -28.3900 N.4       4 LYS4        0.0000 
     46 NZ        -27.0900   24.2700  -27.6500 N.4       4 LYS4        0.0000 
     47 NZ        -28.3300   24.6900  -26.9100 N.4       4 LYS4        0.0000 
     48 NZ        -25.3200   23.2400  -27.1300 N.4       4 LYS4        0.0000 
     49 NZ        -26.5500   23.6500  -26.3900 N.4       4 LYS4        0.0000 
     50 NZ        -24.6600   24.5400  -26.7700 N.4       4 LYS4        0.0000 
     51 NZ        -25.9000   24.9500  -26.0300 N.4       4 LYS4        0.0000 
     52 CZ        -30.5200   16.9500  -26.1900 C.ar      5 PHE5        0.0000 
     53 CZ        -28.6700   18.9300  -24.2200 C.ar      5 PHE5        0.0000 
     54 CZ        -29.9000   19.3500  -23.4800 C.ar      5 PHE5        0.0000 
     55 CZ        -31.1400   19.7700  -22.7400 C.ar      5 PHE5        0.0000 
     56 CZ        -29.7900   21.2700  -24.3700 C.ar      5 PHE5        0.0000 
     57 CZ        -28.0100   20.2300  -23.8600 C.ar      5 PHE5        0.0000 
     58 CZ        -30.4800   21.0700  -22.3800 C.ar      5 PHE5        0.0000 
     59 CZ        -23.6500   20.2800  -25.7200 C.ar      5 PHE5        0.0000 
     60 CZ        -26.1200   21.1200  -24.2400 C.ar      5 PHE5        0.0000 
     61 CZ        -27.3600   21.5300  -23.5000 C.ar      5 PHE5        0.0000 
     62 CZ        -28.5900   21.9500  -22.7600 C.ar      5 PHE5        0.0000 
     63 CZ        -23.5400   22.2000  -26.6200 C.ar      5 PHE5        0.0000 
     64 CZ        -24.7700   22.6200  -25.8800 C.ar      5 PHE5        0.0000 
     65 CZ        -26.0100   23.0400  -25.1400 C.ar      5 PHE5        0.0000 
     66 CZ        -22.8800   23.5000  -26.2600 C.ar      5 PHE5        0.0000 
     67 CA        -29.1700   18.4500  -27.8300 C.3       6 GLY6        0.0000 
     68 CA        -28.6300   17.8300  -26.5700 C.3       6 GLY6        0.0000 
     69 CA        -29.8600   18.2500  -25.8300 C.3       6 GLY6        0.0000 
     70 CA        -29.3200   17.6300  -24.5800 C.3       6 GLY6        0.0000 
     71 CA        -30.5600   18.0500  -23.8400 C.3       6 GLY6        0.0000 
     72 CA        -31.7900   18.4700  -23.1000 C.3       6 GLY6        0.0000 
     73 CA        -32.2200   21.0000  -25.2500 C.3       6 GLY6        0.0000 
     74 CA        -33.4600   21.4200  -24.5100 C.3       6 GLY6        0.0000 
     75 CA        -26.7400   18.7100  -26.9500 C.3       6 GLY6        0.0000 
     76 CA        -27.9700   19.1300  -26.2100 C.3       6 GLY6        0.0000 
     77 CA        -31.6800   20.3900  -23.9900 C.3       6 GLY6        0.0000 
     78 CA        -32.9200   20.8000  -23.2500 C.3       6 GLY6        0.0000 
     79 CA        -33.8900   23.9600  -26.6600 C.3       6 GLY6        0.0000 
     80 CA        -32.1100   22.9200  -26.1400 C.3       6 GLY6        0.0000 
     81 CA        -33.3500   23.3400  -25.4000 C.3       6 GLY6        0.0000 
     82 CA        -30.3300   21.8900  -25.6300 C.3       6 GLY6        0.0000 
     83 CA        -31.5700   22.3100  -24.8900 C.3       6 GLY6        0.0000 
     84 CA        -31.0300   21.6900  -23.6300 C.3       6 GLY6        0.0000 
     85 CA        -26.7800   19.8100  -24.6000 C.3       6 GLY6        0.0000 
     86 CA        -23.3500   21.9200  -32.2200 C.3       6 GLY6        0.0000 
     87 CA        -31.4600   24.2300  -25.7800 C.3       6 GLY6        0.0000 
     88 CA        -27.9000   22.1500  -24.7600 C.3       6 GLY6        0.0000 
     89 CA        -22.4100   19.8600  -26.4600 C.3       6 GLY6        0.0000 
     90 CA        -25.1600   24.0500  -30.3800 C.3       6 GLY6        0.0000 
     91 CA        -27.7900   24.0700  -25.6500 C.3       6 GLY6        0.0000 
     92 CA        -27.2500   23.4500  -24.4000 C.3       6 GLY6        0.0000 
     93 CA        -23.9700   24.7400  -28.7700 C.3       6 GLY6        0.0000 
     94 CA        -23.4200   24.1200  -27.5100 C.3       6 GLY6        0.0000 
     95 DU        -32.1800   19.9000  -27.6000 H         7 CUB7        0.0000 
     96 DU        -30.4100   18.8700  -27.0900 H         7 CUB7        0.0000 
     97 DU        -31.1000   18.6700  -25.0900 H         7 CUB7        0.0000 
     98 DU        -32.3400   19.0900  -24.3500 H         7 CUB7        0.0000 
     99 DU        -31.5300   21.2000  -27.2400 H         7 CUB7        0.0000 
    100 DU        -32.7700   21.6200  -26.5000 H         7 CUB7        0.0000 
    101 DU        -26.0400   18.9100  -28.9500 H         7 CUB7        0.0000 
    102 DU        -27.2800   19.3300  -28.2100 H         7 CUB7        0.0000 
    103 DU        -28.5200   19.7500  -27.4700 H         7 CUB7        0.0000 
    104 DU        -29.7500   20.1700  -26.7300 H         7 CUB7        0.0000 
    105 DU        -30.9900   20.5900  -25.9900 H         7 CUB7        0.0000 
    106 DU        -29.2100   19.5500  -25.4700 H         7 CUB7        0.0000 
    107 DU        -30.4500   19.9700  -24.7300 H         7 CUB7        0.0000 
    108 DU        -24.6900   20.4100  -30.5800 H         7 CUB7        0.0000 
    109 DU        -30.8700   22.5100  -26.8800 H         7 CUB7        0.0000 
    110 DU        -25.3900   20.2100  -28.5900 H         7 CUB7        0.0000 
    111 DU        -26.6200   20.6300  -27.8500 H         7 CUB7        0.0000 
    112 DU        -27.8600   21.0500  -27.1100 H         7 CUB7        0.0000 
    113 DU        -29.1000   21.4700  -26.3700 H         7 CUB7        0.0000 
    114 DU        -27.3200   20.4300  -25.8500 H         7 CUB7        0.0000 
    115 DU        -28.5500   20.8500  -25.1100 H         7 CUB7        0.0000 
    116 DU        -24.0400   21.7200  -30.2200 H         7 CUB7        0.0000 
    117 DU        -28.9800   23.3900  -27.2600 H         7 CUB7        0.0000 
    118 DU        -21.0300   20.2600  -30.4500 H         7 CUB7        0.0000 
    119 DU        -23.5000   21.1000  -28.9700 H         7 CUB7        0.0000 
    120 DU        -25.9700   21.9300  -27.4900 H         7 CUB7        0.0000 
    121 DU        -27.2100   22.3500  -26.7500 H         7 CUB7        0.0000 
    122 DU        -28.4400   22.7700  -26.0100 H         7 CUB7        0.0000 
    123 DU        -21.7200   20.0600  -28.4500 H         7 CUB7        0.0000 
    124 DU        -22.9600   20.4800  -27.7100 H         7 CUB7        0.0000 
    125 DU        -24.1900   20.9000  -26.9700 H         7 CUB7        0.0000 
    126 DU        -25.4300   21.3200  -26.2400 H         7 CUB7        0.0000 
    127 DU        -26.6600   21.7300  -25.5000 H         7 CUB7        0.0000 
    128 DU        -24.0800   22.8200  -27.8700 H         7 CUB7        0.0000 
@<TRIPOS>BOND
@<TRIPOS>SUBSTRUCTURE
     1 SER1        1 GROUP   
     2 ALA2        5 GROUP   
     3 ASP3       36 GROUP   
     4 LYS4       42 GROUP   
     5 PHE5       52 GROUP   
     6 GLY6       67 GROUP   
     7 CUB7       95 GROUP   
@<TRIPOS>SET

