#    Name: 5zpr_2_HY1_CAVITY_N1_4
#    Modification time : Fri May 22 19:25:06 2020

@<TRIPOS>MOLECULE
5zpr_2_HY1_CAVITY_N1_4
   32     0     3     0     0
SMALL
NO_CHARGES


@<TRIPOS>ATOM
      1 N         -44.1400  -15.3500   43.7300 N.am      1 ALA2        0.0000 
      2 N         -40.9100  -14.6400   43.1600 N.am      1 ALA2        0.0000 
      3 N         -42.1500  -14.6400   43.9900 N.am      1 ALA2        0.0000 
      4 N         -40.5100  -15.9600   43.7500 N.am      1 ALA2        0.0000 
      5 CZ        -46.0500  -12.1000   40.8600 C.ar      2 PHE5        0.0000 
      6 CZ        -45.6600  -13.4200   41.4500 C.ar      2 PHE5        0.0000 
      7 CZ        -42.8200  -11.3900   40.2900 C.ar      2 PHE5        0.0000 
      8 CZ        -45.3200  -11.3900   41.9500 C.ar      2 PHE5        0.0000 
      9 CZ        -40.7900  -14.0300   40.6400 C.ar      2 PHE5        0.0000 
     10 CZ        -40.3900  -15.3600   41.2300 C.ar      2 PHE5        0.0000 
     11 CZ        -40.0500  -13.3200   41.7400 C.ar      2 PHE5        0.0000 
     12 CA        -45.5400  -12.8100   38.9200 C.3       3 GLY6        0.0000 
     13 CA        -43.5600  -12.1000   39.1900 C.3       3 GLY6        0.0000 
     14 CA        -44.8000  -12.1000   40.0200 C.3       3 GLY6        0.0000 
     15 CA        -44.4100  -13.4200   40.6100 C.3       3 GLY6        0.0000 
     16 CA        -42.7700  -14.7400   40.3700 C.3       3 GLY6        0.0000 
     17 CA        -44.0200  -14.7400   41.2100 C.3       3 GLY6        0.0000 
     18 CA        -45.2600  -14.7400   42.0400 C.3       3 GLY6        0.0000 
     19 CA        -42.3800  -16.0600   40.9600 C.3       3 GLY6        0.0000 
     20 CA        -43.6200  -16.0600   41.8000 C.3       3 GLY6        0.0000 
     21 CA        -44.8700  -16.0600   42.6300 C.3       3 GLY6        0.0000 
     22 CA        -44.0700  -11.3900   41.1200 C.3       3 GLY6        0.0000 
     23 CA        -42.4300  -12.7100   40.8800 C.3       3 GLY6        0.0000 
     24 CA        -43.6700  -12.7100   41.7100 C.3       3 GLY6        0.0000 
     25 CA        -42.0300  -14.0300   41.4700 C.3       3 GLY6        0.0000 
     26 CA        -43.2800  -14.0300   42.3000 C.3       3 GLY6        0.0000 
     27 CA        -41.6400  -15.3500   42.0600 C.3       3 GLY6        0.0000 
     28 CA        -42.8900  -15.3500   42.9000 C.3       3 GLY6        0.0000 
     29 CA        -41.2500  -16.6700   42.6500 C.3       3 GLY6        0.0000 
     30 CA        -42.5000  -16.6700   43.4900 C.3       3 GLY6        0.0000 
     31 CA        -41.3000  -13.3200   42.5700 C.3       3 GLY6        0.0000 
     32 CA        -39.6600  -14.6500   42.3300 C.3       3 GLY6        0.0000 
@<TRIPOS>BOND
@<TRIPOS>SUBSTRUCTURE
     1 ALA2        1 GROUP   
     2 PHE5        5 GROUP   
     3 GLY6       12 GROUP   
@<TRIPOS>SET

