#    Name: 5zpr_2_HY1_CAVITY_N1_6
#    Modification time : Fri May 22 19:25:06 2020

@<TRIPOS>MOLECULE
5zpr_2_HY1_CAVITY_N1_6
   50     0     4     0     0
SMALL
NO_CHARGES


@<TRIPOS>ATOM
      1 N         -46.6700  -12.2000   37.2300 N.am      1 ALA2        0.0000 
      2 O         -47.5200  -13.5200   38.6600 O.2       1 ALA2        0.0000 
      3 N         -45.9300  -11.4900   38.3300 N.am      1 ALA2        0.0000 
      4 N         -44.1400  -15.3500   43.7300 N.am      1 ALA2        0.0000 
      5 N         -40.9100  -14.6400   43.1600 N.am      1 ALA2        0.0000 
      6 N         -42.1500  -14.6400   43.9900 N.am      1 ALA2        0.0000 
      7 N         -40.5100  -15.9600   43.7500 N.am      1 ALA2        0.0000 
      8 CZ        -48.7700  -13.5100   39.4900 C.ar      2 PHE5        0.0000 
      9 CZ        -48.0300  -12.8000   40.5900 C.ar      2 PHE5        0.0000 
     10 CZ        -46.4400  -10.7700   40.2600 C.ar      2 PHE5        0.0000 
     11 CZ        -47.6900  -10.7700   41.1000 C.ar      2 PHE5        0.0000 
     12 CZ        -46.0500  -12.1000   40.8600 C.ar      2 PHE5        0.0000 
     13 CZ        -45.6600  -13.4200   41.4500 C.ar      2 PHE5        0.0000 
     14 CZ        -43.2100  -10.0700   39.7000 C.ar      2 PHE5        0.0000 
     15 CZ        -45.7100  -10.0600   41.3600 C.ar      2 PHE5        0.0000 
     16 CZ        -42.8200  -11.3900   40.2900 C.ar      2 PHE5        0.0000 
     17 CZ        -45.3200  -11.3900   41.9500 C.ar      2 PHE5        0.0000 
     18 CZ        -40.7900  -14.0300   40.6400 C.ar      2 PHE5        0.0000 
     19 CZ        -40.3900  -15.3600   41.2300 C.ar      2 PHE5        0.0000 
     20 CZ        -46.2200   -9.3500   43.2900 C.ar      2 PHE5        0.0000 
     21 CZ        -40.0500  -13.3200   41.7400 C.ar      2 PHE5        0.0000 
     22 CA        -44.6800  -11.4900   37.5000 C.3       3 GLY6        0.0000 
     23 CA        -48.4200  -11.4800   40.0000 C.3       3 GLY6        0.0000 
     24 CA        -45.5400  -12.8100   38.9200 C.3       3 GLY6        0.0000 
     25 CA        -46.7800  -12.8100   39.7600 C.3       3 GLY6        0.0000 
     26 CA        -43.9500  -10.7800   38.6000 C.3       3 GLY6        0.0000 
     27 CA        -43.5600  -12.1000   39.1900 C.3       3 GLY6        0.0000 
     28 CA        -44.8000  -12.1000   40.0200 C.3       3 GLY6        0.0000 
     29 CA        -44.4100  -13.4200   40.6100 C.3       3 GLY6        0.0000 
     30 CA        -42.7700  -14.7400   40.3700 C.3       3 GLY6        0.0000 
     31 CA        -44.0200  -14.7400   41.2100 C.3       3 GLY6        0.0000 
     32 CA        -45.2600  -14.7400   42.0400 C.3       3 GLY6        0.0000 
     33 CA        -42.3800  -16.0600   40.9600 C.3       3 GLY6        0.0000 
     34 CA        -43.6200  -16.0600   41.8000 C.3       3 GLY6        0.0000 
     35 CA        -44.8700  -16.0600   42.6300 C.3       3 GLY6        0.0000 
     36 CA        -44.0700  -11.3900   41.1200 C.3       3 GLY6        0.0000 
     37 CA        -42.4300  -12.7100   40.8800 C.3       3 GLY6        0.0000 
     38 CA        -43.6700  -12.7100   41.7100 C.3       3 GLY6        0.0000 
     39 CA        -42.0300  -14.0300   41.4700 C.3       3 GLY6        0.0000 
     40 CA        -43.2800  -14.0300   42.3000 C.3       3 GLY6        0.0000 
     41 CA        -41.6400  -15.3500   42.0600 C.3       3 GLY6        0.0000 
     42 CA        -42.8900  -15.3500   42.9000 C.3       3 GLY6        0.0000 
     43 CA        -41.2500  -16.6700   42.6500 C.3       3 GLY6        0.0000 
     44 CA        -42.5000  -16.6700   43.4900 C.3       3 GLY6        0.0000 
     45 CA        -42.4800   -9.3600   40.7900 C.3       3 GLY6        0.0000 
     46 CA        -41.3000  -13.3200   42.5700 C.3       3 GLY6        0.0000 
     47 CA        -39.6600  -14.6500   42.3300 C.3       3 GLY6        0.0000 
     48 DU        -47.1800  -11.4800   39.1700 H         4 CUB7        0.0000 
     49 DU        -45.2000  -10.7800   39.4300 H         4 CUB7        0.0000 
     50 DU        -44.4600  -10.0700   40.5300 H         4 CUB7        0.0000 
@<TRIPOS>BOND
@<TRIPOS>SUBSTRUCTURE
     1 ALA2        1 GROUP   
     2 PHE5        8 GROUP   
     3 GLY6       22 GROUP   
     4 CUB7       48 GROUP   
@<TRIPOS>SET

