#    Name: 5zpr_2_HY1
#    Modification time : Fri May 22 19:25:06 2020

@<TRIPOS>MOLECULE
5zpr_2_HY1
    9     9     1     0     0
SMALL
NO_CHARGES


@<TRIPOS>ATOM
      1 C1'       -41.5720  -15.8010   42.8980 C.ar      1 HY1703      0.0000 
      2 C2'       -42.9030  -15.7220   43.2700 C.ar      1 HY1703      0.0000 
      3 C3'       -43.7370  -14.7820   42.6710 C.ar      1 HY1703      0.0000 
      4 C4'       -43.2370  -13.9330   41.6920 C.ar      1 HY1703      0.0000 
      5 C5'       -41.8970  -14.0040   41.3220 C.ar      1 HY1703      0.0000 
      6 C6'       -41.0660  -14.9470   41.9200 C.ar      1 HY1703      0.0000 
      7 CA        -40.6750  -16.8380   43.5640 C.3       1 HY1703      0.0000 
      8 C         -39.4510  -16.1970   44.2060 C.2       1 HY1703      0.0000 
      9 O         -39.8050  -15.5440   45.4030 O.2       1 HY1703      0.0000 
@<TRIPOS>BOND
     1    1    2 ar   
     2    1    6 ar   
     3    1    7 1    
     4    2    3 ar   
     5    3    4 ar   
     6    4    5 ar   
     7    5    6 ar   
     8    7    8 1    
     9    8    9 2    
@<TRIPOS>SUBSTRUCTURE
     1 HY1703      1 GROUP   
@<TRIPOS>SET

