#    Name: 6f2u_1_NAP
#    Modification time : Fri May 22 19:31:03 2020

@<TRIPOS>MOLECULE
6f2u_1_NAP
   48    52     1     0     1
SMALL
NO_CHARGES


@<TRIPOS>ATOM
      1 PA        -65.9440  -68.2440 -108.6760 P.3       1 NAP401      0.0000 
      2 O1A       -65.0970  -68.9440 -109.6290 O.co2     1 NAP401      0.0000 
      3 O2A       -65.3750  -67.7060 -107.3350 O.co2     1 NAP401      0.0000 
      4 O5B       -66.4880  -66.9860 -109.6260 O.3       1 NAP401      0.0000 
      5 C5B       -67.6830  -66.6000 -109.0070 C.3       1 NAP401      0.0000 
      6 C4B       -68.4090  -65.5250 -109.8130 C.3       1 NAP401      0.0000 
      7 O4B       -67.5280  -64.6800 -110.5280 O.3       1 NAP401      0.0000 
      8 C3B       -69.3290  -66.2700 -110.8240 C.3       1 NAP401      0.0000 
      9 O3B       -70.6130  -66.3720 -110.2780 O.3       1 NAP401      0.0000 
     10 C2B       -69.3160  -65.3390 -112.0860 C.3       1 NAP401      0.0000 
     11 O2B       -70.5400  -64.8130 -112.3760 O.3       1 NAP401      0.0000 
     12 C1B       -68.2710  -64.2130 -111.6830 C.3       1 NAP401      0.0000 
     13 N9A       -67.2940  -63.9910 -112.7340 N.pl3     1 NAP401      0.0000 
     14 C8A       -66.6280  -64.9700 -113.5020 C.2       1 NAP401      0.0000 
     15 N7A       -65.7690  -64.4240 -114.3870 N.2       1 NAP401      0.0000 
     16 C5A       -65.8830  -63.0340 -114.1820 C.ar      1 NAP401      0.0000 
     17 C6A       -65.2500  -61.9350 -114.7880 C.ar      1 NAP401      0.0000 
     18 N6A       -64.3180  -62.1150 -115.8000 N.pl3     1 NAP401      0.0000 
     19 N1A       -65.5360  -60.6440 -114.4000 N.ar      1 NAP401      0.0000 
     20 C2A       -66.4760  -60.5330 -113.3950 C.ar      1 NAP401      0.0000 
     21 N3A       -67.1630  -61.4860 -112.7310 N.ar      1 NAP401      0.0000 
     22 C4A       -66.8300  -62.7550 -113.1520 C.ar      1 NAP401      0.0000 
     23 O3        -67.2330  -69.2140 -108.4030 O.3       1 NAP401      0.0000 
     24 PN        -67.2770  -70.5350 -107.4720 P.3       1 NAP401      0.0000 
     25 O1N       -68.3850  -71.3620 -107.9540 O.co2     1 NAP401      0.0000 
     26 O2N       -67.0800  -70.1960 -106.0380 O.co2     1 NAP401      0.0000 
     27 O5D       -65.8220  -71.5090 -107.7170 O.3       1 NAP401      0.0000 
     28 C5D       -65.8280  -71.9400 -109.0340 C.3       1 NAP401      0.0000 
     29 C4D       -65.8880  -73.4950 -109.1120 C.3       1 NAP401      0.0000 
     30 O4D       -65.0910  -74.1440 -108.0920 O.3       1 NAP401      0.0000 
     31 C3D       -67.3190  -74.0040 -108.8790 C.3       1 NAP401      0.0000 
     32 O3D       -68.0600  -73.8070 -110.0340 O.3       1 NAP401      0.0000 
     33 C2D       -67.0070  -75.5110 -108.6150 C.3       1 NAP401      0.0000 
     34 O2D       -66.6420  -76.1340 -109.7940 O.3       1 NAP401      0.0000 
     35 C1D       -65.6860  -75.3850 -107.7590 C.3       1 NAP401      0.0000 
     36 N1N       -65.9960  -75.3820 -106.2890 N.pl3     1 NAP401      0.0000 
     37 C2N       -65.6170  -76.4640 -105.5280 C.ar      1 NAP401      0.0000 
     38 C3N       -65.8960  -76.4910 -104.1760 C.ar      1 NAP401      0.0000 
     39 C7N       -65.4830  -77.6560 -103.3860 C.2       1 NAP401      0.0000 
     40 O7N       -65.9820  -77.8860 -102.2700 O.2       1 NAP401      0.0000 
     41 N7N       -64.4890  -78.4810 -103.8650 N.am      1 NAP401      0.0000 
     42 C4N       -66.5590  -75.4050 -103.5640 C.ar      1 NAP401      0.0000 
     43 C5N       -66.9250  -74.3200 -104.3480 C.ar      1 NAP401      0.0000 
     44 C6N       -66.6470  -74.2990 -105.7010 C.ar      1 NAP401      0.0000 
     45 P2B       -71.2610  -65.0140 -113.9590 P.3       1 NAP401      0.0000 
     46 O1X       -71.4430  -66.5400 -113.9480 O.co2     1 NAP401      0.0000 
     47 O2X       -72.5060  -64.1670 -113.9650 O.co2     1 NAP401      0.0000 
     48 O3X       -70.0530  -64.6280 -114.8110 O.co2     1 NAP401      0.0000 
@<TRIPOS>BOND
     1    1    2 ar   
     2    1    3 ar   
     3    1    4 1    
     4    1   23 1    
     5    4    5 1    
     6    5    6 1    
     7    6    7 1    
     8    6    8 1    
     9    7   12 1    
    10    8    9 1    
    11    8   10 1    
    12   10   11 1    
    13   10   12 1    
    14   11   45 1    
    15   12   13 1    
    16   13   14 1    
    17   13   22 1    
    18   14   15 2    
    19   15   16 1    
    20   16   17 ar   
    21   16   22 ar   
    22   17   18 1    
    23   17   19 ar   
    24   19   20 ar   
    25   20   21 ar   
    26   21   22 ar   
    27   23   24 1    
    28   24   25 ar   
    29   24   26 ar   
    30   24   27 1    
    31   27   28 1    
    32   28   29 1    
    33   29   30 1    
    34   29   31 1    
    35   30   35 1    
    36   31   32 1    
    37   31   33 1    
    38   33   34 1    
    39   33   35 1    
    40   35   36 1    
    41   36   37 ar   
    42   36   44 ar   
    43   37   38 ar   
    44   38   39 1    
    45   38   42 ar   
    46   39   40 2    
    47   39   41 am   
    48   42   43 ar   
    49   43   44 ar   
    50   45   46 ar   
    51   45   47 ar   
    52   45   48 ar   
@<TRIPOS>SUBSTRUCTURE
     1 NAP401      1 GROUP   
@<TRIPOS>SET
ATOM$ORANGE STATIC     ATOMS   COLORGROUP SYSTEM 
42 5 5 6 6 8 8 10 10 12 12 14 14 16 16 17 17 20 \
20 22 22 28 28 29 29 31 31 33 33 35 35 37 37 38 38 39 \
39 42 42 43 43 44 44 

