#    Name: 6f2u_2_NAP
#    Modification time : Fri May 22 19:31:09 2020

@<TRIPOS>MOLECULE
6f2u_2_NAP
   48    52     1     0     1
SMALL
NO_CHARGES


@<TRIPOS>ATOM
      1 PA        -48.2410  -52.2560  -76.2780 P.3       1 NAP401      0.0000 
      2 O1A       -49.0660  -51.9160  -75.0760 O.co2     1 NAP401      0.0000 
      3 O2A       -48.8200  -52.9990  -77.5330 O.co2     1 NAP401      0.0000 
      4 O5B       -47.7310  -50.7190  -76.6630 O.3       1 NAP401      0.0000 
      5 C5B       -46.6860  -50.8720  -77.5860 C.3       1 NAP401      0.0000 
      6 C4B       -46.0430  -49.4750  -77.8130 C.3       1 NAP401      0.0000 
      7 O4B       -47.0090  -48.4690  -77.8820 O.3       1 NAP401      0.0000 
      8 C3B       -45.1360  -49.1490  -76.6210 C.3       1 NAP401      0.0000 
      9 O3B       -43.8490  -49.5790  -76.9300 O.3       1 NAP401      0.0000 
     10 C2B       -45.2010  -47.5760  -76.5230 C.3       1 NAP401      0.0000 
     11 O2B       -44.0240  -46.9830  -76.8470 O.3       1 NAP401      0.0000 
     12 C1B       -46.2980  -47.2210  -77.5970 C.3       1 NAP401      0.0000 
     13 N9A       -47.3070  -46.2770  -77.1260 N.pl3     1 NAP401      0.0000 
     14 C8A       -47.9880  -46.2940  -75.8860 C.2       1 NAP401      0.0000 
     15 N7A       -48.9160  -45.3080  -75.7970 N.2       1 NAP401      0.0000 
     16 C5A       -48.8230  -44.6160  -77.0290 C.ar      1 NAP401      0.0000 
     17 C6A       -49.5030  -43.4940  -77.5530 C.ar      1 NAP401      0.0000 
     18 N6A       -50.4800  -42.8390  -76.8280 N.pl3     1 NAP401      0.0000 
     19 N1A       -49.2370  -43.0240  -78.8070 N.ar      1 NAP401      0.0000 
     20 C2A       -48.2570  -43.6960  -79.4980 C.ar      1 NAP401      0.0000 
     21 N3A       -47.5250  -44.7730  -79.1430 N.ar      1 NAP401      0.0000 
     22 C4A       -47.8390  -45.2190  -77.8740 C.ar      1 NAP401      0.0000 
     23 O3        -46.9320  -53.0450  -75.7110 O.3       1 NAP401      0.0000 
     24 PN        -46.8650  -54.5740  -75.1780 P.3       1 NAP401      0.0000 
     25 O1N       -45.7360  -54.6260  -74.2400 O.co2     1 NAP401      0.0000 
     26 O2N       -46.9710  -55.5400  -76.2870 O.co2     1 NAP401      0.0000 
     27 O5D       -48.3210  -54.9660  -74.3010 O.3       1 NAP401      0.0000 
     28 C5D       -48.3770  -54.2170  -73.1350 C.3       1 NAP401      0.0000 
     29 C4D       -48.2250  -55.1090  -71.8780 C.3       1 NAP401      0.0000 
     30 O4D       -48.9850  -56.3390  -71.9470 O.3       1 NAP401      0.0000 
     31 C3D       -46.7430  -55.5260  -71.6470 C.3       1 NAP401      0.0000 
     32 O3D       -45.9840  -54.4250  -71.1360 O.3       1 NAP401      0.0000 
     33 C2D       -46.9540  -56.6240  -70.6210 C.3       1 NAP401      0.0000 
     34 O2D       -47.2570  -56.0980  -69.3580 O.3       1 NAP401      0.0000 
     35 C1D       -48.2850  -57.3230  -71.2140 C.3       1 NAP401      0.0000 
     36 N1N       -47.9290  -58.4790  -72.1190 N.pl3     1 NAP401      0.0000 
     37 C2N       -48.2170  -59.7530  -71.6990 C.ar      1 NAP401      0.0000 
     38 C3N       -47.8930  -60.8360  -72.4910 C.ar      1 NAP401      0.0000 
     39 C7N       -48.2220  -62.1930  -71.9920 C.2       1 NAP401      0.0000 
     40 O7N       -47.6290  -63.1980  -72.4110 O.2       1 NAP401      0.0000 
     41 N7N       -49.2360  -62.3480  -71.0680 N.am      1 NAP401      0.0000 
     42 C4N       -47.2680  -60.6340  -73.7600 C.ar      1 NAP401      0.0000 
     43 C5N       -46.9900  -59.3400  -74.1660 C.ar      1 NAP401      0.0000 
     44 C6N       -47.3200  -58.2690  -73.3660 C.ar      1 NAP401      0.0000 
     45 P2B       -43.2800  -45.8050  -75.7340 P.3       1 NAP401      0.0000 
     46 O1X       -42.8940  -46.6950  -74.5500 O.co2     1 NAP401      0.0000 
     47 O2X       -42.1800  -45.1290  -76.5240 O.co2     1 NAP401      0.0000 
     48 O3X       -44.5470  -45.0320  -75.3980 O.co2     1 NAP401      0.0000 
@<TRIPOS>BOND
     1    1    2 ar   
     2    1    3 ar   
     3    1    4 1    
     4    1   23 1    
     5    4    5 1    
     6    5    6 1    
     7    6    7 1    
     8    6    8 1    
     9    7   12 1    
    10    8    9 1    
    11    8   10 1    
    12   10   11 1    
    13   10   12 1    
    14   11   45 1    
    15   12   13 1    
    16   13   14 1    
    17   13   22 1    
    18   14   15 2    
    19   15   16 1    
    20   16   17 ar   
    21   16   22 ar   
    22   17   18 1    
    23   17   19 ar   
    24   19   20 ar   
    25   20   21 ar   
    26   21   22 ar   
    27   23   24 1    
    28   24   25 ar   
    29   24   26 ar   
    30   24   27 1    
    31   27   28 1    
    32   28   29 1    
    33   29   30 1    
    34   29   31 1    
    35   30   35 1    
    36   31   32 1    
    37   31   33 1    
    38   33   34 1    
    39   33   35 1    
    40   35   36 1    
    41   36   37 ar   
    42   36   44 ar   
    43   37   38 ar   
    44   38   39 1    
    45   38   42 ar   
    46   39   40 2    
    47   39   41 am   
    48   42   43 ar   
    49   43   44 ar   
    50   45   46 ar   
    51   45   47 ar   
    52   45   48 ar   
@<TRIPOS>SUBSTRUCTURE
     1 NAP401      1 GROUP   
@<TRIPOS>SET
ATOM$ORANGE STATIC     ATOMS   COLORGROUP SYSTEM 
42 5 5 6 6 8 8 10 10 12 12 14 14 16 16 17 17 20 \
20 22 22 28 28 29 29 31 31 33 33 35 35 37 37 38 38 39 \
39 42 42 43 43 44 44 

