#    Name: 6c9p_1_MTP
#    Modification time : Fri May 22 19:27:27 2020

@<TRIPOS>MOLECULE
6c9p_1_MTP
   20    22     1     0     0
SMALL
NO_CHARGES


@<TRIPOS>ATOM
      1 O5'        17.7670   20.0280   -4.5290 O.3       1 MTP403      0.0000 
      2 C5'        16.5960   19.7010   -5.2710 C.3       1 MTP403      0.0000 
      3 C4'        16.2260   20.8090   -6.2290 C.3       1 MTP403      0.0000 
      4 O4'        17.3150   21.0320   -7.1420 O.3       1 MTP403      0.0000 
      5 C1'        16.8160   21.5380   -8.3570 C.3       1 MTP403      0.0000 
      6 N9         17.7230   21.1050   -9.4220 N.pl3     1 MTP403      0.0000 
      7 C8         17.7500   19.8890   -9.9800 C.2       1 MTP403      0.0000 
      8 N7         18.7300   19.8650  -10.9050 N.2       1 MTP403      0.0000 
      9 C5         19.3390   21.0900  -10.9250 C.ar      1 MTP403      0.0000 
     10 C6         20.4130   21.6810  -11.6660 C.ar      1 MTP403      0.0000 
     11 S6         21.3000   20.7080  -12.9290 S.3       1 MTP403      0.0000 
     12 CS         22.3220   21.8500  -13.9210 C.3       1 MTP403      0.0000 
     13 N1         20.7680   22.9410  -11.4320 N.ar      1 MTP403      0.0000 
     14 C2         20.1330   23.6640  -10.5140 C.ar      1 MTP403      0.0000 
     15 N3         19.1320   23.1480   -9.8100 N.ar      1 MTP403      0.0000 
     16 C4         18.7070   21.8600   -9.9900 C.ar      1 MTP403      0.0000 
     17 C2'        15.3780   21.0190   -8.5050 C.3       1 MTP403      0.0000 
     18 O2'        14.5250   22.0060   -9.0430 O.3       1 MTP403      0.0000 
     19 C3'        14.9870   20.5570   -7.0860 C.3       1 MTP403      0.0000 
     20 O3'        13.9070   21.3560   -6.6030 O.3       1 MTP403      0.0000 
@<TRIPOS>BOND
     1    1    2 1    
     2    2    3 1    
     3    3    4 1    
     4    3   19 1    
     5    4    5 1    
     6    5    6 1    
     7    5   17 1    
     8    6    7 1    
     9    6   16 1    
    10    7    8 2    
    11    8    9 1    
    12    9   10 ar   
    13    9   16 ar   
    14   10   11 1    
    15   10   13 ar   
    16   11   12 1    
    17   13   14 ar   
    18   14   15 ar   
    19   15   16 ar   
    20   17   18 1    
    21   17   19 1    
    22   19   20 1    
@<TRIPOS>SUBSTRUCTURE
     1 MTP403      1 GROUP   
@<TRIPOS>SET

