#    Name: 6c9p_3_MTP_CAVITY_N1_4
#    Modification time : Fri May 22 19:27:37 2020

@<TRIPOS>MOLECULE
6c9p_3_MTP_CAVITY_N1_4
   62     0     7     0     0
SMALL
NO_CHARGES


@<TRIPOS>ATOM
      1 OG          1.8500    6.1000  -26.8300 O.3       1 SER1        0.0000 
      2 OG          5.7900    4.0200  -22.2900 O.3       1 SER1        0.0000 
      3 O           4.6600    8.8500  -29.4900 O.2       2 ALA2        0.0000 
      4 O           2.3100    7.8800  -27.9000 O.2       2 ALA2        0.0000 
      5 O           5.3800    7.5600  -29.2200 O.2       2 ALA2        0.0000 
      6 O           4.2000    7.0700  -28.4200 O.2       2 ALA2        0.0000 
      7 N           2.5700    4.8200  -26.5600 N.am      2 ALA2        0.0000 
      8 N           0.2200    3.8500  -24.9700 N.am      2 ALA2        0.0000 
      9 O           7.9900    5.4700  -29.4700 O.2       2 ALA2        0.0000 
     10 O           4.8000    7.6700  -27.1800 O.2       2 ALA2        0.0000 
     11 O           7.8600    7.3500  -28.5000 O.2       2 ALA2        0.0000 
     12 O           6.6900    6.8600  -27.7000 O.2       2 ALA2        0.0000 
     13 O           5.5100    6.3800  -26.9100 O.2       2 ALA2        0.0000 
     14 O           7.4100    5.5800  -27.4300 O.2       2 ALA2        0.0000 
     15 O           1.5300    3.1500  -23.4500 O.2       2 ALA2        0.0000 
     16 O           2.2400    1.8600  -23.1800 O.2       2 ALA2        0.0000 
     17 O           1.6600    1.9700  -21.1400 O.2       2 ALA2        0.0000 
     18 OD1         4.0200    2.9400  -22.7300 O.co2     3 ASP3        0.0000 
     19 OD1         2.8400    2.4600  -21.9400 O.co2     3 ASP3        0.0000 
     20 OD1         4.6100    3.5400  -21.4900 O.co2     3 ASP3        0.0000 
     21 NZ          2.8900    7.7700  -29.9400 N.4       4 LYS4        0.0000 
     22 NZ          3.3600   10.2500  -27.7300 N.4       4 LYS4        0.0000 
     23 CZ          4.0800    8.9600  -27.4600 C.ar      5 PHE5        0.0000 
     24 CZ          5.9700    8.1500  -27.9800 C.ar      5 PHE5        0.0000 
     25 CZ          2.4400    6.7000  -25.5900 C.ar      5 PHE5        0.0000 
     26 CZ          1.2700    6.2100  -24.7900 C.ar      5 PHE5        0.0000 
     27 CZ          1.9900    4.9200  -24.5200 C.ar      5 PHE5        0.0000 
     28 CZ          0.8100    4.4400  -23.7300 C.ar      5 PHE5        0.0000 
     29 CZ          4.6700    9.5500  -26.2100 C.ar      5 PHE5        0.0000 
     30 CZ          5.3900    8.2600  -25.9400 C.ar      5 PHE5        0.0000 
     31 CZ          4.2200    7.7800  -25.1400 C.ar      5 PHE5        0.0000 
     32 CZ          6.1100    6.9700  -25.6700 C.ar      5 PHE5        0.0000 
     33 CZ          4.9300    6.4900  -24.8700 C.ar      5 PHE5        0.0000 
     34 CZ          3.7600    6.0000  -24.0800 C.ar      5 PHE5        0.0000 
     35 CZ          2.5800    5.5200  -23.2800 C.ar      5 PHE5        0.0000 
     36 CZ          8.0000    6.1700  -26.1900 C.ar      5 PHE5        0.0000 
     37 CZ          6.8200    5.6900  -25.3900 C.ar      5 PHE5        0.0000 
     38 CZ          3.3000    4.2300  -23.0100 C.ar      5 PHE5        0.0000 
     39 CZ          2.1200    3.7500  -22.2100 C.ar      5 PHE5        0.0000 
     40 CZ          6.2400    5.8000  -23.3600 C.ar      5 PHE5        0.0000 
     41 CA          3.4800    8.3600  -28.7000 C.3       6 GLY6        0.0000 
     42 CA          3.0300    6.5900  -27.6300 C.3       6 GLY6        0.0000 
     43 CA          1.3900    4.3300  -25.7600 C.3       6 GLY6        0.0000 
     44 CA          2.1100    3.0400  -25.4900 C.3       6 GLY6        0.0000 
     45 CA          0.9300    2.5600  -24.6900 C.3       6 GLY6        0.0000 
     46 CA          5.2500    9.4400  -28.2500 C.3       6 GLY6        0.0000 
     47 CA          2.9000    8.4700  -26.6600 C.3       6 GLY6        0.0000 
     48 CA          4.3400    5.8900  -26.1100 C.3       6 GLY6        0.0000 
     49 CA          3.1600    5.4100  -25.3200 C.3       6 GLY6        0.0000 
     50 CA          3.8800    4.1200  -25.0400 C.3       6 GLY6        0.0000 
     51 CA          2.7000    3.6400  -24.2500 C.3       6 GLY6        0.0000 
     52 CA          3.4200    2.3500  -23.9700 C.3       6 GLY6        0.0000 
     53 CA          3.5000    9.0700  -25.4200 C.3       6 GLY6        0.0000 
     54 CA          5.6500    5.2000  -24.6000 C.3       6 GLY6        0.0000 
     55 CA          4.4700    4.7200  -23.8000 C.3       6 GLY6        0.0000 
     56 CA          0.9500    3.2600  -21.4100 C.3       6 GLY6        0.0000 
     57 CA          7.5400    4.4000  -25.1200 C.3       6 GLY6        0.0000 
     58 CA          6.3700    3.9100  -24.3200 C.3       6 GLY6        0.0000 
     59 CA          5.1900    3.4300  -23.5300 C.3       6 GLY6        0.0000 
     60 CA          5.0700    5.3100  -22.5600 C.3       6 GLY6        0.0000 
     61 CA          3.4400    3.0500  -20.7000 C.3       6 GLY6        0.0000 
     62 DU          3.6200    7.1800  -26.3900 H         7 CUB7        0.0000 
@<TRIPOS>BOND
@<TRIPOS>SUBSTRUCTURE
     1 SER1        1 GROUP   
     2 ALA2        3 GROUP   
     3 ASP3       18 GROUP   
     4 LYS4       21 GROUP   
     5 PHE5       23 GROUP   
     6 GLY6       41 GROUP   
     7 CUB7       62 GROUP   
@<TRIPOS>SET

