#    Name: 6c9p_1_MTP_CAVITY_N1_4
#    Modification time : Fri May 22 19:27:29 2020

@<TRIPOS>MOLECULE
6c9p_1_MTP_CAVITY_N1_4
   49     0     5     0     0
SMALL
NO_CHARGES


@<TRIPOS>ATOM
      1 OG         16.2900   23.1000   -9.2800 O.3       1 SER1        0.0000 
      2 OG         19.9600   23.3700   -9.3600 O.3       1 SER1        0.0000 
      3 OG         18.7800   22.8900   -8.5600 O.3       1 SER1        0.0000 
      4 O          15.1200   22.6100   -8.4800 O.2       2 ALA2        0.0000 
      5 O          21.7100   23.7500  -12.1900 O.2       2 ALA2        0.0000 
      6 O          15.8300   21.3200   -8.2100 O.2       2 ALA2        0.0000 
      7 O          22.4300   22.4600  -11.9200 O.2       2 ALA2        0.0000 
      8 O          17.7300   20.5200   -8.7300 O.2       2 ALA2        0.0000 
      9 O          18.4400   19.2300   -8.4600 O.2       2 ALA2        0.0000 
     10 O          17.2700   18.7500   -7.6600 O.2       2 ALA2        0.0000 
     11 O          19.1600   17.9400   -8.1900 O.2       2 ALA2        0.0000 
     12 O          17.9800   17.4600   -7.3900 O.2       2 ALA2        0.0000 
     13 O          16.4300   21.9200   -6.9700 O.2       2 ALA2        0.0000 
     14 O          15.2500   21.4300   -6.1700 O.2       2 ALA2        0.0000 
     15 N          20.6700   22.0900   -9.0800 N.am      2 ALA2        0.0000 
     16 N          19.5000   21.6000   -8.2900 N.am      2 ALA2        0.0000 
     17 O          17.1500   20.6300   -6.7000 O.2       2 ALA2        0.0000 
     18 O          15.9700   20.1500   -5.9000 O.2       2 ALA2        0.0000 
     19 O          19.3000   16.7600   -5.8700 O.2       2 ALA2        0.0000 
     20 O          19.8900   17.3600   -4.6300 O.2       2 ALA2        0.0000 
     21 NZ         14.6600   20.8400   -7.4100 N.4       3 LYS4        0.0000 
     22 CZ         21.2400   21.2700  -14.4000 C.ar      4 PHE5        0.0000 
     23 CZ         21.1200   23.1500  -13.4300 C.ar      4 PHE5        0.0000 
     24 CZ         16.4100   21.2100  -10.2500 C.ar      4 PHE5        0.0000 
     25 CZ         15.2400   20.7300   -9.4500 C.ar      4 PHE5        0.0000 
     26 CZ         21.8300   21.8700  -13.1600 C.ar      4 PHE5        0.0000 
     27 CZ         20.6600   21.3800  -12.3600 C.ar      4 PHE5        0.0000 
     28 CZ         19.4800   20.9000  -11.5700 C.ar      4 PHE5        0.0000 
     29 CZ         18.3100   20.4100  -10.7700 C.ar      4 PHE5        0.0000 
     30 CZ         17.1300   19.9300   -9.9700 C.ar      4 PHE5        0.0000 
     31 CZ         15.9600   19.4400   -9.1800 C.ar      4 PHE5        0.0000 
     32 CZ         17.8500   18.6400   -9.7000 C.ar      4 PHE5        0.0000 
     33 CZ         18.5600   17.3500   -9.4300 C.ar      4 PHE5        0.0000 
     34 CZ         20.5400   23.2600  -11.3900 C.ar      4 PHE5        0.0000 
     35 CZ         19.3600   22.7800  -10.6000 C.ar      4 PHE5        0.0000 
     36 CZ         18.1800   22.2900   -9.8000 C.ar      4 PHE5        0.0000 
     37 CZ         17.0100   21.8100   -9.0100 C.ar      4 PHE5        0.0000 
     38 CZ         16.5500   20.0400   -7.9400 C.ar      4 PHE5        0.0000 
     39 CA         21.3700   20.0900  -12.0900 C.3       5 GLY6        0.0000 
     40 CA         19.8200   24.5500  -11.6700 C.3       5 GLY6        0.0000 
     41 CA         21.2500   21.9800  -11.1200 C.3       5 GLY6        0.0000 
     42 CA         20.0800   21.4900  -10.3200 C.3       5 GLY6        0.0000 
     43 CA         18.9000   21.0100   -9.5300 C.3       5 GLY6        0.0000 
     44 CA         15.3800   19.5500   -7.1400 C.3       5 GLY6        0.0000 
     45 CA         16.0900   18.2600   -6.8700 C.3       5 GLY6        0.0000 
     46 CA         21.1300   23.8600  -10.1500 C.3       5 GLY6        0.0000 
     47 CA         17.6000   22.4000   -7.7600 C.3       5 GLY6        0.0000 
     48 CA         21.8500   22.5700   -9.8800 C.3       5 GLY6        0.0000 
     49 CA         18.3200   21.1200   -7.4900 C.3       5 GLY6        0.0000 
@<TRIPOS>BOND
@<TRIPOS>SUBSTRUCTURE
     1 SER1        1 GROUP   
     2 ALA2        4 GROUP   
     3 LYS4       21 GROUP   
     4 PHE5       22 GROUP   
     5 GLY6       39 GROUP   
@<TRIPOS>SET

