#    Name: 6c9p_4_MTP
#    Modification time : Fri May 22 19:27:40 2020

@<TRIPOS>MOLECULE
6c9p_4_MTP
   11    12     1     0     0
SMALL
NO_CHARGES


@<TRIPOS>ATOM
      1 N9         12.1290    6.4130  -40.7370 N.pl3     1 MTP405      0.0000 
      2 C8         12.4500    5.8520  -39.5630 C.2       1 MTP405      0.0000 
      3 N7         13.7500    6.1020  -39.3110 N.2       1 MTP405      0.0000 
      4 C5         14.2610    6.8340  -40.3460 C.ar      1 MTP405      0.0000 
      5 C6         15.5390    7.3920  -40.6580 C.ar      1 MTP405      0.0000 
      6 S6         16.9200    7.1580  -39.4920 S.3       1 MTP405      0.0000 
      7 CS         18.4520    7.8160  -40.2350 C.3       1 MTP405      0.0000 
      8 N1         15.7130    8.0760  -41.7890 N.ar      1 MTP405      0.0000 
      9 C2         14.6990    8.2440  -42.6370 C.ar      1 MTP405      0.0000 
     10 N3         13.4950    7.7400  -42.3770 N.ar      1 MTP405      0.0000 
     11 C4         13.2420    7.0250  -41.2370 C.ar      1 MTP405      0.0000 
@<TRIPOS>BOND
     1    1    2 1    
     2    1   11 1    
     3    2    3 2    
     4    3    4 1    
     5    4    5 ar   
     6    4   11 ar   
     7    5    6 1    
     8    5    8 ar   
     9    6    7 1    
    10    8    9 ar   
    11    9   10 ar   
    12   10   11 ar   
@<TRIPOS>SUBSTRUCTURE
     1 MTP405      1 GROUP   
@<TRIPOS>SET

