#    Name: 6c9p_3_MTP
#    Modification time : Fri May 22 19:27:35 2020

@<TRIPOS>MOLECULE
6c9p_3_MTP
   20    22     1     0     0
SMALL
NO_CHARGES


@<TRIPOS>ATOM
      1 O5'         4.6450    6.9730  -30.8330 O.3       1 MTP404      0.0000 
      2 C5'         5.0130    8.0890  -30.0280 C.3       1 MTP404      0.0000 
      3 C4'         3.9060    8.4640  -29.0710 C.3       1 MTP404      0.0000 
      4 O4'         3.6940    7.3860  -28.1440 O.3       1 MTP404      0.0000 
      5 C1'         3.1690    7.8940  -26.9410 C.3       1 MTP404      0.0000 
      6 N9          3.6040    6.9970  -25.8660 N.pl3     1 MTP404      0.0000 
      7 C8          4.8220    6.9630  -25.3130 C.2       1 MTP404      0.0000 
      8 N7          4.8450    5.9850  -24.3880 N.2       1 MTP404      0.0000 
      9 C5          3.6200    5.3790  -24.3650 C.ar      1 MTP404      0.0000 
     10 C6          3.0330    4.3090  -23.6200 C.ar      1 MTP404      0.0000 
     11 S6          4.0300    3.4420  -22.3650 S.3       1 MTP404      0.0000 
     12 CS          2.9090    2.4260  -21.3420 C.3       1 MTP404      0.0000 
     13 N1          1.7730    3.9480  -23.8430 N.ar      1 MTP404      0.0000 
     14 C2          1.0480    4.5810  -24.7580 C.ar      1 MTP404      0.0000 
     15 N3          1.5610    5.5800  -25.4690 N.ar      1 MTP404      0.0000 
     16 C4          2.8490    6.0100  -25.2970 C.ar      1 MTP404      0.0000 
     17 C2'         3.6560    9.3460  -26.8130 C.3       1 MTP404      0.0000 
     18 O2'         2.6330   10.1910  -26.3290 O.3       1 MTP404      0.0000 
     19 C3'         4.1500    9.7130  -28.2290 C.3       1 MTP404      0.0000 
     20 O3'         3.3630   10.7860  -28.7460 O.3       1 MTP404      0.0000 
@<TRIPOS>BOND
     1    1    2 1    
     2    2    3 1    
     3    3    4 1    
     4    3   19 1    
     5    4    5 1    
     6    5    6 1    
     7    5   17 1    
     8    6    7 1    
     9    6   16 1    
    10    7    8 2    
    11    8    9 1    
    12    9   10 ar   
    13    9   16 ar   
    14   10   11 1    
    15   10   13 ar   
    16   11   12 1    
    17   13   14 ar   
    18   14   15 ar   
    19   15   16 ar   
    20   17   18 1    
    21   17   19 1    
    22   19   20 1    
@<TRIPOS>SUBSTRUCTURE
     1 MTP404      1 GROUP   
@<TRIPOS>SET

