#    Name: 6n3g_1_SAH
#    Modification time : Fri May 22 19:26:03 2020

@<TRIPOS>MOLECULE
6n3g_1_SAH
   26    28     1     0     0
SMALL
NO_CHARGES


@<TRIPOS>ATOM
      1 N         168.5460   58.4270    8.3150 N.4       1 SAH501      0.0000 
      2 CA        167.5290   58.0140    7.3480 C.3       1 SAH501      0.0000 
      3 CB        167.6970   56.5480    7.0100 C.3       1 SAH501      0.0000 
      4 CG        168.3260   56.2500    5.6430 C.3       1 SAH501      0.0000 
      5 SD        167.6420   56.9250    4.0890 S.3       1 SAH501      0.0000 
      6 C         166.1250   58.2960    7.8990 C.2       1 SAH501      0.0000 
      7 O         165.0830   58.2020    7.2370 O.co2     1 SAH501      0.0000 
      8 OXT       166.0040   58.6610    9.0680 O.co2     1 SAH501      0.0000 
      9 C5'       169.1040   57.9640    3.7320 C.3       1 SAH501      0.0000 
     10 C4'       169.2360   59.3130    4.4480 C.3       1 SAH501      0.0000 
     11 O4'       170.0020   59.0740    5.6070 O.3       1 SAH501      0.0000 
     12 C3'       170.1550   60.2720    3.7050 C.3       1 SAH501      0.0000 
     13 O3'       169.4470   61.1250    2.8440 O.3       1 SAH501      0.0000 
     14 C2'       170.8120   61.1200    4.7630 C.3       1 SAH501      0.0000 
     15 O2'       169.9680   62.1560    5.2030 O.3       1 SAH501      0.0000 
     16 C1'       170.8740   60.1400    5.8900 C.3       1 SAH501      0.0000 
     17 N9        172.1800   59.4970    6.0210 N.pl3     1 SAH501      0.0000 
     18 C8        172.4740   58.2060    5.6970 C.2       1 SAH501      0.0000 
     19 N7        173.7770   57.9740    5.9970 N.2       1 SAH501      0.0000 
     20 C5        174.3020   59.1000    6.5030 C.ar      1 SAH501      0.0000 
     21 C6        175.5590   59.4190    6.9630 C.ar      1 SAH501      0.0000 
     22 N6        176.5350   58.5390    6.9770 N.pl3     1 SAH501      0.0000 
     23 N1        175.8100   60.6730    7.4360 N.ar      1 SAH501      0.0000 
     24 C2        174.8080   61.6250    7.4550 C.ar      1 SAH501      0.0000 
     25 N3        173.5500   61.3090    6.9930 N.ar      1 SAH501      0.0000 
     26 C4        173.3040   60.0600    6.5380 C.ar      1 SAH501      0.0000 
@<TRIPOS>BOND
     1    1    2 1    
     2    2    3 1    
     3    2    6 1    
     4    3    4 1    
     5    4    5 1    
     6    5    9 1    
     7    6    7 ar   
     8    6    8 ar   
     9    9   10 1    
    10   10   11 1    
    11   10   12 1    
    12   11   16 1    
    13   12   13 1    
    14   12   14 1    
    15   14   15 1    
    16   14   16 1    
    17   16   17 1    
    18   17   18 1    
    19   17   26 1    
    20   18   19 2    
    21   19   20 1    
    22   20   21 ar   
    23   20   26 ar   
    24   21   22 1    
    25   21   23 ar   
    26   23   24 ar   
    27   24   25 ar   
    28   25   26 ar   
@<TRIPOS>SUBSTRUCTURE
     1 SAH501      1 GROUP   
@<TRIPOS>SET

