#    Name: 6n3g_1_SAH_CAVITY_N1_8
#    Modification time : Fri May 22 19:26:04 2020

@<TRIPOS>MOLECULE
6n3g_1_SAH_CAVITY_N1_8
   90     0     7     0     0
SMALL
NO_CHARGES


@<TRIPOS>ATOM
      1 OG        170.0400   53.8500   -2.9600 O.3       1 SER1        0.0000 
      2 OG        170.4600   54.3200   -0.9300 O.3       1 SER1        0.0000 
      3 OG        168.1400   57.0800    3.3600 O.3       1 SER1        0.0000 
      4 OG        168.7900   55.7400    3.5300 O.3       1 SER1        0.0000 
      5 OG        169.2800   57.7300    4.0800 O.3       1 SER1        0.0000 
      6 OG        169.1100   61.0600    4.4700 O.3       1 SER1        0.0000 
      7 OG        170.4200   58.3800    4.8100 O.3       1 SER1        0.0000 
      8 OG        170.2500   61.7100    5.1900 O.3       1 SER1        0.0000 
      9 OG        172.9400   57.8800    4.4000 O.3       1 SER1        0.0000 
     10 N         167.9500   54.8200   -0.5200 N.am      2 ALA2        0.0000 
     11 N         169.3200   53.6700   -1.6600 N.am      2 ALA2        0.0000 
     12 O         167.0000   56.4300    2.6400 O.2       2 ALA2        0.0000 
     13 N         167.6500   55.0900    2.8100 N.am      2 ALA2        0.0000 
     14 N         168.3100   53.7600    2.9800 N.am      2 ALA2        0.0000 
     15 N         168.3700   55.2800    1.5000 N.am      2 ALA2        0.0000 
     16 N         169.0900   55.4700    0.2000 N.am      2 ALA2        0.0000 
     17 N         165.9800   56.5200    7.2700 N.am      2 ALA2        0.0000 
     18 N         166.7000   56.7100    5.9700 N.am      2 ALA2        0.0000 
     19 O         166.7600   58.2300    4.5000 O.2       2 ALA2        0.0000 
     20 N         167.4200   56.8900    4.6700 N.am      2 ALA2        0.0000 
     21 N         167.4800   58.4200    3.1900 N.am      2 ALA2        0.0000 
     22 N         168.8600   57.2700    2.0600 N.am      2 ALA2        0.0000 
     23 N         167.1300   57.1700    8.0000 N.am      2 ALA2        0.0000 
     24 N         167.8400   57.3600    6.6900 N.am      2 ALA2        0.0000 
     25 N         168.5600   57.5500    5.3900 N.am      2 ALA2        0.0000 
     26 N         167.9700   60.4100    3.7500 N.am      2 ALA2        0.0000 
     27 N         168.6200   59.0700    3.9200 N.am      2 ALA2        0.0000 
     28 N         168.6900   60.6000    2.4400 N.am      2 ALA2        0.0000 
     29 N         169.3400   59.2600    2.6100 N.am      2 ALA2        0.0000 
     30 O         166.2400   60.3100    9.6800 O.2       2 ALA2        0.0000 
     31 O         167.6100   59.1600    8.5500 O.2       2 ALA2        0.0000 
     32 N         169.7000   58.2000    6.1100 N.am      2 ALA2        0.0000 
     33 N         169.8300   61.2500    3.1700 N.am      2 ALA2        0.0000 
     34 N         170.4800   59.9100    3.3400 N.am      2 ALA2        0.0000 
     35 N         169.4700   60.0000    7.9700 N.am      2 ALA2        0.0000 
     36 N         170.1900   60.1900    6.6700 N.am      2 ALA2        0.0000 
     37 N         171.5600   59.0400    5.5300 N.am      2 ALA2        0.0000 
     38 N         172.2200   57.7000    5.7000 N.am      2 ALA2        0.0000 
     39 N         170.9700   61.9000    3.8900 N.am      2 ALA2        0.0000 
     40 N         171.3300   60.8400    7.3900 N.am      2 ALA2        0.0000 
     41 N         171.9900   59.5000    7.5600 N.am      2 ALA2        0.0000 
     42 N         172.7100   59.6900    6.2500 N.am      2 ALA2        0.0000 
     43 N         171.8200   62.8300    7.9400 N.am      2 ALA2        0.0000 
     44 N         171.2200   65.6900    6.3000 N.am      2 ALA2        0.0000 
     45 N         171.8800   64.3500    6.4700 N.am      2 ALA2        0.0000 
     46 N         173.6800   63.6600    7.3600 N.am      2 ALA2        0.0000 
     47 N         174.3300   62.3300    7.5300 N.am      2 ALA2        0.0000 
     48 OD1       166.4700   58.5100    7.8300 O.co2     3 ASP3        0.0000 
     49 NZ        167.1900   58.7000    6.5200 N.4       4 LYS4        0.0000 
     50 NZ        167.2500   60.2200    5.0500 N.4       4 LYS4        0.0000 
     51 NZ        167.9100   58.8800    5.2200 N.4       4 LYS4        0.0000 
     52 NZ        166.9600   60.5000    8.3800 N.4       4 LYS4        0.0000 
     53 NZ        168.3300   59.3500    7.2500 N.4       4 LYS4        0.0000 
     54 NZ        169.0500   59.5400    5.9400 N.4       4 LYS4        0.0000 
     55 NZ        169.5300   61.5200    6.5000 N.4       4 LYS4        0.0000 
     56 NZ        170.0200   63.5100    7.0500 N.4       4 LYS4        0.0000 
     57 NZ        170.6800   62.1800    7.2200 N.4       4 LYS4        0.0000 
     58 CZ        167.8800   53.2900    0.9500 C.ar      5 PHE5        0.0000 
     59 CZ        168.6000   53.4800   -0.3500 C.ar      5 PHE5        0.0000 
     60 CZ        169.2600   52.1400   -0.1800 C.ar      5 PHE5        0.0000 
     61 CZ        169.9800   52.3300   -1.4900 C.ar      5 PHE5        0.0000 
     62 CZ        169.0300   53.9400    1.6700 C.ar      5 PHE5        0.0000 
     63 CZ        169.6800   52.6000    1.8400 C.ar      5 PHE5        0.0000 
     64 CZ        169.7400   54.1300    0.3700 C.ar      5 PHE5        0.0000 
     65 CZ        170.4000   52.7900    0.5400 C.ar      5 PHE5        0.0000 
     66 CZ        171.1200   52.9800   -0.7600 C.ar      5 PHE5        0.0000 
     67 CZ        169.5100   55.9300    2.2300 C.ar      5 PHE5        0.0000 
     68 CZ        170.0000   57.9200    2.7800 C.ar      5 PHE5        0.0000 
     69 CZ        171.1400   58.5700    3.5000 C.ar      5 PHE5        0.0000 
     70 CZ        171.6300   60.5600    4.0600 C.ar      5 PHE5        0.0000 
     71 CZ        172.2800   59.2200    4.2300 C.ar      5 PHE5        0.0000 
     72 CZ        170.7400   63.7000    5.7500 C.ar      5 PHE5        0.0000 
     73 CZ        172.0500   61.0200    6.0800 C.ar      5 PHE5        0.0000 
     74 CZ        173.4200   59.8700    4.9500 C.ar      5 PHE5        0.0000 
     75 CZ        174.0800   58.5400    5.1200 C.ar      5 PHE5        0.0000 
     76 CA        167.2300   54.6300    0.7800 C.3       6 GLY6        0.0000 
     77 CA        168.1000   61.1500    9.1000 C.3       6 GLY6        0.0000 
     78 CA        169.9600   61.9900    8.5200 C.3       6 GLY6        0.0000 
     79 CA        171.3900   62.3600    5.9200 C.3       6 GLY6        0.0000 
     80 CA        173.3600   58.3500    6.4200 C.3       6 GLY6        0.0000 
     81 CA        171.1000   62.6400    9.2500 C.3       6 GLY6        0.0000 
     82 CA        172.4700   61.4900    8.1100 C.3       6 GLY6        0.0000 
     83 CA        172.5400   63.0100    6.6400 C.3       6 GLY6        0.0000 
     84 CA        173.1900   61.6800    6.8100 C.3       6 GLY6        0.0000 
     85 CA        173.8500   60.3400    6.9800 C.3       6 GLY6        0.0000 
     86 CA        174.5000   59.0000    7.1400 C.3       6 GLY6        0.0000 
     87 CA        173.0200   65.0000    7.1900 C.3       6 GLY6        0.0000 
     88 DU        169.7700   59.7200    4.6400 H         7 CUB7        0.0000 
     89 DU        170.9100   60.3700    5.3600 H         7 CUB7        0.0000 
     90 DU        171.1600   64.1600    7.7700 H         7 CUB7        0.0000 
@<TRIPOS>BOND
@<TRIPOS>SUBSTRUCTURE
     1 SER1        1 GROUP   
     2 ALA2       10 GROUP   
     3 ASP3       48 GROUP   
     4 LYS4       49 GROUP   
     5 PHE5       58 GROUP   
     6 GLY6       76 GROUP   
     7 CUB7       88 GROUP   
@<TRIPOS>SET

