#    Name: 6uo2_2_TSN
#    Modification time : Fri May 22 19:27:21 2020

@<TRIPOS>MOLECULE
6uo2_2_TSN
   44    44     1     0     0
SMALL
NO_CHARGES


@<TRIPOS>ATOM
      1 O1         32.4090   51.4190   36.8520 O.3       1 TSN504      0.0000 
      2 O2         31.3270   49.1110   37.3300 O.2       1 TSN504      0.0000 
      3 O3         32.3550   42.5270   39.8070 O.2       1 TSN504      0.0000 
      4 N1         33.1700   50.3290   36.8060 N.am      1 TSN504      0.0000 
      5 N2         34.8710   37.9110   36.3200 N.pl3     1 TSN504      0.0000 
      6 C1         33.8460   41.3390   38.4770 C.ar      1 TSN504      0.0000 
      7 C2         32.8770   40.3820   38.1690 C.ar      1 TSN504      0.0000 
      8 C3         33.2020   39.2500   37.4520 C.ar      1 TSN504      0.0000 
      9 C4         34.5260   39.0550   37.0240 C.ar      1 TSN504      0.0000 
     10 C5         35.5050   40.0270   37.3450 C.ar      1 TSN504      0.0000 
     11 C6         35.1610   41.1410   38.0590 C.ar      1 TSN504      0.0000 
     12 C7         33.4380   42.4990   39.2430 C.2       1 TSN504      0.0000 
     13 C8         34.3970   43.6830   39.3270 C.3       1 TSN504      0.0000 
     14 C9         33.6740   44.9370   39.0210 C.2       1 TSN504      0.0000 
     15 C10        34.0420   45.8240   38.0880 C.2       1 TSN504      0.0000 
     16 C11        33.2210   47.0160   37.9520 C.2       1 TSN504      0.0000 
     17 C12        33.4330   47.9690   37.0450 C.2       1 TSN504      0.0000 
     18 C13        32.5270   49.1350   37.0660 C.2       1 TSN504      0.0000 
     19 C14        34.9790   43.8100   40.7050 C.3       1 TSN504      0.0000 
     20 C15        35.2470   45.6830   37.2020 C.3       1 TSN504      0.0000 
     21 C17        33.8930   36.8440   36.1930 C.3       1 TSN504      0.0000 
     22 C16        36.1960   37.7000   35.7180 C.3       1 TSN504      0.0000 
     23 HO1        32.4030   51.7250   36.0600 H         1 TSN504      0.0000 
     24 HN1        34.0080   50.4140   36.6350 H         1 TSN504      0.0000 
     25 H21        31.9970   40.5000   38.4460 H         1 TSN504      0.0000 
     26 H31        32.5270   38.6370   37.2690 H         1 TSN504      0.0000 
     27 H51        36.3890   39.9170   37.0800 H         1 TSN504      0.0000 
     28 H61        35.8230   41.7640   38.2550 H         1 TSN504      0.0000 
     29 H8         35.1330   43.5410   38.7110 H         1 TSN504      0.0000 
     30 H9         32.9240   45.0840   39.5500 H         1 TSN504      0.0000 
     31 H111       32.5260   47.1090   38.5630 H         1 TSN504      0.0000 
     32 H121       34.1220   47.9390   36.4210 H         1 TSN504      0.0000 
     33 H141       34.3130   43.6790   41.3980 H         1 TSN504      0.0000 
     34 H142       35.6860   43.1610   40.8530 H         1 TSN504      0.0000 
     35 H143       35.3720   44.6860   40.8430 H         1 TSN504      0.0000 
     36 H151       35.6830   44.8200   37.2780 H         1 TSN504      0.0000 
     37 H152       35.0180   45.7580   36.2620 H         1 TSN504      0.0000 
     38 H153       35.9280   46.3390   37.4180 H         1 TSN504      0.0000 
     39 H171       34.2430   36.0910   35.6920 H         1 TSN504      0.0000 
     40 H172       33.6180   36.5070   37.0610 H         1 TSN504      0.0000 
     41 H173       33.0910   37.1390   35.7340 H         1 TSN504      0.0000 
     42 H161       36.8180   38.4160   35.9230 H         1 TSN504      0.0000 
     43 H162       36.6110   36.8840   36.0380 H         1 TSN504      0.0000 
     44 H163       36.1410   37.6590   34.7500 H         1 TSN504      0.0000 
@<TRIPOS>BOND
     1    1    4 1    
     2    2   18 2    
     3    1   23 1    
     4    3   12 2    
     5    4   18 am   
     6    5    9 1    
     7    4   24 1    
     8    5   21 1    
     9    5   22 1    
    10    6    7 ar   
    11    6   11 ar   
    12    6   12 1    
    13    7    8 ar   
    14    8    9 ar   
    15    7   25 1    
    16    9   10 ar   
    17    8   26 1    
    18   10   11 ar   
    19   12   13 1    
    20   10   27 1    
    21   11   28 1    
    22   13   14 1    
    23   13   19 1    
    24   13   29 1    
    25   14   15 2    
    26   15   16 1    
    27   14   30 1    
    28   15   20 1    
    29   16   17 2    
    30   17   18 1    
    31   16   31 1    
    32   19   33 1    
    33   17   32 1    
    34   19   34 1    
    35   19   35 1    
    36   20   36 1    
    37   20   37 1    
    38   20   38 1    
    39   21   39 1    
    40   21   40 1    
    41   21   41 1    
    42   22   42 1    
    43   22   43 1    
    44   22   44 1    
@<TRIPOS>SUBSTRUCTURE
     1 TSN504      1 GROUP   
@<TRIPOS>SET

