#    Name: 6uo2_1_TSN
#    Modification time : Fri May 22 19:27:15 2020

@<TRIPOS>MOLECULE
6uo2_1_TSN
   44    44     1     0     0
SMALL
NO_CHARGES


@<TRIPOS>ATOM
      1 O1         44.3310   35.3190   51.5540 O.3       1 TSN504      0.0000 
      2 O2         43.7520   37.5800   52.5910 O.2       1 TSN504      0.0000 
      3 O3         41.8390   44.4270   51.1680 O.2       1 TSN504      0.0000 
      4 N1         44.5750   36.4290   50.8510 N.am      1 TSN504      0.0000 
      5 N2         45.8210   48.9140   48.8650 N.pl3     1 TSN504      0.0000 
      6 C1         43.4470   45.6280   49.9230 C.ar      1 TSN504      0.0000 
      7 C2         43.9910   45.7530   48.6460 C.ar      1 TSN504      0.0000 
      8 C3         44.7720   46.8260   48.3020 C.ar      1 TSN504      0.0000 
      9 C4         45.0320   47.8350   49.2420 C.ar      1 TSN504      0.0000 
     10 C5         44.4860   47.7250   50.5460 C.ar      1 TSN504      0.0000 
     11 C6         43.7030   46.6260   50.8710 C.ar      1 TSN504      0.0000 
     12 C7         42.6160   44.4380   50.2310 C.2       1 TSN504      0.0000 
     13 C8         42.7350   43.2080   49.3220 C.3       1 TSN504      0.0000 
     14 C9         42.7630   41.9290   50.0990 C.2       1 TSN504      0.0000 
     15 C10        43.6620   40.9550   49.8900 C.2       1 TSN504      0.0000 
     16 C11        43.5710   39.7440   50.6900 C.2       1 TSN504      0.0000 
     17 C12        44.4800   38.7760   50.6480 C.2       1 TSN504      0.0000 
     18 C13        44.2440   37.5950   51.4730 C.2       1 TSN504      0.0000 
     19 C14        41.5560   43.1630   48.3710 C.3       1 TSN504      0.0000 
     20 C15        44.7580   40.9980   48.8690 C.3       1 TSN504      0.0000 
     21 C17        47.0170   48.6750   48.0550 C.3       1 TSN504      0.0000 
     22 C16        45.4850   50.2930   49.2090 C.3       1 TSN504      0.0000 
     23 HO1        44.8180   34.7170   51.2040 H         1 TSN504      0.0000 
     24 HN1        44.9040   36.3600   50.0590 H         1 TSN504      0.0000 
     25 H21        43.8320   45.0970   48.0060 H         1 TSN504      0.0000 
     26 H31        45.1080   46.8610   47.4350 H         1 TSN504      0.0000 
     27 H51        44.6440   48.3780   51.1890 H         1 TSN504      0.0000 
     28 H61        43.3520   46.5690   51.7300 H         1 TSN504      0.0000 
     29 H8         43.5330   43.3010   48.7790 H         1 TSN504      0.0000 
     30 H9         42.0940   41.8440   50.7400 H         1 TSN504      0.0000 
     31 H111       42.8190   39.6530   51.2300 H         1 TSN504      0.0000 
     32 H121       45.2390   38.8100   50.1100 H         1 TSN504      0.0000 
     33 H141       41.5470   43.9190   47.7630 H         1 TSN504      0.0000 
     34 H142       41.5640   42.3560   47.8340 H         1 TSN504      0.0000 
     35 H143       40.7140   43.1700   48.8540 H         1 TSN504      0.0000 
     36 H151       44.8460   41.8610   48.4340 H         1 TSN504      0.0000 
     37 H152       45.6290   40.8350   49.2630 H         1 TSN504      0.0000 
     38 H153       44.6050   40.3610   48.1540 H         1 TSN504      0.0000 
     39 H171       47.4920   49.4990   47.8620 H         1 TSN504      0.0000 
     40 H172       47.6400   48.0840   48.5050 H         1 TSN504      0.0000 
     41 H173       46.8020   48.2680   47.2010 H         1 TSN504      0.0000 
     42 H161       46.1980   50.7440   49.6860 H         1 TSN504      0.0000 
     43 H162       45.3100   50.8270   48.4190 H         1 TSN504      0.0000 
     44 H163       44.7060   50.3320   49.7860 H         1 TSN504      0.0000 
@<TRIPOS>BOND
     1    1    4 1    
     2    2   18 2    
     3    1   23 1    
     4    3   12 2    
     5    4   18 am   
     6    5    9 1    
     7    4   24 1    
     8    5   21 1    
     9    5   22 1    
    10    6    7 ar   
    11    6   11 ar   
    12    6   12 1    
    13    7    8 ar   
    14    8    9 ar   
    15    7   25 1    
    16    9   10 ar   
    17    8   26 1    
    18   10   11 ar   
    19   12   13 1    
    20   10   27 1    
    21   11   28 1    
    22   13   14 1    
    23   13   19 1    
    24   13   29 1    
    25   14   15 2    
    26   15   16 1    
    27   14   30 1    
    28   15   20 1    
    29   16   17 2    
    30   17   18 1    
    31   16   31 1    
    32   19   33 1    
    33   17   32 1    
    34   19   34 1    
    35   19   35 1    
    36   20   36 1    
    37   20   37 1    
    38   20   38 1    
    39   21   39 1    
    40   21   40 1    
    41   21   41 1    
    42   22   42 1    
    43   22   43 1    
    44   22   44 1    
@<TRIPOS>SUBSTRUCTURE
     1 TSN504      1 GROUP   
@<TRIPOS>SET

