#    Name: 6uo2_1_TSN_CAVITY_N1_4
#    Modification time : Fri May 22 19:27:16 2020

@<TRIPOS>MOLECULE
6uo2_1_TSN_CAVITY_N1_4
  101     0     6     0     0
SMALL
NO_CHARGES


@<TRIPOS>ATOM
      1 OG         44.2300   38.3400   50.5200 O.3       1 SER1        0.0000 
      2 OG         41.6000   40.2000   49.5900 O.3       1 SER1        0.0000 
      3 OG         42.1800   41.3800   50.2900 O.3       1 SER1        0.0000 
      4 OG         43.7900   42.2500   47.4800 O.3       1 SER1        0.0000 
      5 OG         41.8900   43.1900   47.4800 O.3       1 SER1        0.0000 
      6 OG         43.2100   43.4600   49.1200 O.3       1 SER1        0.0000 
      7 OG         42.4800   44.3800   48.1900 O.3       1 SER1        0.0000 
      8 OG         44.2400   45.5400   47.9500 O.3       1 SER1        0.0000 
      9 OG         44.9700   47.0200   51.2400 O.3       1 SER1        0.0000 
     10 OG         46.1400   47.0000   50.3000 O.3       1 SER1        0.0000 
     11 OG         47.3100   46.9800   49.3600 O.3       1 SER1        0.0000 
     12 OG         45.5600   48.2100   51.9400 O.3       1 SER1        0.0000 
     13 OG         46.7300   48.1900   51.0000 O.3       1 SER1        0.0000 
     14 OG         45.2700   52.4200   51.4800 O.3       1 SER1        0.0000 
     15 N          43.0700   45.5700   48.8900 N.am      2 ALA2        0.0000 
     16 N          43.6500   46.7500   49.6000 N.am      2 ALA2        0.0000 
     17 N          44.8200   46.7300   48.6600 N.am      2 ALA2        0.0000 
     18 N          44.0900   47.6500   47.7200 N.am      2 ALA2        0.0000 
     19 N          42.6300   47.0700   53.1100 N.am      2 ALA2        0.0000 
     20 N          43.8000   47.0500   52.1700 N.am      2 ALA2        0.0000 
     21 N          48.4800   46.9600   48.4200 N.am      2 ALA2        0.0000 
     22 N          40.7300   48.0100   53.1200 N.am      2 ALA2        0.0000 
     23 N          41.9000   47.9900   52.1800 N.am      2 ALA2        0.0000 
     24 N          43.0700   47.9600   51.2400 N.am      2 ALA2        0.0000 
     25 N          44.2400   47.9400   50.3000 N.am      2 ALA2        0.0000 
     26 N          46.5800   47.9000   48.4200 N.am      2 ALA2        0.0000 
     27 N          47.7500   47.8700   47.4900 N.am      2 ALA2        0.0000 
     28 N          45.8500   48.8100   47.4900 N.am      2 ALA2        0.0000 
     29 N          47.0200   48.7900   46.5500 N.am      2 ALA2        0.0000 
     30 N          43.2200   48.2600   53.8200 N.am      2 ALA2        0.0000 
     31 N          44.3900   48.2300   52.8800 N.am      2 ALA2        0.0000 
     32 N          44.8300   49.1300   51.0100 N.am      2 ALA2        0.0000 
     33 N          49.5100   49.0400   47.2500 N.am      2 ALA2        0.0000 
     34 O          46.4400   50.0000   48.1900 O.2       2 ALA2        0.0000 
     35 O          47.6100   49.9800   47.2600 O.2       2 ALA2        0.0000 
     36 N          45.4200   50.3100   51.7100 N.am      2 ALA2        0.0000 
     37 N          44.6900   51.2300   50.7700 N.am      2 ALA2        0.0000 
     38 NZ         44.9800   49.4200   53.5800 N.4       3 LYS4        0.0000 
     39 NZ         46.0000   51.5000   52.4100 N.4       3 LYS4        0.0000 
     40 CZ         43.5000   39.2600   49.5800 C.ar      4 PHE5        0.0000 
     41 CZ         44.6700   39.2300   48.6400 C.ar      4 PHE5        0.0000 
     42 CZ         42.7700   40.1700   48.6500 C.ar      4 PHE5        0.0000 
     43 CZ         41.7400   40.4900   52.1600 C.ar      4 PHE5        0.0000 
     44 CZ         42.9100   40.4700   51.2300 C.ar      4 PHE5        0.0000 
     45 CZ         44.0800   40.4400   50.2900 C.ar      4 PHE5        0.0000 
     46 CZ         45.2500   40.4200   49.3500 C.ar      4 PHE5        0.0000 
     47 CZ         43.3500   41.3600   49.3500 C.ar      4 PHE5        0.0000 
     48 CZ         42.6200   42.2800   48.4200 C.ar      4 PHE5        0.0000 
     49 CZ         40.7200   43.2200   48.4200 C.ar      4 PHE5        0.0000 
     50 CZ         42.3300   41.6700   52.8700 C.ar      4 PHE5        0.0000 
     51 CZ         43.5000   41.6500   51.9300 C.ar      4 PHE5        0.0000 
     52 CZ         42.7700   42.5700   51.0000 C.ar      4 PHE5        0.0000 
     53 CZ         43.9400   42.5500   50.0600 C.ar      4 PHE5        0.0000 
     54 CZ         45.1100   42.5200   49.1200 C.ar      4 PHE5        0.0000 
     55 CZ         43.3600   43.7600   51.7000 C.ar      4 PHE5        0.0000 
     56 CZ         42.6300   44.6700   50.7600 C.ar      4 PHE5        0.0000 
     57 CZ         43.8000   44.6500   49.8300 C.ar      4 PHE5        0.0000 
     58 CZ         44.3800   45.8400   50.5300 C.ar      4 PHE5        0.0000 
     59 CZ         45.5500   45.8100   49.5900 C.ar      4 PHE5        0.0000 
     60 CZ         47.9000   48.1700   50.0600 C.ar      4 PHE5        0.0000 
     61 CZ         46.0000   49.1100   50.0700 C.ar      4 PHE5        0.0000 
     62 CZ         47.1700   49.0800   49.1300 C.ar      4 PHE5        0.0000 
     63 CZ         48.3400   49.0600   48.1900 C.ar      4 PHE5        0.0000 
     64 CZ         46.1500   49.4000   52.6400 C.ar      4 PHE5        0.0000 
     65 CZ         47.3200   49.3700   51.7100 C.ar      4 PHE5        0.0000 
     66 CZ         46.5900   50.2900   50.7700 C.ar      4 PHE5        0.0000 
     67 CZ         45.8600   51.2100   49.8400 C.ar      4 PHE5        0.0000 
     68 CZ         47.0300   51.1900   48.9000 C.ar      4 PHE5        0.0000 
     69 CA         40.8600   41.1100   48.6500 C.3       5 GLY6        0.0000 
     70 CA         44.5200   41.3400   48.4100 C.3       5 GLY6        0.0000 
     71 CA         41.1600   41.7000   53.8100 C.3       5 GLY6        0.0000 
     72 CA         40.4300   42.6100   52.8700 C.3       5 GLY6        0.0000 
     73 CA         39.7000   43.5300   51.9400 C.3       5 GLY6        0.0000 
     74 CA         40.8700   43.5100   51.0000 C.3       5 GLY6        0.0000 
     75 CA         40.1400   44.4300   50.0600 C.3       5 GLY6        0.0000 
     76 CA         41.3100   44.4000   49.1300 C.3       5 GLY6        0.0000 
     77 CA         41.7500   42.8800   54.5100 C.3       5 GLY6        0.0000 
     78 CA         42.9200   42.8600   53.5700 C.3       5 GLY6        0.0000 
     79 CA         39.8500   43.8200   54.5100 C.3       5 GLY6        0.0000 
     80 CA         41.0200   43.8000   53.5800 C.3       5 GLY6        0.0000 
     81 CA         42.1900   43.7800   52.6400 C.3       5 GLY6        0.0000 
     82 CA         39.1200   44.7400   53.5800 C.3       5 GLY6        0.0000 
     83 CA         40.2900   44.7200   52.6400 C.3       5 GLY6        0.0000 
     84 CA         41.4600   44.7000   51.7000 C.3       5 GLY6        0.0000 
     85 CA         44.9700   44.6300   48.8900 C.3       5 GLY6        0.0000 
     86 CA         41.6100   44.9900   54.2800 C.3       5 GLY6        0.0000 
     87 CA         42.7800   44.9700   53.3400 C.3       5 GLY6        0.0000 
     88 CA         43.9500   44.9400   52.4000 C.3       5 GLY6        0.0000 
     89 CA         40.8700   45.9000   53.3500 C.3       5 GLY6        0.0000 
     90 CA         42.0400   45.8800   52.4100 C.3       5 GLY6        0.0000 
     91 CA         46.7200   45.7900   48.6500 C.3       5 GLY6        0.0000 
     92 CA         42.4800   46.7800   50.5300 C.3       5 GLY6        0.0000 
     93 CA         45.9900   46.7100   47.7200 C.3       5 GLY6        0.0000 
     94 CA         41.4600   47.0900   54.0500 C.3       5 GLY6        0.0000 
     95 CA         44.6800   48.8400   48.4300 C.3       5 GLY6        0.0000 
     96 CA         45.2700   50.0200   49.1300 C.3       5 GLY6        0.0000 
     97 DU         41.4500   42.3000   49.3600 H         6 CUB7        0.0000 
     98 DU         41.6000   42.5900   51.9300 H         6 CUB7        0.0000 
     99 DU         42.0400   43.4900   50.0600 H         6 CUB7        0.0000 
    100 DU         43.2100   45.8600   51.4700 H         6 CUB7        0.0000 
    101 DU         45.4100   47.9200   49.3600 H         6 CUB7        0.0000 
@<TRIPOS>BOND
@<TRIPOS>SUBSTRUCTURE
     1 SER1        1 GROUP   
     2 ALA2       15 GROUP   
     3 LYS4       38 GROUP   
     4 PHE5       40 GROUP   
     5 GLY6       69 GROUP   
     6 CUB7       97 GROUP   
@<TRIPOS>SET

