#    Name: 6uo2_2_TSN_CAVITY_N1_4
#    Modification time : Fri May 22 19:27:22 2020

@<TRIPOS>MOLECULE
6uo2_2_TSN_CAVITY_N1_4
   83     0     5     0     0
SMALL
NO_CHARGES


@<TRIPOS>ATOM
      1 OG         32.8000   39.2000   36.2400 O.3       1 SER1        0.0000 
      2 OG         33.9700   39.1800   35.3000 O.3       1 SER1        0.0000 
      3 OG         35.1400   39.1600   34.3600 O.3       1 SER1        0.0000 
      4 OG         35.8700   40.6400   37.6500 O.3       1 SER1        0.0000 
      5 OG         34.7100   43.0600   40.9300 O.3       1 SER1        0.0000 
      6 OG         35.8800   43.0300   39.9900 O.3       1 SER1        0.0000 
      7 OG         35.1500   43.9500   39.0600 O.3       1 SER1        0.0000 
      8 OG         31.7800   46.7200   37.1900 O.3       1 SER1        0.0000 
      9 OG         33.8300   46.0800   39.7700 O.3       1 SER1        0.0000 
     10 OG         33.5400   47.8900   36.9600 O.3       1 SER1        0.0000 
     11 O          34.8400   36.1600   36.4700 O.2       2 ALA2        0.0000 
     12 O          36.0100   36.1400   35.5300 O.2       2 ALA2        0.0000 
     13 O          37.1800   36.1100   34.5900 O.2       2 ALA2        0.0000 
     14 N          32.9400   37.1000   36.4700 N.am      2 ALA2        0.0000 
     15 N          35.4300   37.3500   37.1700 N.am      2 ALA2        0.0000 
     16 N          36.6000   37.3200   36.2300 N.am      2 ALA2        0.0000 
     17 O          37.7700   37.3000   35.3000 O.2       2 ALA2        0.0000 
     18 N          33.5300   38.2900   37.1800 N.am      2 ALA2        0.0000 
     19 N          37.0400   38.2200   34.3600 N.am      2 ALA2        0.0000 
     20 N          29.2900   39.2700   39.0600 N.am      2 ALA2        0.0000 
     21 N          31.6300   39.2300   37.1800 N.am      2 ALA2        0.0000 
     22 N          36.0200   38.5300   37.8800 N.am      2 ALA2        0.0000 
     23 N          34.1200   39.4700   37.8800 N.am      2 ALA2        0.0000 
     24 N          35.2900   39.4500   36.9400 N.am      2 ALA2        0.0000 
     25 N          36.4600   39.4300   36.0000 N.am      2 ALA2        0.0000 
     26 N          34.7000   40.6600   38.5800 N.am      2 ALA2        0.0000 
     27 N          34.1200   41.8700   40.2300 N.am      2 ALA2        0.0000 
     28 N          35.2900   41.8500   39.2900 N.am      2 ALA2        0.0000 
     29 N          33.5400   43.0800   41.8700 N.am      2 ALA2        0.0000 
     30 CZ         34.1100   37.0800   35.5300 C.ar      3 PHE5        0.0000 
     31 CZ         36.4500   37.0300   33.6600 C.ar      3 PHE5        0.0000 
     32 CZ         35.8700   38.2400   35.3000 C.ar      3 PHE5        0.0000 
     33 CZ         33.3800   40.3900   36.9500 C.ar      3 PHE5        0.0000 
     34 CZ         34.5500   40.3700   36.0100 C.ar      3 PHE5        0.0000 
     35 CZ         35.7200   40.3500   35.0700 C.ar      3 PHE5        0.0000 
     36 CZ         32.8000   41.6000   38.5900 C.ar      3 PHE5        0.0000 
     37 CZ         33.9700   41.5800   37.6500 C.ar      3 PHE5        0.0000 
     38 CZ         35.1400   41.5500   36.7100 C.ar      3 PHE5        0.0000 
     39 CZ         32.0700   42.5200   37.6500 C.ar      3 PHE5        0.0000 
     40 CZ         33.3900   42.7900   39.2900 C.ar      3 PHE5        0.0000 
     41 CZ         34.5600   42.7600   38.3500 C.ar      3 PHE5        0.0000 
     42 CZ         32.6600   43.7000   38.3600 C.ar      3 PHE5        0.0000 
     43 CZ         29.5900   44.6700   39.3000 C.ar      3 PHE5        0.0000 
     44 CZ         30.7600   44.6400   38.3600 C.ar      3 PHE5        0.0000 
     45 CZ         33.2500   44.8900   39.0600 C.ar      3 PHE5        0.0000 
     46 CZ         34.4200   44.8700   38.1200 C.ar      3 PHE5        0.0000 
     47 CZ         30.1700   45.8500   40.0100 C.ar      3 PHE5        0.0000 
     48 CZ         31.3400   45.8300   39.0700 C.ar      3 PHE5        0.0000 
     49 CZ         32.5100   45.8100   38.1300 C.ar      3 PHE5        0.0000 
     50 CZ         33.6800   45.7800   37.1900 C.ar      3 PHE5        0.0000 
     51 CZ         34.8500   45.7600   36.2500 C.ar      3 PHE5        0.0000 
     52 CZ         35.7400   45.1400   39.7600 C.ar      3 PHE5        0.0000 
     53 CZ         35.0000   46.0500   38.8300 C.ar      3 PHE5        0.0000 
     54 CZ         36.1700   46.0300   37.8900 C.ar      3 PHE5        0.0000 
     55 CZ         33.1000   46.9900   38.8300 C.ar      3 PHE5        0.0000 
     56 CZ         34.2700   46.9700   37.8900 C.ar      3 PHE5        0.0000 
     57 CZ         35.4400   46.9500   36.9600 C.ar      3 PHE5        0.0000 
     58 CZ         32.3700   47.9100   37.9000 C.ar      3 PHE5        0.0000 
     59 CA         32.9500   39.5000   38.8200 C.3       4 GLY6        0.0000 
     60 CA         29.8700   40.4600   39.7600 C.3       4 GLY6        0.0000 
     61 CA         31.0400   40.4400   38.8200 C.3       4 GLY6        0.0000 
     62 CA         32.2100   40.4100   37.8800 C.3       4 GLY6        0.0000 
     63 CA         31.4800   41.3300   36.9500 C.3       4 GLY6        0.0000 
     64 CA         29.2900   41.6700   41.4000 C.3       4 GLY6        0.0000 
     65 CA         30.4600   41.6400   40.4700 C.3       4 GLY6        0.0000 
     66 CA         31.6300   41.6200   39.5300 C.3       4 GLY6        0.0000 
     67 CA         28.5600   42.5800   40.4700 C.3       4 GLY6        0.0000 
     68 CA         29.7300   42.5600   39.5300 C.3       4 GLY6        0.0000 
     69 CA         30.9000   42.5400   38.5900 C.3       4 GLY6        0.0000 
     70 CA         29.0000   43.4800   38.6000 C.3       4 GLY6        0.0000 
     71 CA         30.1700   43.4600   37.6600 C.3       4 GLY6        0.0000 
     72 CA         29.8800   42.8500   42.1100 C.3       4 GLY6        0.0000 
     73 CA         31.0500   42.8300   41.1700 C.3       4 GLY6        0.0000 
     74 CA         32.2200   42.8100   40.2300 C.3       4 GLY6        0.0000 
     75 CA         30.3200   43.7500   40.2400 C.3       4 GLY6        0.0000 
     76 CA         35.5900   44.8500   37.1900 C.3       4 GLY6        0.0000 
     77 CA         35.3000   44.2400   41.6400 C.3       4 GLY6        0.0000 
     78 CA         34.5700   45.1600   40.7000 C.3       4 GLY6        0.0000 
     79 DU         34.7000   38.2600   36.2400 H         5 CUB7        0.0000 
     80 DU         31.4900   43.7300   39.3000 H         5 CUB7        0.0000 
     81 DU         32.8100   44.0000   40.9400 H         5 CUB7        0.0000 
     82 DU         33.9800   43.9700   40.0000 H         5 CUB7        0.0000 
     83 DU         32.0800   44.9100   40.0000 H         5 CUB7        0.0000 
@<TRIPOS>BOND
@<TRIPOS>SUBSTRUCTURE
     1 SER1        1 GROUP   
     2 ALA2       11 GROUP   
     3 PHE5       30 GROUP   
     4 GLY6       59 GROUP   
     5 CUB7       79 GROUP   
@<TRIPOS>SET

