#    Name: 6rra_1_FAD
#    Modification time : Fri May 22 19:24:49 2020

@<TRIPOS>MOLECULE
6rra_1_FAD
   53    58     1     0     1
SMALL
NO_CHARGES


@<TRIPOS>ATOM
      1 PA         10.8800   16.7450  -12.8720 P.3       1 FAD301      0.0000 
      2 O1A        12.0110   15.8550  -13.3920 O.co2     1 FAD301      0.0000 
      3 O2A        10.2980   16.5270  -11.5690 O.co2     1 FAD301      0.0000 
      4 O5B        11.3150   18.2300  -12.9260 O.3       1 FAD301      0.0000 
      5 C5B        12.3160   18.6390  -13.9260 C.3       1 FAD301      0.0000 
      6 C4B        12.5090   20.1180  -13.8600 C.3       1 FAD301      0.0000 
      7 O4B        11.2800   20.8610  -14.2470 O.3       1 FAD301      0.0000 
      8 C3B        12.7870   20.7580  -12.5270 C.3       1 FAD301      0.0000 
      9 O3B        14.1700   20.5130  -12.1140 O.3       1 FAD301      0.0000 
     10 C2B        12.4260   22.1920  -12.6360 C.3       1 FAD301      0.0000 
     11 O2B        13.3440   22.8750  -13.4600 O.3       1 FAD301      0.0000 
     12 C1B        11.2060   22.0560  -13.5610 C.3       1 FAD301      0.0000 
     13 N9A         9.9350   21.9810  -12.7700 N.pl3     1 FAD301      0.0000 
     14 C8A         9.2710   20.8710  -12.2050 C.2       1 FAD301      0.0000 
     15 N7A         8.1310   21.2400  -11.6380 N.2       1 FAD301      0.0000 
     16 C5A         7.9410   22.5480  -11.8920 C.ar      1 FAD301      0.0000 
     17 C6A         6.9090   23.5110  -11.6600 C.ar      1 FAD301      0.0000 
     18 N6A         5.8490   23.1450  -10.9320 N.pl3     1 FAD301      0.0000 
     19 N1A         7.0470   24.7380  -12.0000 N.ar      1 FAD301      0.0000 
     20 C2A         8.1390   25.1310  -12.7140 C.ar      1 FAD301      0.0000 
     21 N3A         9.1610   24.2850  -13.0350 N.ar      1 FAD301      0.0000 
     22 C4A         9.0920   23.0110  -12.6820 C.ar      1 FAD301      0.0000 
     23 N1          4.4020   20.7070   -9.6630 N.2       1 FAD301      0.0000 
     24 C2          3.2700   21.0840  -10.2360 C.2       1 FAD301      0.0000 
     25 O2          3.0930   21.2810  -11.4180 O.2       1 FAD301      0.0000 
     26 N3          2.1820   21.4060   -9.4270 N.am      1 FAD301      0.0000 
     27 C4          2.1540   21.2870   -8.0980 C.2       1 FAD301      0.0000 
     28 O4          1.1040   21.5020   -7.3470 O.2       1 FAD301      0.0000 
     29 C4X         3.4120   20.9160   -7.4560 C.2       1 FAD301      0.0000 
     30 N5          3.4900   20.7850   -6.1260 N.2       1 FAD301      0.0000 
     31 C5X         4.7110   20.4800   -5.5770 C.ar      1 FAD301      0.0000 
     32 C6          4.7630   20.4840   -4.2040 C.ar      1 FAD301      0.0000 
     33 C7          6.0060   20.2580   -3.6050 C.ar      1 FAD301      0.0000 
     34 C7M         6.0900   20.2270   -2.0740 C.3       1 FAD301      0.0000 
     35 C8          7.1410   19.9860   -4.4190 C.ar      1 FAD301      0.0000 
     36 C8M         8.5280   19.6910   -3.8140 C.3       1 FAD301      0.0000 
     37 C9          7.1000   19.9220   -5.7960 C.ar      1 FAD301      0.0000 
     38 C9A         5.8760   20.2250   -6.4200 C.ar      1 FAD301      0.0000 
     39 N10         5.7020   20.2340   -7.7740 N.pl3     1 FAD301      0.0000 
     40 C10         4.5070   20.6440   -8.3400 C.2       1 FAD301      0.0000 
     41 C1'         6.7160   19.8540   -8.7770 C.3       1 FAD301      0.0000 
     42 C2'         6.4340   18.3220   -9.0500 C.3       1 FAD301      0.0000 
     43 O2'         6.8190   17.5210   -7.8280 O.3       1 FAD301      0.0000 
     44 C3'         7.1720   17.7800  -10.2450 C.3       1 FAD301      0.0000 
     45 O3'         8.5520   18.2380  -10.2680 O.3       1 FAD301      0.0000 
     46 C4'         6.4010   18.1820  -11.5020 C.3       1 FAD301      0.0000 
     47 O4'         5.2540   17.3070  -11.5010 O.3       1 FAD301      0.0000 
     48 C5'         7.1330   17.8670  -12.7560 C.3       1 FAD301      0.0000 
     49 O5'         7.5240   16.4710  -12.7940 O.3       1 FAD301      0.0000 
     50 P           8.3690   15.8470  -14.0090 P.3       1 FAD301      0.0000 
     51 O1P         8.6420   14.4470  -13.6850 O.co2     1 FAD301      0.0000 
     52 O2P         7.6620   16.1130  -15.2620 O.co2     1 FAD301      0.0000 
     53 O3P         9.7620   16.7610  -14.0020 O.3       1 FAD301      0.0000 
@<TRIPOS>BOND
     1    1    2 ar   
     2    1    3 ar   
     3    1    4 1    
     4    1   53 1    
     5    4    5 1    
     6    5    6 1    
     7    6    7 1    
     8    6    8 1    
     9    7   12 1    
    10    8    9 1    
    11    8   10 1    
    12   10   11 1    
    13   10   12 1    
    14   12   13 1    
    15   13   14 1    
    16   13   22 1    
    17   14   15 2    
    18   15   16 1    
    19   16   17 ar   
    20   16   22 ar   
    21   17   18 1    
    22   17   19 ar   
    23   19   20 ar   
    24   20   21 ar   
    25   21   22 ar   
    26   23   24 1    
    27   23   40 2    
    28   24   25 2    
    29   24   26 am   
    30   26   27 am   
    31   27   28 2    
    32   27   29 1    
    33   29   30 2    
    34   29   40 1    
    35   30   31 1    
    36   31   32 ar   
    37   31   38 ar   
    38   32   33 ar   
    39   33   34 1    
    40   33   35 ar   
    41   35   36 1    
    42   35   37 ar   
    43   37   38 ar   
    44   38   39 1    
    45   39   40 1    
    46   39   41 1    
    47   41   42 1    
    48   42   43 1    
    49   42   44 1    
    50   44   45 1    
    51   44   46 1    
    52   46   47 1    
    53   46   48 1    
    54   48   49 1    
    55   49   50 1    
    56   50   51 ar   
    57   50   52 ar   
    58   50   53 1    
@<TRIPOS>SUBSTRUCTURE
     1 FAD301      1 GROUP   
@<TRIPOS>SET
ATOM$ORANGE STATIC     ATOMS   COLORGROUP SYSTEM 
54 5 5 6 6 8 8 10 10 12 12 14 14 16 16 17 17 20 \
20 22 22 24 24 27 27 29 29 31 31 32 32 33 33 34 34 35 \
35 36 36 37 37 38 38 40 40 41 41 42 42 44 44 46 46 48 \
48 

