#    Name: 6f68_2_4EU
#    Modification time : Fri May 22 19:29:16 2020

@<TRIPOS>MOLECULE
6f68_2_4EU
   27    28     1     0     0
SMALL
NO_CHARGES


@<TRIPOS>ATOM
      1 O2         -1.9990    7.7630   12.4280           1 4EU302      0.0000 
      2 C7         -1.9430    6.5780   12.3900           1 4EU302      0.0000 
      3 C4         -0.5880    5.9350   12.2830           1 4EU302      0.0000 
      4 C3         -0.4430    4.7650   11.5870           1 4EU302      0.0000 
      5 C2          0.8210    4.2630   11.4970           1 4EU302      0.0000 
      6 C5          0.4900    6.5900   12.8400           1 4EU302      0.0000 
      7 C6          1.7590    6.0590   12.7460           1 4EU302      0.0000 
      8 C1          1.9050    4.8890   12.0640           1 4EU302      0.0000 
      9 O1          3.1810    4.3320   11.9130           1 4EU302      0.0000 
     10 C8         -3.2270    5.7860   12.3770           1 4EU302      0.0000 
     11 C13        -4.2530    6.3430   11.6380           1 4EU302      0.0000 
     12 O4         -4.0640    7.5420   10.9520           1 4EU302      0.0000 
     13 C12        -5.4740    5.7320   11.5700           1 4EU302      0.0000 
     14 C11        -5.6700    4.5620   12.2400           1 4EU302      0.0000 
     15 O3         -6.9360    3.9600   12.1480           1 4EU302      0.0000 
     16 C10        -4.6560    3.9940   13.0000           1 4EU302      0.0000 
     17 C9         -3.4130    4.5940   13.0680           1 4EU302      0.0000 
     18 H3         -1.1690    4.3340   11.1970           1 4EU302      0.0000 
     19 H2          0.9550    3.4660   11.0360           1 4EU302      0.0000 
     20 H4          0.3580    7.3890   13.2980           1 4EU302      0.0000 
     21 H5          2.4920    6.4920   13.1210           1 4EU302      0.0000 
     22 H1          3.1560    3.5060   12.1130           1 4EU302      0.0000 
     23 H10        -4.7810    7.9970   10.9740           1 4EU302      0.0000 
     24 H9         -6.1600    6.1080   11.0680           1 4EU302      0.0000 
     25 H8         -7.4860    4.3800   12.6410           1 4EU302      0.0000 
     26 H7         -4.8070    3.1910   13.4450           1 4EU302      0.0000 
     27 H6         -2.7290    4.2230   13.5780           1 4EU302      0.0000 
@<TRIPOS>BOND
     1    1    2 du   
     2    2    3 du   
     3    2   10 du   
     4    3    4 du   
     5    3    6 du   
     6    4    5 du   
     7    5    8 du   
     8    4   18 1    
     9    6    7 du   
    10    5   19 1    
    11    7    8 du   
    12    6   20 1    
    13    8    9 du   
    14    7   21 1    
    15    9   22 1    
    16   10   11 du   
    17   10   17 du   
    18   11   12 du   
    19   11   13 du   
    20   12   23 1    
    21   13   14 du   
    22   14   15 du   
    23   13   24 1    
    24   14   16 du   
    25   15   25 1    
    26   16   17 du   
    27   16   26 1    
    28   17   27 1    
@<TRIPOS>SUBSTRUCTURE
     1 4EU302      1 GROUP   
@<TRIPOS>SET

