#    Name: 6f68_1_4EU
#    Modification time : Fri May 22 19:29:13 2020

@<TRIPOS>MOLECULE
6f68_1_4EU
   27    28     1     0     0
SMALL
NO_CHARGES


@<TRIPOS>ATOM
      1 O2        -10.2660  -11.6030   34.9150           1 4EU301      0.0000 
      2 C7        -10.3080  -11.9110   33.7740           1 4EU301      0.0000 
      3 C4        -11.6680  -12.0920   33.1580           1 4EU301      0.0000 
      4 C3        -12.6580  -11.3220   33.7140           1 4EU301      0.0000 
      5 C2        -13.9520  -11.4310   33.2750           1 4EU301      0.0000 
      6 C5        -11.9370  -13.0130   32.1660           1 4EU301      0.0000 
      7 C6        -13.2470  -13.1230   31.7310           1 4EU301      0.0000 
      8 C1        -14.2380  -12.3360   32.2900           1 4EU301      0.0000 
      9 O1        -15.5620  -12.4230   31.8720           1 4EU301      0.0000 
     10 C8         -8.9800  -12.1390   33.1280           1 4EU301      0.0000 
     11 C13        -8.6600  -11.5770   31.9110           1 4EU301      0.0000 
     12 O4         -9.6230  -10.8090   31.2280           1 4EU301      0.0000 
     13 C12        -7.3840  -11.8030   31.4200           1 4EU301      0.0000 
     14 C11        -6.4940  -12.5580   32.1750           1 4EU301      0.0000 
     15 O3         -5.2060  -12.8020   31.7150           1 4EU301      0.0000 
     16 C10        -6.8260  -13.0880   33.3960           1 4EU301      0.0000 
     17 C9         -8.0850  -12.8810   33.8770           1 4EU301      0.0000 
     18 H3        -12.4500  -10.7230   34.3940           1 4EU301      0.0000 
     19 H2        -14.6240  -10.9070   33.6470           1 4EU301      0.0000 
     20 H4        -11.2650  -13.5460   31.8080           1 4EU301      0.0000 
     21 H5        -13.4610  -13.7270   31.0570           1 4EU301      0.0000 
     22 H1        -16.0430  -12.7090   32.5120           1 4EU301      0.0000 
     23 H10        -9.2350  -10.3070   30.6620           1 4EU301      0.0000 
     24 H9         -7.1250  -11.4510   30.5990           1 4EU301      0.0000 
     25 H8         -4.6550  -12.7170   32.3560           1 4EU301      0.0000 
     26 H7         -6.2130  -13.5990   33.8730           1 4EU301      0.0000 
     27 H6         -8.3350  -13.2230   34.7050           1 4EU301      0.0000 
@<TRIPOS>BOND
     1    1    2 du   
     2    2    3 du   
     3    2   10 du   
     4    3    4 du   
     5    3    6 du   
     6    4    5 du   
     7    5    8 du   
     8    4   18 1    
     9    6    7 du   
    10    5   19 1    
    11    7    8 du   
    12    6   20 1    
    13    8    9 du   
    14    7   21 1    
    15    9   22 1    
    16   10   11 du   
    17   10   17 du   
    18   11   12 du   
    19   11   13 du   
    20   12   23 1    
    21   13   14 du   
    22   14   15 du   
    23   13   24 1    
    24   14   16 du   
    25   15   25 1    
    26   16   17 du   
    27   16   26 1    
    28   17   27 1    
@<TRIPOS>SUBSTRUCTURE
     1 4EU301      1 GROUP   
@<TRIPOS>SET

