#    Name: 6f68_2_4EU_CAVITY_N1_4
#    Modification time : Fri May 22 19:29:17 2020

@<TRIPOS>MOLECULE
6f68_2_4EU_CAVITY_N1_4
   75     0     4     0     0
SMALL
NO_CHARGES


@<TRIPOS>ATOM
      1 N         -10.3900    3.5900   10.2200 N.am      1 ALA2        0.0000 
      2 N           1.6500    3.5100   12.0900 N.am      1 ALA2        0.0000 
      3 N           0.7800    4.6800   11.7400 N.am      1 ALA2        0.0000 
      4 N           3.3700    4.7400   11.8900 N.am      1 ALA2        0.0000 
      5 O           2.5000    5.9100   11.5400 O.2       1 ALA2        0.0000 
      6 N          -1.1400    6.0100   14.5800 N.am      1 ALA2        0.0000 
      7 CZ         -9.5100    2.4200   10.5700 C.ar      2 PHE5        0.0000 
      8 CZ         -9.6400    2.9300   12.6200 C.ar      2 PHE5        0.0000 
      9 CZ         -8.7200    3.2900   11.4900 C.ar      2 PHE5        0.0000 
     10 CZ         -7.7900    3.6400   10.3700 C.ar      2 PHE5        0.0000 
     11 CZ         -9.5900    4.4500   11.1500 C.ar      2 PHE5        0.0000 
     12 CZ         -8.6700    4.8100   10.0200 C.ar      2 PHE5        0.0000 
     13 CZ         -6.1200    3.3400   11.6400 C.ar      2 PHE5        0.0000 
     14 CZ         -8.8500    3.8000   13.5500 C.ar      2 PHE5        0.0000 
     15 CZ         -7.9200    4.1500   12.4200 C.ar      2 PHE5        0.0000 
     16 CZ         -7.8700    5.6800   10.9500 C.ar      2 PHE5        0.0000 
     17 CZ         -9.6700    6.4900   11.7300 C.ar      2 PHE5        0.0000 
     18 CZ         -4.4600    3.0400   12.9200 C.ar      2 PHE5        0.0000 
     19 CZ         -5.3300    4.2100   12.5700 C.ar      2 PHE5        0.0000 
     20 CZ         -7.0800    6.5500   11.8800 C.ar      2 PHE5        0.0000 
     21 CZ         -6.1500    6.9100   10.7500 C.ar      2 PHE5        0.0000 
     22 CZ         -7.9500    7.7200   11.5300 C.ar      2 PHE5        0.0000 
     23 CZ         -1.8600    3.1000   13.0700 C.ar      2 PHE5        0.0000 
     24 CZ         -0.9400    3.4600   11.9400 C.ar      2 PHE5        0.0000 
     25 CZ         -0.0100    3.8100   10.8100 C.ar      2 PHE5        0.0000 
     26 CZ         -2.7400    4.2700   12.7200 C.ar      2 PHE5        0.0000 
     27 CZ         -5.4600    4.7200   14.6300 C.ar      2 PHE5        0.0000 
     28 CZ         -4.5300    5.0800   13.5000 C.ar      2 PHE5        0.0000 
     29 CZ         -3.6100    5.4400   12.3700 C.ar      2 PHE5        0.0000 
     30 CZ         -7.2600    5.5400   15.4100 C.ar      2 PHE5        0.0000 
     31 CZ         -6.3300    5.8900   14.2800 C.ar      2 PHE5        0.0000 
     32 CZ         -5.4100    6.2500   13.1500 C.ar      2 PHE5        0.0000 
     33 CZ         -4.4800    6.6100   12.0300 C.ar      2 PHE5        0.0000 
     34 CZ         -7.2000    7.0600   13.9300 C.ar      2 PHE5        0.0000 
     35 CZ         -5.3600    7.7800   11.6800 C.ar      2 PHE5        0.0000 
     36 CZ          0.7300    3.1600   13.2100 C.ar      2 PHE5        0.0000 
     37 CZ         -2.8600    4.7800   14.7700 C.ar      2 PHE5        0.0000 
     38 CZ         -1.9400    5.1400   13.6500 C.ar      2 PHE5        0.0000 
     39 CZ         -0.0900    5.8500   11.3900 C.ar      2 PHE5        0.0000 
     40 CZ         -2.8100    6.3100   13.3000 C.ar      2 PHE5        0.0000 
     41 CZ         -1.8900    6.6600   12.1700 C.ar      2 PHE5        0.0000 
     42 CZ         -2.7600    7.8300   11.8300 C.ar      2 PHE5        0.0000 
     43 CZ          2.4500    4.3800   13.0200 C.ar      2 PHE5        0.0000 
     44 CZ          1.5800    5.5500   12.6700 C.ar      2 PHE5        0.0000 
     45 CZ         -0.2200    6.3600   13.4500 C.ar      2 PHE5        0.0000 
     46 CZ          0.7000    6.7200   12.3200 C.ar      2 PHE5        0.0000 
     47 CZ         -1.0900    7.5300   13.1000 C.ar      2 PHE5        0.0000 
     48 CZ         -0.1700    7.8900   11.9800 C.ar      2 PHE5        0.0000 
     49 CZ          1.4500    6.0600   14.7200 C.ar      2 PHE5        0.0000 
     50 CZ          2.3700    6.4200   13.6000 C.ar      2 PHE5        0.0000 
     51 CZ          1.5000    7.5900   13.2500 C.ar      2 PHE5        0.0000 
     52 CA         -7.0000    4.5100   11.3000 C.3       3 GLY6        0.0000 
     53 CA         -6.0700    4.8700   10.1700 C.3       3 GLY6        0.0000 
     54 CA         -4.4100    4.5700   11.4400 C.3       3 GLY6        0.0000 
     55 CA         -5.2800    5.7400   11.1000 C.3       3 GLY6        0.0000 
     56 CA         -8.9200    5.8400   14.1300 C.3       3 GLY6        0.0000 
     57 CA         -8.8700    7.3600   12.6600 C.3       3 GLY6        0.0000 
     58 CA         -1.8100    4.6200   11.5900 C.3       3 GLY6        0.0000 
     59 CA         -0.8900    4.9800   10.4700 C.3       3 GLY6        0.0000 
     60 CA         -2.6900    5.7900   11.2500 C.3       3 GLY6        0.0000 
     61 CA         -7.1500    8.5900   12.4600 C.3       3 GLY6        0.0000 
     62 CA         -1.0700    3.9700   13.9900 C.3       3 GLY6        0.0000 
     63 CA         -0.1400    4.3200   12.8700 C.3       3 GLY6        0.0000 
     64 CA          1.7100    5.0400   10.6100 C.3       3 GLY6        0.0000 
     65 CA         -0.2700    4.8400   14.9200 C.3       3 GLY6        0.0000 
     66 CA          0.6500    5.1900   13.8000 C.3       3 GLY6        0.0000 
     67 DU        -10.5200    4.1000   12.2700 H         4 CUB7        0.0000 
     68 DU         -9.7200    4.9700   13.2000 H         4 CUB7        0.0000 
     69 DU         -8.8000    5.3200   12.0800 H         4 CUB7        0.0000 
     70 DU         -8.0500    4.6700   14.4800 H         4 CUB7        0.0000 
     71 DU         -7.1300    5.0200   13.3500 H         4 CUB7        0.0000 
     72 DU         -6.2000    5.3800   12.2200 H         4 CUB7        0.0000 
     73 DU         -8.0000    6.1900   13.0000 H         4 CUB7        0.0000 
     74 DU         -3.6600    3.9100   13.8500 H         4 CUB7        0.0000 
     75 DU         -1.0200    5.4900   12.5200 H         4 CUB7        0.0000 
@<TRIPOS>BOND
@<TRIPOS>SUBSTRUCTURE
     1 ALA2        1 GROUP   
     2 PHE5        7 GROUP   
     3 GLY6       52 GROUP   
     4 CUB7       67 GROUP   
@<TRIPOS>SET

