#    Name: 6f68_2_4EU_CAVITY_N1_8
#    Modification time : Fri May 22 19:29:17 2020

@<TRIPOS>MOLECULE
6f68_2_4EU_CAVITY_N1_8
  102     0     5     0     0
SMALL
NO_CHARGES


@<TRIPOS>ATOM
      1 O         -12.9800    3.5300   10.0700 O.2       1 ALA2        0.0000 
      2 N         -14.7800    4.3400   10.8500 N.am      1 ALA2        0.0000 
      3 N         -11.3100    3.2300   11.3500 N.am      1 ALA2        0.0000 
      4 N         -10.3900    3.5900   10.2200 N.am      1 ALA2        0.0000 
      5 N           1.6500    3.5100   12.0900 N.am      1 ALA2        0.0000 
      6 N           0.7800    4.6800   11.7400 N.am      1 ALA2        0.0000 
      7 N           3.3700    4.7400   11.8900 N.am      1 ALA2        0.0000 
      8 O           2.5000    5.9100   11.5400 O.2       1 ALA2        0.0000 
      9 N          -1.1400    6.0100   14.5800 N.am      1 ALA2        0.0000 
     10 OD1       -12.2400    2.8700   12.4700 O.co2     2 ASP3        0.0000 
     11 OD1       -14.0300    3.6800   13.2500 O.co2     2 ASP3        0.0000 
     12 OD1       -13.1100    4.0400   12.1300 O.co2     2 ASP3        0.0000 
     13 OD1       -11.4400    3.7400   13.4000 O.co2     2 ASP3        0.0000 
     14 OD1       -13.2400    4.5500   14.1800 O.co2     2 ASP3        0.0000 
     15 OD1       -12.3100    4.9100   13.0500 O.co2     2 ASP3        0.0000 
     16 OD1       -14.1100    5.7200   13.8300 O.co2     2 ASP3        0.0000 
     17 CZ         -9.5100    2.4200   10.5700 C.ar      3 PHE5        0.0000 
     18 CZ        -11.2600    4.7600    9.8700 C.ar      3 PHE5        0.0000 
     19 CZ         -9.6400    2.9300   12.6200 C.ar      3 PHE5        0.0000 
     20 CZ         -8.7200    3.2900   11.4900 C.ar      3 PHE5        0.0000 
     21 CZ         -7.7900    3.6400   10.3700 C.ar      3 PHE5        0.0000 
     22 CZ         -9.5900    4.4500   11.1500 C.ar      3 PHE5        0.0000 
     23 CZ         -8.6700    4.8100   10.0200 C.ar      3 PHE5        0.0000 
     24 CZ        -10.4600    5.6200   10.8000 C.ar      3 PHE5        0.0000 
     25 CZ         -6.1200    3.3400   11.6400 C.ar      3 PHE5        0.0000 
     26 CZ         -8.8500    3.8000   13.5500 C.ar      3 PHE5        0.0000 
     27 CZ         -7.9200    4.1500   12.4200 C.ar      3 PHE5        0.0000 
     28 CZ         -7.8700    5.6800   10.9500 C.ar      3 PHE5        0.0000 
     29 CZ         -9.6700    6.4900   11.7300 C.ar      3 PHE5        0.0000 
     30 CZ         -4.4600    3.0400   12.9200 C.ar      3 PHE5        0.0000 
     31 CZ         -5.3300    4.2100   12.5700 C.ar      3 PHE5        0.0000 
     32 CZ         -7.0800    6.5500   11.8800 C.ar      3 PHE5        0.0000 
     33 CZ         -6.1500    6.9100   10.7500 C.ar      3 PHE5        0.0000 
     34 CZ         -7.9500    7.7200   11.5300 C.ar      3 PHE5        0.0000 
     35 CZ         -1.8600    3.1000   13.0700 C.ar      3 PHE5        0.0000 
     36 CZ         -0.9400    3.4600   11.9400 C.ar      3 PHE5        0.0000 
     37 CZ         -0.0100    3.8100   10.8100 C.ar      3 PHE5        0.0000 
     38 CZ         -2.7400    4.2700   12.7200 C.ar      3 PHE5        0.0000 
     39 CZ         -5.4600    4.7200   14.6300 C.ar      3 PHE5        0.0000 
     40 CZ         -4.5300    5.0800   13.5000 C.ar      3 PHE5        0.0000 
     41 CZ         -3.6100    5.4400   12.3700 C.ar      3 PHE5        0.0000 
     42 CZ         -7.2600    5.5400   15.4100 C.ar      3 PHE5        0.0000 
     43 CZ         -6.3300    5.8900   14.2800 C.ar      3 PHE5        0.0000 
     44 CZ         -5.4100    6.2500   13.1500 C.ar      3 PHE5        0.0000 
     45 CZ         -4.4800    6.6100   12.0300 C.ar      3 PHE5        0.0000 
     46 CZ         -7.2000    7.0600   13.9300 C.ar      3 PHE5        0.0000 
     47 CZ         -5.3600    7.7800   11.6800 C.ar      3 PHE5        0.0000 
     48 CZ         -8.0800    8.2300   13.5900 C.ar      3 PHE5        0.0000 
     49 CZ          0.7300    3.1600   13.2100 C.ar      3 PHE5        0.0000 
     50 CZ         -2.8600    4.7800   14.7700 C.ar      3 PHE5        0.0000 
     51 CZ         -1.9400    5.1400   13.6500 C.ar      3 PHE5        0.0000 
     52 CZ         -0.0900    5.8500   11.3900 C.ar      3 PHE5        0.0000 
     53 CZ         -2.8100    6.3100   13.3000 C.ar      3 PHE5        0.0000 
     54 CZ         -1.8900    6.6600   12.1700 C.ar      3 PHE5        0.0000 
     55 CZ         -2.7600    7.8300   11.8300 C.ar      3 PHE5        0.0000 
     56 CZ          2.4500    4.3800   13.0200 C.ar      3 PHE5        0.0000 
     57 CZ          1.5800    5.5500   12.6700 C.ar      3 PHE5        0.0000 
     58 CZ         -0.2200    6.3600   13.4500 C.ar      3 PHE5        0.0000 
     59 CZ          0.7000    6.7200   12.3200 C.ar      3 PHE5        0.0000 
     60 CZ         -1.0900    7.5300   13.1000 C.ar      3 PHE5        0.0000 
     61 CZ         -0.1700    7.8900   11.9800 C.ar      3 PHE5        0.0000 
     62 CZ          1.4500    6.0600   14.7200 C.ar      3 PHE5        0.0000 
     63 CZ          2.3700    6.4200   13.6000 C.ar      3 PHE5        0.0000 
     64 CZ          1.5000    7.5900   13.2500 C.ar      3 PHE5        0.0000 
     65 CA        -13.9000    3.1700   11.2000 C.3       4 GLY6        0.0000 
     66 CA        -12.0600    3.8900    8.9500 C.3       4 GLY6        0.0000 
     67 CA        -13.8500    4.7000    9.7300 C.3       4 GLY6        0.0000 
     68 CA        -13.9800    5.2100   11.7800 C.3       4 GLY6        0.0000 
     69 CA        -13.0600    5.5700   10.6500 C.3       4 GLY6        0.0000 
     70 CA        -11.3900    5.2700   11.9300 C.3       4 GLY6        0.0000 
     71 CA        -13.1900    6.0800   12.7100 C.3       4 GLY6        0.0000 
     72 CA         -7.0000    4.5100   11.3000 C.3       4 GLY6        0.0000 
     73 CA         -6.0700    4.8700   10.1700 C.3       4 GLY6        0.0000 
     74 CA        -10.5900    6.1400   12.8600 C.3       4 GLY6        0.0000 
     75 CA        -12.3900    6.9500   13.6400 C.3       4 GLY6        0.0000 
     76 CA         -4.4100    4.5700   11.4400 C.3       4 GLY6        0.0000 
     77 CA         -5.2800    5.7400   11.1000 C.3       4 GLY6        0.0000 
     78 CA         -8.9200    5.8400   14.1300 C.3       4 GLY6        0.0000 
     79 CA         -9.8000    7.0100   13.7800 C.3       4 GLY6        0.0000 
     80 CA         -8.8700    7.3600   12.6600 C.3       4 GLY6        0.0000 
     81 CA        -10.6700    8.1700   13.4400 C.3       4 GLY6        0.0000 
     82 CA         -1.8100    4.6200   11.5900 C.3       4 GLY6        0.0000 
     83 CA         -0.8900    4.9800   10.4700 C.3       4 GLY6        0.0000 
     84 CA         -2.6900    5.7900   11.2500 C.3       4 GLY6        0.0000 
     85 CA         -8.1800    5.1800   16.5300 C.3       4 GLY6        0.0000 
     86 CA         -8.1300    6.7100   15.0600 C.3       4 GLY6        0.0000 
     87 CA         -7.1500    8.5900   12.4600 C.3       4 GLY6        0.0000 
     88 CA         -1.0700    3.9700   13.9900 C.3       4 GLY6        0.0000 
     89 CA         -0.1400    4.3200   12.8700 C.3       4 GLY6        0.0000 
     90 CA          1.7100    5.0400   10.6100 C.3       4 GLY6        0.0000 
     91 CA         -0.2700    4.8400   14.9200 C.3       4 GLY6        0.0000 
     92 CA          0.6500    5.1900   13.8000 C.3       4 GLY6        0.0000 
     93 DU        -12.1800    4.4000   11.0000 H         5 CUB7        0.0000 
     94 DU        -10.5200    4.1000   12.2700 H         5 CUB7        0.0000 
     95 DU         -9.7200    4.9700   13.2000 H         5 CUB7        0.0000 
     96 DU         -8.8000    5.3200   12.0800 H         5 CUB7        0.0000 
     97 DU         -8.0500    4.6700   14.4800 H         5 CUB7        0.0000 
     98 DU         -7.1300    5.0200   13.3500 H         5 CUB7        0.0000 
     99 DU         -6.2000    5.3800   12.2200 H         5 CUB7        0.0000 
    100 DU         -8.0000    6.1900   13.0000 H         5 CUB7        0.0000 
    101 DU         -3.6600    3.9100   13.8500 H         5 CUB7        0.0000 
    102 DU         -1.0200    5.4900   12.5200 H         5 CUB7        0.0000 
@<TRIPOS>BOND
@<TRIPOS>SUBSTRUCTURE
     1 ALA2        1 GROUP   
     2 ASP3       10 GROUP   
     3 PHE5       17 GROUP   
     4 GLY6       65 GROUP   
     5 CUB7       93 GROUP   
@<TRIPOS>SET

