#    Name: 6dta_1_GTP_CAVITY_N1_6
#    Modification time : Fri May 22 19:34:37 2020

@<TRIPOS>MOLECULE
6dta_1_GTP_CAVITY_N1_6
   75     0     6     0     0
SMALL
NO_CHARGES


@<TRIPOS>ATOM
      1 N         -49.5800  -24.7800   32.7300 N.am      1 ALA2        0.0000 
      2 O         -48.4300  -23.7700   29.7400 O.2       1 ALA2        0.0000 
      3 N         -48.3700  -24.5900   31.0000 N.am      1 ALA2        0.0000 
      4 O         -47.1600  -24.4000   29.2700 O.2       1 ALA2        0.0000 
      5 O         -47.0900  -25.2200   30.5300 O.2       1 ALA2        0.0000 
      6 N         -48.8600  -22.8700   32.1400 N.am      1 ALA2        0.0000 
      7 N         -48.8000  -23.6900   33.4000 N.am      1 ALA2        0.0000 
      8 OD1       -49.5200  -25.6000   33.9800 O.co2     2 ASP3        0.0000 
      9 OD1       -46.9600  -26.8500   33.0400 O.co2     2 ASP3        0.0000 
     10 OD1       -50.2100  -21.4300   31.3600 O.co2     2 ASP3        0.0000 
     11 OD1       -48.9300  -22.0600   30.8900 O.co2     2 ASP3        0.0000 
     12 OD1       -48.7400  -24.5100   34.6500 O.co2     2 ASP3        0.0000 
     13 OD1       -47.4600  -25.1400   34.1800 O.co2     2 ASP3        0.0000 
     14 OD1       -46.1800  -25.7600   33.7100 O.co2     2 ASP3        0.0000 
     15 OD1       -45.0300  -24.7500   30.7200 O.co2     2 ASP3        0.0000 
     16 OD1       -49.4200  -20.3400   32.0300 O.co2     2 ASP3        0.0000 
     17 OD1       -49.2900  -21.9800   34.5400 O.co2     2 ASP3        0.0000 
     18 OD1       -48.1500  -20.9700   31.5600 O.co2     2 ASP3        0.0000 
     19 OD1       -48.0800  -21.7800   32.8100 O.co2     2 ASP3        0.0000 
     20 OD1       -48.0200  -22.6000   34.0700 O.co2     2 ASP3        0.0000 
     21 OD1       -46.8000  -22.4100   32.3400 O.co2     2 ASP3        0.0000 
     22 OD1       -46.7400  -23.2300   33.6000 O.co2     2 ASP3        0.0000 
     23 OD1       -45.5300  -23.0400   31.8700 O.co2     2 ASP3        0.0000 
     24 OD1       -45.4600  -23.8600   33.1200 O.co2     2 ASP3        0.0000 
     25 OD1       -44.2500  -23.6600   31.3900 O.co2     2 ASP3        0.0000 
     26 OD1       -44.1800  -24.4800   32.6500 O.co2     2 ASP3        0.0000 
     27 OD1       -42.9100  -25.1100   32.1700 O.co2     2 ASP3        0.0000 
     28 OD1       -48.4500  -21.7100   36.4700 O.co2     2 ASP3        0.0000 
     29 OD1       -45.9600  -22.1400   34.2700 O.co2     2 ASP3        0.0000 
     30 OD1       -44.6800  -22.7700   33.7900 O.co2     2 ASP3        0.0000 
     31 OD1       -43.4000  -23.3900   33.3200 O.co2     2 ASP3        0.0000 
     32 OD1       -48.9400  -19.9900   37.6100 O.co2     2 ASP3        0.0000 
     33 OD1       -47.6600  -20.6200   37.1400 O.co2     2 ASP3        0.0000 
     34 OD1       -46.3900  -21.2400   36.6700 O.co2     2 ASP3        0.0000 
     35 OD1       -43.8300  -22.5000   35.7200 O.co2     2 ASP3        0.0000 
     36 OD1       -48.2900  -17.2600   35.7700 O.co2     2 ASP3        0.0000 
     37 OD1       -48.2200  -18.0800   37.0300 O.co2     2 ASP3        0.0000 
     38 OD1       -46.8800  -19.5300   37.8100 O.co2     2 ASP3        0.0000 
     39 OD1       -45.6000  -20.1500   37.3400 O.co2     2 ASP3        0.0000 
     40 NZ        -45.7500  -26.6600   31.3100 N.4       3 LYS4        0.0000 
     41 NZ        -45.6800  -27.4800   32.5600 N.4       3 LYS4        0.0000 
     42 NZ        -44.9700  -25.5700   31.9800 N.4       3 LYS4        0.0000 
     43 NZ        -43.6900  -26.2000   31.5000 N.4       3 LYS4        0.0000 
     44 NZ        -50.5100  -22.1700   36.2700 N.4       3 LYS4        0.0000 
     45 NZ        -49.2300  -22.8000   35.8000 N.4       3 LYS4        0.0000 
     46 NZ        -49.1700  -23.6100   37.0500 N.4       3 LYS4        0.0000 
     47 NZ        -47.9500  -23.4200   35.3300 N.4       3 LYS4        0.0000 
     48 NZ        -46.6700  -24.0500   34.8500 N.4       3 LYS4        0.0000 
     49 NZ        -49.7200  -21.0800   36.9400 N.4       3 LYS4        0.0000 
     50 NZ        -48.3800  -22.5200   37.7300 N.4       3 LYS4        0.0000 
     51 NZ        -47.1700  -22.3300   36.0000 N.4       3 LYS4        0.0000 
     52 NZ        -45.8900  -22.9600   35.5200 N.4       3 LYS4        0.0000 
     53 NZ        -47.6000  -21.4400   38.4000 N.4       3 LYS4        0.0000 
     54 NZ        -45.1100  -21.8700   36.1900 N.4       3 LYS4        0.0000 
     55 NZ        -45.5400  -20.9700   38.5900 N.4       3 LYS4        0.0000 
     56 NZ        -46.1600  -17.6200   37.2300 N.4       3 LYS4        0.0000 
     57 NZ        -44.8900  -18.2400   36.7500 N.4       3 LYS4        0.0000 
     58 NZ        -44.8200  -19.0600   38.0100 N.4       3 LYS4        0.0000 
     59 CZ        -45.8100  -25.8400   30.0500 C.ar      4 PHE5        0.0000 
     60 CZ        -43.7500  -25.3800   30.2500 C.ar      4 PHE5        0.0000 
     61 CA        -47.8100  -27.1200   31.1100 C.3       5 GLY6        0.0000 
     62 CA        -48.3000  -25.4100   32.2500 C.3       5 GLY6        0.0000 
     63 CA        -50.1400  -22.2500   32.6200 C.3       5 GLY6        0.0000 
     64 CA        -50.0800  -23.0700   33.8700 C.3       5 GLY6        0.0000 
     65 CA        -50.0100  -23.8900   35.1300 C.3       5 GLY6        0.0000 
     66 CA        -45.1000  -23.9300   29.4700 C.3       5 GLY6        0.0000 
     67 CA        -44.9000  -26.3900   33.2300 C.3       5 GLY6        0.0000 
     68 CA        -42.0600  -24.8400   34.1000 C.3       5 GLY6        0.0000 
     69 DU        -47.0300  -26.0400   31.7800 H         6 CUB7        0.0000 
     70 DU        -47.6500  -22.6800   30.4100 H         6 CUB7        0.0000 
     71 DU        -47.5900  -23.5000   31.6700 H         6 CUB7        0.0000 
     72 DU        -47.5200  -24.3200   32.9300 H         6 CUB7        0.0000 
     73 DU        -46.3700  -23.3100   29.9400 H         6 CUB7        0.0000 
     74 DU        -46.3100  -24.1300   31.2000 H         6 CUB7        0.0000 
     75 DU        -46.2400  -24.9500   32.4500 H         6 CUB7        0.0000 
@<TRIPOS>BOND
@<TRIPOS>SUBSTRUCTURE
     1 ALA2        1 GROUP   
     2 ASP3        8 GROUP   
     3 LYS4       40 GROUP   
     4 PHE5       59 GROUP   
     5 GLY6       61 GROUP   
     6 CUB7       69 GROUP   
@<TRIPOS>SET

