#    Name: 6dta_1_GTP
#    Modification time : Fri May 22 19:34:36 2020

@<TRIPOS>MOLECULE
6dta_1_GTP
   32    34     1     0     1
SMALL
NO_CHARGES


@<TRIPOS>ATOM
      1 PG        -44.6270  -21.5930   32.1320 P.3       1 GTP1001     0.0000 
      2 O1G       -43.8390  -20.5210   31.4140 O.co2     1 GTP1001     0.0000 
      3 O2G       -43.7610  -22.1730   33.2250 O.co2     1 GTP1001     0.0000 
      4 O3G       -45.8870  -21.0080   32.7340 O.co2     1 GTP1001     0.0000 
      5 O3B       -44.9850  -22.7900   31.1030 O.3       1 GTP1001     0.0000 
      6 PB        -46.4910  -23.0690   30.5770 P.3       1 GTP1001     0.0000 
      7 O1B       -46.5290  -24.2950   29.6900 O.co2     1 GTP1001     0.0000 
      8 O2B       -47.4750  -23.2130   31.7180 O.co2     1 GTP1001     0.0000 
      9 O3A       -46.8080  -21.7380   29.7130 O.3       1 GTP1001     0.0000 
     10 PA        -46.6420  -21.6270   28.1070 P.3       1 GTP1001     0.0000 
     11 O1A       -45.7320  -22.7020   27.5590 O.co2     1 GTP1001     0.0000 
     12 O2A       -46.1740  -20.2410   27.7240 O.co2     1 GTP1001     0.0000 
     13 O5'       -48.1360  -21.9150   27.5940 O.3       1 GTP1001     0.0000 
     14 C5'       -48.3660  -22.7750   26.5050 C.3       1 GTP1001     0.0000 
     15 C4'       -49.1600  -21.9970   25.4720 C.3       1 GTP1001     0.0000 
     16 O4'       -48.7770  -20.6340   25.5310 O.3       1 GTP1001     0.0000 
     17 C3'       -48.8810  -22.4630   24.0570 C.3       1 GTP1001     0.0000 
     18 O3'       -49.7910  -23.4530   23.6330 O.3       1 GTP1001     0.0000 
     19 C2'       -49.0330  -21.1760   23.2720 C.3       1 GTP1001     0.0000 
     20 O2'       -50.3460  -21.0690   22.7760 O.3       1 GTP1001     0.0000 
     21 C1'       -48.7090  -20.0410   24.2470 C.3       1 GTP1001     0.0000 
     22 N9        -47.3190  -19.5480   24.0360 N.pl3     1 GTP1001     0.0000 
     23 C8        -46.4030  -19.1760   25.0020 C.2       1 GTP1001     0.0000 
     24 N7        -45.2500  -18.7880   24.4010 N.2       1 GTP1001     0.0000 
     25 C5        -45.4110  -18.9050   23.0520 C.2       1 GTP1001     0.0000 
     26 C6        -44.5700  -18.6530   21.9580 C.2       1 GTP1001     0.0000 
     27 O6        -43.4130  -18.2330   22.1310 O.2       1 GTP1001     0.0000 
     28 N1        -45.0590  -18.8680   20.6730 N.am      1 GTP1001     0.0000 
     29 C2        -46.3620  -19.3280   20.4670 C.2       1 GTP1001     0.0000 
     30 N2        -46.8820  -19.5600   19.2510 N.pl3     1 GTP1001     0.0000 
     31 N3        -47.1630  -19.5680   21.5540 N.2       1 GTP1001     0.0000 
     32 C4        -46.7070  -19.3720   22.8170 C.2       1 GTP1001     0.0000 
@<TRIPOS>BOND
     1    1    2 ar   
     2    1    3 ar   
     3    1    4 ar   
     4    1    5 1    
     5    5    6 1    
     6    6    7 ar   
     7    6    8 ar   
     8    6    9 1    
     9    9   10 1    
    10   10   11 ar   
    11   10   12 ar   
    12   10   13 1    
    13   13   14 1    
    14   14   15 1    
    15   15   16 1    
    16   15   17 1    
    17   16   21 1    
    18   17   18 1    
    19   17   19 1    
    20   19   20 1    
    21   19   21 1    
    22   21   22 1    
    23   22   23 1    
    24   22   32 1    
    25   23   24 2    
    26   24   25 1    
    27   25   26 1    
    28   25   32 2    
    29   26   27 2    
    30   26   28 am   
    31   28   29 1    
    32   29   30 1    
    33   29   31 2    
    34   31   32 1    
@<TRIPOS>SUBSTRUCTURE
     1 GTP1001     1 GROUP   
@<TRIPOS>SET
ATOM$ORANGE STATIC     ATOMS   COLORGROUP SYSTEM 
20 14 14 15 15 17 17 19 19 21 21 23 23 25 25 26 26 29 \
29 32 32 

