#    Name: 5xux_5_NAP
#    Modification time : Fri May 22 19:14:46 2020

@<TRIPOS>MOLECULE
5xux_5_NAP
   48    52     1     0     1
SMALL
NO_CHARGES


@<TRIPOS>ATOM
      1 PA        -24.8390    8.4810   96.8570 P.3       1 NAP301      0.0000 
      2 O1A       -24.8400    8.3580   95.3600 O.co2     1 NAP301      0.0000 
      3 O2A       -25.6580    7.5920   97.7490 O.co2     1 NAP301      0.0000 
      4 O5B       -25.3340    9.9700   97.1520 O.3       1 NAP301      0.0000 
      5 C5B       -25.5460   10.3500   98.4900 C.3       1 NAP301      0.0000 
      6 C4B       -25.7790   11.8330   98.5530 C.3       1 NAP301      0.0000 
      7 O4B       -27.0630   12.1600   98.0320 O.3       1 NAP301      0.0000 
      8 C3B       -25.8060   12.3310   99.9950 C.3       1 NAP301      0.0000 
      9 O3B       -24.5100   12.4460  100.5730 O.3       1 NAP301      0.0000 
     10 C2B       -26.4880   13.6680   99.8040 C.3       1 NAP301      0.0000 
     11 O2B       -25.5090   14.6860   99.5920 O.3       1 NAP301      0.0000 
     12 C1B       -27.4160   13.4130   98.5910 C.3       1 NAP301      0.0000 
     13 N9A       -28.7680   13.4760   99.1600 N.pl3     1 NAP301      0.0000 
     14 C8A       -29.5900   14.5330   99.0240 C.2       1 NAP301      0.0000 
     15 N7A       -30.7410   14.3580   99.7120 N.2       1 NAP301      0.0000 
     16 C5A       -30.6390   13.1800  100.3310 C.ar      1 NAP301      0.0000 
     17 C6A       -31.4880   12.3960  101.2380 C.ar      1 NAP301      0.0000 
     18 N6A       -32.6850   12.8660  101.5990 N.pl3     1 NAP301      0.0000 
     19 N1A       -31.0200   11.1980  101.6720 N.ar      1 NAP301      0.0000 
     20 C2A       -29.8110   10.7220  101.3050 C.ar      1 NAP301      0.0000 
     21 N3A       -28.9780   11.3890  100.4920 N.ar      1 NAP301      0.0000 
     22 C4A       -29.3330   12.5960   99.9820 C.ar      1 NAP301      0.0000 
     23 O3        -23.3180    8.5670   97.3880 O.3       1 NAP301      0.0000 
     24 PN        -22.4850    7.5730   98.3680 P.3       1 NAP301      0.0000 
     25 O1N       -23.1690    7.1550   99.6340 O.co2     1 NAP301      0.0000 
     26 O2N       -21.1860    8.3070   98.4800 O.co2     1 NAP301      0.0000 
     27 O5D       -22.3060    6.2750   97.4210 O.3       1 NAP301      0.0000 
     28 C5D       -21.5090    6.3780   96.2320 C.3       1 NAP301      0.0000 
     29 C4D       -20.7000    5.1040   95.9730 C.3       1 NAP301      0.0000 
     30 O4D       -21.5780    4.0340   95.6160 O.3       1 NAP301      0.0000 
     31 C3D       -19.7080    5.2520   94.8170 C.3       1 NAP301      0.0000 
     32 O3D       -18.4290    4.7650   95.1970 O.3       1 NAP301      0.0000 
     33 C2D       -20.2770    4.4100   93.7020 C.3       1 NAP301      0.0000 
     34 O2D       -19.2880    3.7850   92.8810 O.3       1 NAP301      0.0000 
     35 C1D       -21.0720    3.3730   94.4640 C.3       1 NAP301      0.0000 
     36 N1N       -22.1680    2.7850   93.6900 N.pl3     1 NAP301      0.0000 
     37 C2N       -22.1220    1.4750   93.4410 C.ar      1 NAP301      0.0000 
     38 C3N       -23.1220    0.8150   92.7230 C.ar      1 NAP301      0.0000 
     39 C7N       -23.0290   -0.6810   92.4930 C.2       1 NAP301      0.0000 
     40 O7N       -24.0610   -1.3170   92.3080 O.2       1 NAP301      0.0000 
     41 N7N       -21.8590   -1.3270   92.5440 N.am      1 NAP301      0.0000 
     42 C4N       -24.2090    1.5620   92.2650 C.ar      1 NAP301      0.0000 
     43 C5N       -24.2470    2.9330   92.5320 C.ar      1 NAP301      0.0000 
     44 C6N       -23.2080    3.5220   93.2600 C.ar      1 NAP301      0.0000 
     45 P2B       -25.8620   16.2710   99.5880 P.3       1 NAP301      0.0000 
     46 O1X       -24.5210   16.9620   99.6040 O.co2     1 NAP301      0.0000 
     47 O2X       -26.6040   16.4370   98.3090 O.co2     1 NAP301      0.0000 
     48 O3X       -26.6860   16.5060  100.8050 O.co2     1 NAP301      0.0000 
@<TRIPOS>BOND
     1    1    2 ar   
     2    1    3 ar   
     3    1    4 1    
     4    1   23 1    
     5    4    5 1    
     6    5    6 1    
     7    6    7 1    
     8    6    8 1    
     9    7   12 1    
    10    8    9 1    
    11    8   10 1    
    12   10   11 1    
    13   10   12 1    
    14   11   45 1    
    15   12   13 1    
    16   13   14 1    
    17   13   22 1    
    18   14   15 2    
    19   15   16 1    
    20   16   17 ar   
    21   16   22 ar   
    22   17   18 1    
    23   17   19 ar   
    24   19   20 ar   
    25   20   21 ar   
    26   21   22 ar   
    27   23   24 1    
    28   24   25 ar   
    29   24   26 ar   
    30   24   27 1    
    31   27   28 1    
    32   28   29 1    
    33   29   30 1    
    34   29   31 1    
    35   30   35 1    
    36   31   32 1    
    37   31   33 1    
    38   33   34 1    
    39   33   35 1    
    40   35   36 1    
    41   36   37 ar   
    42   36   44 ar   
    43   37   38 ar   
    44   38   39 1    
    45   38   42 ar   
    46   39   40 2    
    47   39   41 am   
    48   42   43 ar   
    49   43   44 ar   
    50   45   46 ar   
    51   45   47 ar   
    52   45   48 ar   
@<TRIPOS>SUBSTRUCTURE
     1 NAP301      1 GROUP   
@<TRIPOS>SET
ATOM$ORANGE STATIC     ATOMS   COLORGROUP SYSTEM 
42 5 5 6 6 8 8 10 10 12 12 14 14 16 16 17 17 20 \
20 22 22 28 28 29 29 31 31 33 33 35 35 37 37 38 38 39 \
39 42 42 43 43 44 44 

