#    Name: 5xux_1_NAP_CAVITY_N1_12
#    Modification time : Fri May 22 19:14:06 2020

@<TRIPOS>MOLECULE
5xux_1_NAP_CAVITY_N1_12
  100     0     6     0     0
SMALL
NO_CHARGES


@<TRIPOS>ATOM
      1 OG        -17.1000    7.3700  -13.5500 O.3       1 SER1        0.0000 
      2 OG        -18.0800    8.5100  -13.4800 O.3       1 SER1        0.0000 
      3 OG        -19.0600    9.6400  -13.4100 O.3       1 SER1        0.0000 
      4 OG        -20.2800    6.5600  -12.8700 O.3       1 SER1        0.0000 
      5 OG        -21.2600    7.7000  -12.8000 O.3       1 SER1        0.0000 
      6 OG        -18.6600   11.8900  -12.1700 O.3       1 SER1        0.0000 
      7 OG        -20.0100    6.7100  -11.4000 O.3       1 SER1        0.0000 
      8 OG        -14.5900    5.4000  -10.7500 O.3       1 SER1        0.0000 
      9 OG        -20.2000   12.3400   -8.8600 O.3       1 SER1        0.0000 
     10 OG        -21.1800   13.4800   -8.7900 O.3       1 SER1        0.0000 
     11 N         -17.0700    3.7000  -17.7900 N.am      2 ALA2        0.0000 
     12 N         -15.6900    4.8200  -16.6200 N.am      2 ALA2        0.0000 
     13 N         -16.7900    3.8400  -16.3200 N.am      2 ALA2        0.0000 
     14 N         -17.7700    4.9800  -16.2500 N.am      2 ALA2        0.0000 
     15 O         -22.2800   12.9000  -14.6600 O.2       2 ALA2        0.0000 
     16 O         -23.2600   14.0300  -14.5900 O.2       2 ALA2        0.0000 
     17 N         -20.5600    6.4200  -14.3400 N.am      2 ALA2        0.0000 
     18 O         -22.0000   13.0400  -13.1900 O.2       2 ALA2        0.0000 
     19 O         -22.9800   14.1700  -13.1200 O.2       2 ALA2        0.0000 
     20 O         -23.1000   12.0700  -12.8900 O.2       2 ALA2        0.0000 
     21 N         -19.6400   13.0200  -12.1000 N.am      2 ALA2        0.0000 
     22 N         -20.6200   14.1600  -12.0300 N.am      2 ALA2        0.0000 
     23 O         -19.7700   10.9200  -11.8700 O.2       2 ALA2        0.0000 
     24 N         -20.7500   12.0500  -11.8000 N.am      2 ALA2        0.0000 
     25 O         -22.8300   12.2100  -11.4200 O.2       2 ALA2        0.0000 
     26 O         -23.8100   13.3500  -11.3500 O.2       2 ALA2        0.0000 
     27 N         -21.9700    8.9800  -11.2600 N.am      2 ALA2        0.0000 
     28 N         -22.9500   10.1100  -11.1900 N.am      2 ALA2        0.0000 
     29 N         -23.9300   11.2400  -11.1200 N.am      2 ALA2        0.0000 
     30 O         -24.9100   12.3800  -11.0500 O.2       2 ALA2        0.0000 
     31 O         -15.5700    6.5300  -10.6800 O.2       2 ALA2        0.0000 
     32 O         -19.4900   11.0700  -10.4000 O.2       2 ALA2        0.0000 
     33 N         -20.4700   12.2000  -10.3300 N.am      2 ALA2        0.0000 
     34 N         -21.4500   13.3300  -10.2600 N.am      2 ALA2        0.0000 
     35 O         -22.4300   14.4700  -10.1900 O.2       2 ALA2        0.0000 
     36 O         -17.6500    6.6900  -10.3100 O.2       2 ALA2        0.0000 
     37 N         -22.5500   12.3600   -9.9500 N.am      2 ALA2        0.0000 
     38 O         -23.5300   13.4900   -9.8800 O.2       2 ALA2        0.0000 
     39 N         -23.6500   11.3900   -9.6500 N.am      2 ALA2        0.0000 
     40 N         -24.6300   12.5200   -9.5800 N.am      2 ALA2        0.0000 
     41 N         -22.2800   12.5100   -8.4900 N.am      2 ALA2        0.0000 
     42 OD1       -21.0500   15.9700  -15.1900 O.co2     3 ASP3        0.0000 
     43 OD1       -16.5200    3.9900  -14.8500 O.co2     3 ASP3        0.0000 
     44 OD1       -17.5000    5.1200  -14.7800 O.co2     3 ASP3        0.0000 
     45 OD1       -18.6000    4.1500  -14.4800 O.co2     3 ASP3        0.0000 
     46 OD1       -15.1400    5.1100  -13.6900 O.co2     3 ASP3        0.0000 
     47 OD1       -15.2600    3.0000  -13.4600 O.co2     3 ASP3        0.0000 
     48 OD1       -17.2200    5.2700  -13.3200 O.co2     3 ASP3        0.0000 
     49 OD1       -18.2000    6.4000  -13.2400 O.co2     3 ASP3        0.0000 
     50 OD1       -19.3000    5.4300  -12.9400 O.co2     3 ASP3        0.0000 
     51 OD1       -14.8700    5.2500  -12.2200 O.co2     3 ASP3        0.0000 
     52 OD1       -15.8500    6.3900  -12.1500 O.co2     3 ASP3        0.0000 
     53 OD1       -14.9900    3.1500  -11.9900 O.co2     3 ASP3        0.0000 
     54 OD1       -16.9500    5.4100  -11.8500 O.co2     3 ASP3        0.0000 
     55 OD1       -17.9300    6.5500  -11.7800 O.co2     3 ASP3        0.0000 
     56 NZ        -20.4400    8.5200  -14.5700 N.4       4 LYS4        0.0000 
     57 NZ        -20.7800   16.1200  -13.7300 N.4       4 LYS4        0.0000 
     58 NZ        -20.0400   10.7700  -13.3300 N.4       4 LYS4        0.0000 
     59 NZ        -21.0200   11.9100  -13.2600 N.4       4 LYS4        0.0000 
     60 NZ        -20.1600    8.6700  -13.1000 N.4       4 LYS4        0.0000 
     61 NZ        -21.1400    9.8000  -13.0300 N.4       4 LYS4        0.0000 
     62 NZ        -22.1200   10.9400  -12.9600 N.4       4 LYS4        0.0000 
     63 NZ        -22.2400    8.8300  -12.7300 N.4       4 LYS4        0.0000 
     64 NZ        -21.6000   15.2900  -11.9600 N.4       4 LYS4        0.0000 
     65 CA        -21.4500   13.7200  -16.4300 C.3       5 GLY6        0.0000 
     66 CA        -22.4300   14.8600  -16.3600 C.3       5 GLY6        0.0000 
     67 CA        -17.8900    2.8700  -16.0200 C.3       5 GLY6        0.0000 
     68 CA        -18.8700    4.0100  -15.9500 C.3       5 GLY6        0.0000 
     69 CA        -20.0700   14.8400  -15.2600 C.3       5 GLY6        0.0000 
     70 CA        -13.3300    4.8000  -15.5300 C.3       5 GLY6        0.0000 
     71 CA        -21.1700   13.8700  -14.9600 C.3       5 GLY6        0.0000 
     72 CA        -15.4100    4.9600  -15.1600 C.3       5 GLY6        0.0000 
     73 CA        -18.4800    6.2600  -14.7100 C.3       5 GLY6        0.0000 
     74 CA        -19.4600    7.3900  -14.6400 C.3       5 GLY6        0.0000 
     75 CA        -19.5800    5.2900  -14.4100 C.3       5 GLY6        0.0000 
     76 CA        -18.8200   13.8500  -13.8700 C.3       5 GLY6        0.0000 
     77 CA        -19.8000   14.9800  -13.8000 C.3       5 GLY6        0.0000 
     78 CA        -19.9200   12.8800  -13.5700 C.3       5 GLY6        0.0000 
     79 CA        -16.1200    6.2400  -13.6200 C.3       5 GLY6        0.0000 
     80 CA        -23.2200    9.9600  -12.6600 C.3       5 GLY6        0.0000 
     81 CA        -16.8300    7.5200  -12.0800 C.3       5 GLY6        0.0000 
     82 CA        -17.8100    8.6500  -12.0100 C.3       5 GLY6        0.0000 
     83 CA        -18.7900    9.7900  -11.9400 C.3       5 GLY6        0.0000 
     84 CA        -18.9100    7.6800  -11.7100 C.3       5 GLY6        0.0000 
     85 CA        -19.8900    8.8100  -11.6300 C.3       5 GLY6        0.0000 
     86 CA        -20.8700    9.9500  -11.5600 C.3       5 GLY6        0.0000 
     87 CA        -19.0300    5.5800  -11.4700 C.3       5 GLY6        0.0000 
     88 CA        -20.9900    7.8400  -11.3300 C.3       5 GLY6        0.0000 
     89 CA        -16.6700    5.5600  -10.3800 C.3       5 GLY6        0.0000 
     90 CA        -18.6300    7.8300  -10.2400 C.3       5 GLY6        0.0000 
     91 CA        -20.5900   10.0900  -10.1000 C.3       5 GLY6        0.0000 
     92 CA        -21.5700   11.2300  -10.0300 C.3       5 GLY6        0.0000 
     93 CA        -22.6700   10.2500   -9.7200 C.3       5 GLY6        0.0000 
     94 DU        -22.1500   15.0000  -14.8900 H         6 CUB7        0.0000 
     95 DU        -20.9000   14.0100  -13.4900 H         6 CUB7        0.0000 
     96 DU        -21.8800   15.1500  -13.4200 H         6 CUB7        0.0000 
     97 DU        -19.1800    7.5400  -13.1700 H         6 CUB7        0.0000 
     98 DU        -21.7300   13.1900  -11.7200 H         6 CUB7        0.0000 
     99 DU        -22.7100   14.3200  -11.6500 H         6 CUB7        0.0000 
    100 DU        -21.8500   11.0800  -11.4900 H         6 CUB7        0.0000 
@<TRIPOS>BOND
@<TRIPOS>SUBSTRUCTURE
     1 SER1        1 GROUP   
     2 ALA2       11 GROUP   
     3 ASP3       42 GROUP   
     4 LYS4       56 GROUP   
     5 GLY6       65 GROUP   
     6 CUB7       94 GROUP   
@<TRIPOS>SET

