#    Name: 5xux_6_NAP
#    Modification time : Fri May 22 19:14:55 2020

@<TRIPOS>MOLECULE
5xux_6_NAP
   48    52     1     0     1
SMALL
NO_CHARGES


@<TRIPOS>ATOM
      1 PA        -13.8830   -8.4580  116.2110 P.3       1 NAP301      0.0000 
      2 O1A       -14.4330   -9.7170  116.8390 O.co2     1 NAP301      0.0000 
      3 O2A       -13.5460   -8.4060  114.7400 O.co2     1 NAP301      0.0000 
      4 O5B       -12.5210   -8.1510  116.9940 O.3       1 NAP301      0.0000 
      5 C5B       -12.0150   -6.8290  116.9960 C.3       1 NAP301      0.0000 
      6 C4B       -10.5970   -6.8470  117.5150 C.3       1 NAP301      0.0000 
      7 O4B        -9.7650   -7.9210  117.0510 O.3       1 NAP301      0.0000 
      8 C3B        -9.8360   -5.6030  117.1180 C.3       1 NAP301      0.0000 
      9 O3B       -10.3740   -4.4320  117.7500 O.3       1 NAP301      0.0000 
     10 C2B        -8.4560   -6.0090  117.5830 C.3       1 NAP301      0.0000 
     11 O2B        -8.2600   -5.5150  118.9140 O.3       1 NAP301      0.0000 
     12 C1B        -8.4660   -7.5490  117.5310 C.3       1 NAP301      0.0000 
     13 N9A        -7.3190   -8.0500  116.7290 N.pl3     1 NAP301      0.0000 
     14 C8A        -6.1360   -8.3260  117.3000 C.2       1 NAP301      0.0000 
     15 N7A        -5.2270   -8.7500  116.3900 N.2       1 NAP301      0.0000 
     16 C5A        -5.8350   -8.7460  115.1940 C.ar      1 NAP301      0.0000 
     17 C6A        -5.4300   -9.0840  113.8070 C.ar      1 NAP301      0.0000 
     18 N6A        -4.1740   -9.5160  113.5410 N.pl3     1 NAP301      0.0000 
     19 N1A        -6.3620   -8.9400  112.8310 N.ar      1 NAP301      0.0000 
     20 C2A        -7.6150   -8.5070  113.0930 C.ar      1 NAP301      0.0000 
     21 N3A        -8.0470   -8.1860  114.3350 N.ar      1 NAP301      0.0000 
     22 C4A        -7.2220   -8.2770  115.4120 C.ar      1 NAP301      0.0000 
     23 O3        -14.8310   -7.2220  116.6700 O.3       1 NAP301      0.0000 
     24 PN        -15.7160   -6.2270  115.7470 P.3       1 NAP301      0.0000 
     25 O1N       -15.2340   -6.2230  114.3150 O.co2     1 NAP301      0.0000 
     26 O2N       -15.7850   -4.9030  116.4730 O.co2     1 NAP301      0.0000 
     27 O5D       -17.1830   -6.9050  115.8110 O.3       1 NAP301      0.0000 
     28 C5D       -18.3010   -6.2010  115.2750 C.3       1 NAP301      0.0000 
     29 C4D       -19.6590   -6.8220  115.6160 C.3       1 NAP301      0.0000 
     30 O4D       -19.8040   -8.1240  115.0480 O.3       1 NAP301      0.0000 
     31 C3D       -19.9720   -6.9990  117.1000 C.3       1 NAP301      0.0000 
     32 O3D       -20.6250   -5.8340  117.6240 O.3       1 NAP301      0.0000 
     33 C2D       -20.8470   -8.2510  117.1590 C.3       1 NAP301      0.0000 
     34 O2D       -22.1810   -7.9910  117.6230 O.3       1 NAP301      0.0000 
     35 C1D       -20.8900   -8.7660  115.7200 C.3       1 NAP301      0.0000 
     36 N1N       -20.7840  -10.2280  115.5740 N.pl3     1 NAP301      0.0000 
     37 C2N       -21.7400  -10.8880  114.8840 C.ar      1 NAP301      0.0000 
     38 C3N       -21.6840  -12.2740  114.7100 C.ar      1 NAP301      0.0000 
     39 C7N       -22.7600  -12.9910  113.9420 C.2       1 NAP301      0.0000 
     40 O7N       -22.4350  -13.7830  113.0710 O.2       1 NAP301      0.0000 
     41 N7N       -24.0420  -12.7440  114.2190 N.am      1 NAP301      0.0000 
     42 C4N       -20.6140  -12.9800  115.2530 C.ar      1 NAP301      0.0000 
     43 C5N       -19.6300  -12.2840  115.9550 C.ar      1 NAP301      0.0000 
     44 C6N       -19.7360  -10.8980  116.0970 C.ar      1 NAP301      0.0000 
     45 P2B        -6.8510   -5.5550  119.6920 P.3       1 NAP301      0.0000 
     46 O1X        -6.8610   -4.3350  120.5890 O.co2     1 NAP301      0.0000 
     47 O2X        -6.8580   -6.8700  120.4350 O.co2     1 NAP301      0.0000 
     48 O3X        -5.8640   -5.4990  118.5580 O.co2     1 NAP301      0.0000 
@<TRIPOS>BOND
     1    1    2 ar   
     2    1    3 ar   
     3    1    4 1    
     4    1   23 1    
     5    4    5 1    
     6    5    6 1    
     7    6    7 1    
     8    6    8 1    
     9    7   12 1    
    10    8    9 1    
    11    8   10 1    
    12   10   11 1    
    13   10   12 1    
    14   11   45 1    
    15   12   13 1    
    16   13   14 1    
    17   13   22 1    
    18   14   15 2    
    19   15   16 1    
    20   16   17 ar   
    21   16   22 ar   
    22   17   18 1    
    23   17   19 ar   
    24   19   20 ar   
    25   20   21 ar   
    26   21   22 ar   
    27   23   24 1    
    28   24   25 ar   
    29   24   26 ar   
    30   24   27 1    
    31   27   28 1    
    32   28   29 1    
    33   29   30 1    
    34   29   31 1    
    35   30   35 1    
    36   31   32 1    
    37   31   33 1    
    38   33   34 1    
    39   33   35 1    
    40   35   36 1    
    41   36   37 ar   
    42   36   44 ar   
    43   37   38 ar   
    44   38   39 1    
    45   38   42 ar   
    46   39   40 2    
    47   39   41 am   
    48   42   43 ar   
    49   43   44 ar   
    50   45   46 ar   
    51   45   47 ar   
    52   45   48 ar   
@<TRIPOS>SUBSTRUCTURE
     1 NAP301      1 GROUP   
@<TRIPOS>SET
ATOM$ORANGE STATIC     ATOMS   COLORGROUP SYSTEM 
42 5 5 6 6 8 8 10 10 12 12 14 14 16 16 17 17 20 \
20 22 22 28 28 29 29 31 31 33 33 35 35 37 37 38 38 39 \
39 42 42 43 43 44 44 

