#    Name: 5xux_4_NAP
#    Modification time : Fri May 22 19:14:36 2020

@<TRIPOS>MOLECULE
5xux_4_NAP
   48    52     1     0     1
SMALL
NO_CHARGES


@<TRIPOS>ATOM
      1 PA        -63.4270   -1.1810   65.7400 P.3       1 NAP301      0.0000 
      2 O1A       -62.5880   -2.2340   66.4320 O.co2     1 NAP301      0.0000 
      3 O2A       -62.8700    0.0340   65.0370 O.co2     1 NAP301      0.0000 
      4 O5B       -64.4690   -0.5750   66.7990 O.3       1 NAP301      0.0000 
      5 C5B       -65.1950    0.5700   66.3770 C.3       1 NAP301      0.0000 
      6 C4B       -66.2980    0.8500   67.3590 C.3       1 NAP301      0.0000 
      7 O4B       -65.8090    1.5940   68.4780 O.3       1 NAP301      0.0000 
      8 C3B       -67.3950    1.6990   66.7390 C.3       1 NAP301      0.0000 
      9 O3B       -68.2810    0.9210   65.9200 O.3       1 NAP301      0.0000 
     10 C2B       -68.0380    2.2670   67.9850 C.3       1 NAP301      0.0000 
     11 O2B       -69.0520    1.3700   68.4310 O.3       1 NAP301      0.0000 
     12 C1B       -66.8960    2.3530   69.0030 C.3       1 NAP301      0.0000 
     13 N9A       -66.5660    3.7830   69.2040 N.pl3     1 NAP301      0.0000 
     14 C8A       -66.8850    4.4600   70.3150 C.2       1 NAP301      0.0000 
     15 N7A       -66.4900    5.7550   70.2340 N.2       1 NAP301      0.0000 
     16 C5A       -65.9120    5.9220   69.0410 C.ar      1 NAP301      0.0000 
     17 C6A       -65.2810    7.0510   68.3260 C.ar      1 NAP301      0.0000 
     18 N6A       -65.2090    8.2690   68.9160 N.pl3     1 NAP301      0.0000 
     19 N1A       -64.7880    6.8160   67.0810 N.ar      1 NAP301      0.0000 
     20 C2A       -64.8660    5.5970   66.5060 C.ar      1 NAP301      0.0000 
     21 N3A       -65.4220    4.5280   67.1170 N.ar      1 NAP301      0.0000 
     22 C4A       -65.9610    4.6200   68.3550 C.ar      1 NAP301      0.0000 
     23 O3        -64.4120   -2.0160   64.7700 O.3       1 NAP301      0.0000 
     24 PN        -64.2860   -2.2400   63.1780 P.3       1 NAP301      0.0000 
     25 O1N       -64.1310   -0.8850   62.5110 O.co2     1 NAP301      0.0000 
     26 O2N       -65.4570   -3.1260   62.8340 O.co2     1 NAP301      0.0000 
     27 O5D       -62.9650   -3.1360   62.9530 O.3       1 NAP301      0.0000 
     28 C5D       -62.9010   -4.4870   63.4120 C.3       1 NAP301      0.0000 
     29 C4D       -62.2150   -5.3750   62.3780 C.3       1 NAP301      0.0000 
     30 O4D       -60.7970   -5.1440   62.3810 O.3       1 NAP301      0.0000 
     31 C3D       -62.4360   -6.8590   62.6780 C.3       1 NAP301      0.0000 
     32 O3D       -63.0060   -7.5350   61.5460 O.3       1 NAP301      0.0000 
     33 C2D       -61.0650   -7.3940   63.0570 C.3       1 NAP301      0.0000 
     34 O2D       -60.8500   -8.7300   62.5830 O.3       1 NAP301      0.0000 
     35 C1D       -60.0860   -6.3920   62.4440 C.3       1 NAP301      0.0000 
     36 N1N       -58.7950   -6.2710   63.1740 N.pl3     1 NAP301      0.0000 
     37 C2N       -57.6460   -6.5770   62.5330 C.ar      1 NAP301      0.0000 
     38 C3N       -56.3980   -6.4860   63.1490 C.ar      1 NAP301      0.0000 
     39 C7N       -55.1500   -6.8240   62.3760 C.2       1 NAP301      0.0000 
     40 O7N       -54.2120   -6.0400   62.4150 O.2       1 NAP301      0.0000 
     41 N7N       -55.0880   -7.9470   61.6550 N.am      1 NAP301      0.0000 
     42 C4N       -56.3290   -6.0640   64.4720 C.ar      1 NAP301      0.0000 
     43 C5N       -57.5150   -5.7550   65.1290 C.ar      1 NAP301      0.0000 
     44 C6N       -58.7400   -5.8610   64.4570 C.ar      1 NAP301      0.0000 
     45 P2B       -70.3240    1.8280   69.3040 P.3       1 NAP301      0.0000 
     46 O1X       -70.7690    0.4830   69.8390 O.co2     1 NAP301      0.0000 
     47 O2X       -69.7310    2.7870   70.3060 O.co2     1 NAP301      0.0000 
     48 O3X       -71.2830    2.4810   68.3310 O.co2     1 NAP301      0.0000 
@<TRIPOS>BOND
     1    1    2 ar   
     2    1    3 ar   
     3    1    4 1    
     4    1   23 1    
     5    4    5 1    
     6    5    6 1    
     7    6    7 1    
     8    6    8 1    
     9    7   12 1    
    10    8    9 1    
    11    8   10 1    
    12   10   11 1    
    13   10   12 1    
    14   11   45 1    
    15   12   13 1    
    16   13   14 1    
    17   13   22 1    
    18   14   15 2    
    19   15   16 1    
    20   16   17 ar   
    21   16   22 ar   
    22   17   18 1    
    23   17   19 ar   
    24   19   20 ar   
    25   20   21 ar   
    26   21   22 ar   
    27   23   24 1    
    28   24   25 ar   
    29   24   26 ar   
    30   24   27 1    
    31   27   28 1    
    32   28   29 1    
    33   29   30 1    
    34   29   31 1    
    35   30   35 1    
    36   31   32 1    
    37   31   33 1    
    38   33   34 1    
    39   33   35 1    
    40   35   36 1    
    41   36   37 ar   
    42   36   44 ar   
    43   37   38 ar   
    44   38   39 1    
    45   38   42 ar   
    46   39   40 2    
    47   39   41 am   
    48   42   43 ar   
    49   43   44 ar   
    50   45   46 ar   
    51   45   47 ar   
    52   45   48 ar   
@<TRIPOS>SUBSTRUCTURE
     1 NAP301      1 GROUP   
@<TRIPOS>SET
ATOM$ORANGE STATIC     ATOMS   COLORGROUP SYSTEM 
42 5 5 6 6 8 8 10 10 12 12 14 14 16 16 17 17 20 \
20 22 22 28 28 29 29 31 31 33 33 35 35 37 37 38 38 39 \
39 42 42 43 43 44 44 

