#    Name: 5xux_2_NAP
#    Modification time : Fri May 22 19:14:13 2020

@<TRIPOS>MOLECULE
5xux_2_NAP
   48    52     1     0     1
SMALL
NO_CHARGES


@<TRIPOS>ATOM
      1 PA        -24.8370   -8.4850    6.8140 P.3       1 NAP301      0.0000 
      2 O1A       -24.8220   -8.3660    8.3110 O.co2     1 NAP301      0.0000 
      3 O2A       -25.6000   -7.5810    5.9000 O.co2     1 NAP301      0.0000 
      4 O5B       -25.3750   -9.9690    6.5340 O.3       1 NAP301      0.0000 
      5 C5B       -25.5930  -10.3620    5.1940 C.3       1 NAP301      0.0000 
      6 C4B       -25.7880  -11.8540    5.1440 C.3       1 NAP301      0.0000 
      7 O4B       -27.0450  -12.2220    5.7010 O.3       1 NAP301      0.0000 
      8 C3B       -25.8370  -12.3510    3.7080 C.3       1 NAP301      0.0000 
      9 O3B       -24.5540  -12.3970    3.0840 O.3       1 NAP301      0.0000 
     10 C2B       -26.4890  -13.6990    3.9230 C.3       1 NAP301      0.0000 
     11 O2B       -25.4790  -14.7070    4.0990 O.3       1 NAP301      0.0000 
     12 C1B       -27.4300  -13.4500    5.1310 C.3       1 NAP301      0.0000 
     13 N9A       -28.7960  -13.4750    4.5570 N.pl3     1 NAP301      0.0000 
     14 C8A       -29.6260  -14.5240    4.6850 C.2       1 NAP301      0.0000 
     15 N7A       -30.7740  -14.3380    3.9990 N.2       1 NAP301      0.0000 
     16 C5A       -30.6740  -13.1580    3.3810 C.ar      1 NAP301      0.0000 
     17 C6A       -31.5300  -12.3660    2.4860 C.ar      1 NAP301      0.0000 
     18 N6A       -32.7330  -12.8310    2.1270 N.pl3     1 NAP301      0.0000 
     19 N1A       -31.0630  -11.1730    2.0430 N.ar      1 NAP301      0.0000 
     20 C2A       -29.8550  -10.7020    2.4050 C.ar      1 NAP301      0.0000 
     21 N3A       -29.0290  -11.3780    3.2160 N.ar      1 NAP301      0.0000 
     22 C4A       -29.3680  -12.5870    3.7330 C.ar      1 NAP301      0.0000 
     23 O3        -23.3370   -8.6120    6.2500 O.3       1 NAP301      0.0000 
     24 PN        -22.4980   -7.5440    5.3710 P.3       1 NAP301      0.0000 
     25 O1N       -23.1930   -7.0550    4.1240 O.co2     1 NAP301      0.0000 
     26 O2N       -21.2090   -8.2930    5.2460 O.co2     1 NAP301      0.0000 
     27 O5D       -22.3510   -6.3000    6.3980 O.3       1 NAP301      0.0000 
     28 C5D       -21.4670   -6.3900    7.5240 C.3       1 NAP301      0.0000 
     29 C4D       -20.6880   -5.0900    7.7530 C.3       1 NAP301      0.0000 
     30 O4D       -21.5790   -4.0210    8.0970 O.3       1 NAP301      0.0000 
     31 C3D       -19.6730   -5.2060    8.8950 C.3       1 NAP301      0.0000 
     32 O3D       -18.3970   -4.7290    8.4660 O.3       1 NAP301      0.0000 
     33 C2D       -20.2390   -4.3540   10.0040 C.3       1 NAP301      0.0000 
     34 O2D       -19.2590   -3.6570   10.7850 O.3       1 NAP301      0.0000 
     35 C1D       -21.0860   -3.3500    9.2520 C.3       1 NAP301      0.0000 
     36 N1N       -22.1900   -2.7800   10.0370 N.pl3     1 NAP301      0.0000 
     37 C2N       -22.1780   -1.4690   10.2630 C.ar      1 NAP301      0.0000 
     38 C3N       -23.1850   -0.8210   10.9830 C.ar      1 NAP301      0.0000 
     39 C7N       -23.1230    0.6820   11.1840 C.2       1 NAP301      0.0000 
     40 O7N       -24.1570    1.2750   11.4820 O.2       1 NAP301      0.0000 
     41 N7N       -21.9890    1.3770   10.9950 N.am      1 NAP301      0.0000 
     42 C4N       -24.2480   -1.5860   11.4720 C.ar      1 NAP301      0.0000 
     43 C5N       -24.2500   -2.9650   11.2350 C.ar      1 NAP301      0.0000 
     44 C6N       -23.2010   -3.5370   10.5020 C.ar      1 NAP301      0.0000 
     45 P2B       -25.8390  -16.2980    4.0950 P.3       1 NAP301      0.0000 
     46 O1X       -24.5220  -17.0250    4.0430 O.co2     1 NAP301      0.0000 
     47 O2X       -26.5620  -16.4420    5.3950 O.co2     1 NAP301      0.0000 
     48 O3X       -26.6930  -16.5070    2.8860 O.co2     1 NAP301      0.0000 
@<TRIPOS>BOND
     1    1    2 ar   
     2    1    3 ar   
     3    1    4 1    
     4    1   23 1    
     5    4    5 1    
     6    5    6 1    
     7    6    7 1    
     8    6    8 1    
     9    7   12 1    
    10    8    9 1    
    11    8   10 1    
    12   10   11 1    
    13   10   12 1    
    14   11   45 1    
    15   12   13 1    
    16   13   14 1    
    17   13   22 1    
    18   14   15 2    
    19   15   16 1    
    20   16   17 ar   
    21   16   22 ar   
    22   17   18 1    
    23   17   19 ar   
    24   19   20 ar   
    25   20   21 ar   
    26   21   22 ar   
    27   23   24 1    
    28   24   25 ar   
    29   24   26 ar   
    30   24   27 1    
    31   27   28 1    
    32   28   29 1    
    33   29   30 1    
    34   29   31 1    
    35   30   35 1    
    36   31   32 1    
    37   31   33 1    
    38   33   34 1    
    39   33   35 1    
    40   35   36 1    
    41   36   37 ar   
    42   36   44 ar   
    43   37   38 ar   
    44   38   39 1    
    45   38   42 ar   
    46   39   40 2    
    47   39   41 am   
    48   42   43 ar   
    49   43   44 ar   
    50   45   46 ar   
    51   45   47 ar   
    52   45   48 ar   
@<TRIPOS>SUBSTRUCTURE
     1 NAP301      1 GROUP   
@<TRIPOS>SET
ATOM$ORANGE STATIC     ATOMS   COLORGROUP SYSTEM 
42 5 5 6 6 8 8 10 10 12 12 14 14 16 16 17 17 20 \
20 22 22 28 28 29 29 31 31 33 33 35 35 37 37 38 38 39 \
39 42 42 43 43 44 44 

