#    Name: 5xux_3_NAP
#    Modification time : Fri May 22 19:14:24 2020

@<TRIPOS>MOLECULE
5xux_3_NAP
   48    52     1     0     1
SMALL
NO_CHARGES


@<TRIPOS>ATOM
      1 PA        -63.4080    1.2040   37.9570 P.3       1 NAP301      0.0000 
      2 O1A       -62.6340    2.2980   37.2500 O.co2     1 NAP301      0.0000 
      3 O2A       -62.7660    0.0020   38.6080 O.co2     1 NAP301      0.0000 
      4 O5B       -64.4310    0.5890   36.8890 O.3       1 NAP301      0.0000 
      5 C5B       -65.1600   -0.5680   37.2640 C.3       1 NAP301      0.0000 
      6 C4B       -66.2250   -0.8240   36.2250 C.3       1 NAP301      0.0000 
      7 O4B       -65.7450   -1.6720   35.1780 O.3       1 NAP301      0.0000 
      8 C3B       -67.4120   -1.5420   36.8410 C.3       1 NAP301      0.0000 
      9 O3B       -68.3040   -0.6070   37.4620 O.3       1 NAP301      0.0000 
     10 C2B       -68.0030   -2.2800   35.6550 C.3       1 NAP301      0.0000 
     11 O2B       -69.0620   -1.5150   35.0700 O.3       1 NAP301      0.0000 
     12 C1B       -66.8420   -2.4350   34.6700 C.3       1 NAP301      0.0000 
     13 N9A       -66.5170   -3.8730   34.5030 N.pl3     1 NAP301      0.0000 
     14 C8A       -66.8150   -4.5680   33.3940 C.2       1 NAP301      0.0000 
     15 N7A       -66.4250   -5.8640   33.4960 N.2       1 NAP301      0.0000 
     16 C5A       -65.8660   -6.0120   34.6980 C.ar      1 NAP301      0.0000 
     17 C6A       -65.2540   -7.1400   35.4300 C.ar      1 NAP301      0.0000 
     18 N6A       -65.1760   -8.3660   34.8520 N.pl3     1 NAP301      0.0000 
     19 N1A       -64.7820   -6.8900   36.6780 N.ar      1 NAP301      0.0000 
     20 C2A       -64.8690   -5.6620   37.2370 C.ar      1 NAP301      0.0000 
     21 N3A       -65.4110   -4.5940   36.6110 N.ar      1 NAP301      0.0000 
     22 C4A       -65.9230   -4.7000   35.3650 C.ar      1 NAP301      0.0000 
     23 O3        -64.4400    1.9490   38.9610 O.3       1 NAP301      0.0000 
     24 PN        -64.3060    2.0990   40.5670 P.3       1 NAP301      0.0000 
     25 O1N       -64.1010    0.7220   41.1680 O.co2     1 NAP301      0.0000 
     26 O2N       -65.4760    2.9430   41.0190 O.co2     1 NAP301      0.0000 
     27 O5D       -62.9950    3.0090   40.7810 O.3       1 NAP301      0.0000 
     28 C5D       -62.9290    4.3490   40.2840 C.3       1 NAP301      0.0000 
     29 C4D       -62.2570    5.2520   41.3160 C.3       1 NAP301      0.0000 
     30 O4D       -60.8610    4.9350   41.4320 O.3       1 NAP301      0.0000 
     31 C3D       -62.3610    6.7310   40.9420 C.3       1 NAP301      0.0000 
     32 O3D       -62.9490    7.4760   42.0210 O.3       1 NAP301      0.0000 
     33 C2D       -60.9370    7.1680   40.6250 C.3       1 NAP301      0.0000 
     34 O2D       -60.6550    8.4890   41.1000 O.3       1 NAP301      0.0000 
     35 C1D       -60.0570    6.1210   41.3020 C.3       1 NAP301      0.0000 
     36 N1N       -58.7980    5.8210   40.5780 N.pl3     1 NAP301      0.0000 
     37 C2N       -57.6100    6.1000   41.1530 C.ar      1 NAP301      0.0000 
     38 C3N       -56.4000    5.8260   40.5130 C.ar      1 NAP301      0.0000 
     39 C7N       -55.0940    6.1420   41.1920 C.2       1 NAP301      0.0000 
     40 O7N       -54.1820    5.3280   41.1100 O.2       1 NAP301      0.0000 
     41 N7N       -54.9520    7.2800   41.8800 N.am      1 NAP301      0.0000 
     42 C4N       -56.4210    5.2420   39.2470 C.ar      1 NAP301      0.0000 
     43 C5N       -57.6530    4.9550   38.6610 C.ar      1 NAP301      0.0000 
     44 C6N       -58.8300    5.2540   39.3560 C.ar      1 NAP301      0.0000 
     45 P2B       -70.3800   -2.1470   34.3840 P.3       1 NAP301      0.0000 
     46 O1X       -70.3410   -1.6180   32.9750 O.co2     1 NAP301      0.0000 
     47 O2X       -70.2410   -3.6550   34.4760 O.co2     1 NAP301      0.0000 
     48 O3X       -71.5060   -1.5640   35.2090 O.co2     1 NAP301      0.0000 
@<TRIPOS>BOND
     1    1    2 ar   
     2    1    3 ar   
     3    1    4 1    
     4    1   23 1    
     5    4    5 1    
     6    5    6 1    
     7    6    7 1    
     8    6    8 1    
     9    7   12 1    
    10    8    9 1    
    11    8   10 1    
    12   10   11 1    
    13   10   12 1    
    14   11   45 1    
    15   12   13 1    
    16   13   14 1    
    17   13   22 1    
    18   14   15 2    
    19   15   16 1    
    20   16   17 ar   
    21   16   22 ar   
    22   17   18 1    
    23   17   19 ar   
    24   19   20 ar   
    25   20   21 ar   
    26   21   22 ar   
    27   23   24 1    
    28   24   25 ar   
    29   24   26 ar   
    30   24   27 1    
    31   27   28 1    
    32   28   29 1    
    33   29   30 1    
    34   29   31 1    
    35   30   35 1    
    36   31   32 1    
    37   31   33 1    
    38   33   34 1    
    39   33   35 1    
    40   35   36 1    
    41   36   37 ar   
    42   36   44 ar   
    43   37   38 ar   
    44   38   39 1    
    45   38   42 ar   
    46   39   40 2    
    47   39   41 am   
    48   42   43 ar   
    49   43   44 ar   
    50   45   46 ar   
    51   45   47 ar   
    52   45   48 ar   
@<TRIPOS>SUBSTRUCTURE
     1 NAP301      1 GROUP   
@<TRIPOS>SET
ATOM$ORANGE STATIC     ATOMS   COLORGROUP SYSTEM 
42 5 5 6 6 8 8 10 10 12 12 14 14 16 16 17 17 20 \
20 22 22 28 28 29 29 31 31 33 33 35 35 37 37 38 38 39 \
39 42 42 43 43 44 44 

