#    Name: 5xux_1_NAP
#    Modification time : Fri May 22 19:14:04 2020

@<TRIPOS>MOLECULE
5xux_1_NAP
   48    52     1     0     1
SMALL
NO_CHARGES


@<TRIPOS>ATOM
      1 PA        -13.9320    8.4540  -12.5740 P.3       1 NAP301      0.0000 
      2 O1A       -14.5380    9.6460  -13.2810 O.co2     1 NAP301      0.0000 
      3 O2A       -13.5890    8.5460  -11.1030 O.co2     1 NAP301      0.0000 
      4 O5B       -12.5780    8.1150  -13.3710 O.3       1 NAP301      0.0000 
      5 C5B       -11.5390    7.4080  -12.7120 C.3       1 NAP301      0.0000 
      6 C4B       -10.3550    7.2760  -13.6340 C.3       1 NAP301      0.0000 
      7 O4B        -9.4380    8.3560  -13.4570 O.3       1 NAP301      0.0000 
      8 C3B        -9.5490    6.0140  -13.3800 C.3       1 NAP301      0.0000 
      9 O3B       -10.1990    4.8330  -13.8760 O.3       1 NAP301      0.0000 
     10 C2B        -8.2600    6.3630  -14.0930 C.3       1 NAP301      0.0000 
     11 O2B        -8.3240    5.9440  -15.4660 O.3       1 NAP301      0.0000 
     12 C1B        -8.1790    7.8900  -13.9450 C.3       1 NAP301      0.0000 
     13 N9A        -7.0660    8.2270  -13.0270 N.pl3     1 NAP301      0.0000 
     14 C8A        -5.8290    8.4450  -13.4820 C.2       1 NAP301      0.0000 
     15 N7A        -4.9700    8.7240  -12.4730 N.2       1 NAP301      0.0000 
     16 C5A        -5.6730    8.6790  -11.3300 C.ar      1 NAP301      0.0000 
     17 C6A        -5.3670    8.8770   -9.8910 C.ar      1 NAP301      0.0000 
     18 N6A        -4.1090    9.1840   -9.4930 N.pl3     1 NAP301      0.0000 
     19 N1A        -6.3900    8.7340   -9.0070 N.ar      1 NAP301      0.0000 
     20 C2A        -7.6460    8.4260   -9.4030 C.ar      1 NAP301      0.0000 
     21 N3A        -7.9930    8.2360  -10.6980 N.ar      1 NAP301      0.0000 
     22 C4A        -7.0670    8.3430  -11.6930 C.ar      1 NAP301      0.0000 
     23 O3        -14.8640    7.1640  -12.8990 O.3       1 NAP301      0.0000 
     24 PN        -15.7440    6.2610  -11.8770 P.3       1 NAP301      0.0000 
     25 O1N       -15.2290    6.3870  -10.4640 O.co2     1 NAP301      0.0000 
     26 O2N       -15.7780    4.8760  -12.4810 O.co2     1 NAP301      0.0000 
     27 O5D       -17.2320    6.9070  -11.9540 O.3       1 NAP301      0.0000 
     28 C5D       -18.3740    6.0610  -12.1180 C.3       1 NAP301      0.0000 
     29 C4D       -19.7340    6.7680  -12.1080 C.3       1 NAP301      0.0000 
     30 O4D       -19.7390    8.0340  -11.4430 O.3       1 NAP301      0.0000 
     31 C3D       -20.2880    7.0400  -13.5050 C.3       1 NAP301      0.0000 
     32 O3D       -21.1150    5.9530  -13.9440 O.3       1 NAP301      0.0000 
     33 C2D       -21.0460    8.3560  -13.3720 C.3       1 NAP301      0.0000 
     34 O2D       -22.4340    8.2600  -13.7260 O.3       1 NAP301      0.0000 
     35 C1D       -20.8940    8.7440  -11.9040 C.3       1 NAP301      0.0000 
     36 N1N       -20.7690   10.1980  -11.7110 N.pl3     1 NAP301      0.0000 
     37 C2N       -21.7340   10.8670  -11.0420 C.ar      1 NAP301      0.0000 
     38 C3N       -21.6470   12.2470  -10.8390 C.ar      1 NAP301      0.0000 
     39 C7N       -22.7190   12.9890  -10.0930 C.2       1 NAP301      0.0000 
     40 O7N       -22.3890   13.8200   -9.2610 O.2       1 NAP301      0.0000 
     41 N7N       -24.0030   12.7270  -10.3420 N.am      1 NAP301      0.0000 
     42 C4N       -20.5450   12.9360  -11.3330 C.ar      1 NAP301      0.0000 
     43 C5N       -19.5540   12.2330  -12.0170 C.ar      1 NAP301      0.0000 
     44 C6N       -19.6930   10.8530  -12.1910 C.ar      1 NAP301      0.0000 
     45 P2B        -7.0420    5.7980  -16.4390 P.3       1 NAP301      0.0000 
     46 O1X        -7.4940    5.0170  -17.6510 O.co2     1 NAP301      0.0000 
     47 O2X        -6.6660    7.2200  -16.7650 O.co2     1 NAP301      0.0000 
     48 O3X        -6.0750    5.0500  -15.5670 O.co2     1 NAP301      0.0000 
@<TRIPOS>BOND
     1    1    2 ar   
     2    1    3 ar   
     3    1    4 1    
     4    1   23 1    
     5    4    5 1    
     6    5    6 1    
     7    6    7 1    
     8    6    8 1    
     9    7   12 1    
    10    8    9 1    
    11    8   10 1    
    12   10   11 1    
    13   10   12 1    
    14   11   45 1    
    15   12   13 1    
    16   13   14 1    
    17   13   22 1    
    18   14   15 2    
    19   15   16 1    
    20   16   17 ar   
    21   16   22 ar   
    22   17   18 1    
    23   17   19 ar   
    24   19   20 ar   
    25   20   21 ar   
    26   21   22 ar   
    27   23   24 1    
    28   24   25 ar   
    29   24   26 ar   
    30   24   27 1    
    31   27   28 1    
    32   28   29 1    
    33   29   30 1    
    34   29   31 1    
    35   30   35 1    
    36   31   32 1    
    37   31   33 1    
    38   33   34 1    
    39   33   35 1    
    40   35   36 1    
    41   36   37 ar   
    42   36   44 ar   
    43   37   38 ar   
    44   38   39 1    
    45   38   42 ar   
    46   39   40 2    
    47   39   41 am   
    48   42   43 ar   
    49   43   44 ar   
    50   45   46 ar   
    51   45   47 ar   
    52   45   48 ar   
@<TRIPOS>SUBSTRUCTURE
     1 NAP301      1 GROUP   
@<TRIPOS>SET
ATOM$ORANGE STATIC     ATOMS   COLORGROUP SYSTEM 
42 5 5 6 6 8 8 10 10 12 12 14 14 16 16 17 17 20 \
20 22 22 28 28 29 29 31 31 33 33 35 35 37 37 38 38 39 \
39 42 42 43 43 44 44 

