#    Name: 5xux_5_NAP_CAVITY_N1_4
#    Modification time : Fri May 22 19:14:48 2020

@<TRIPOS>MOLECULE
5xux_5_NAP_CAVITY_N1_4
   90     0     6     0     0
SMALL
NO_CHARGES


@<TRIPOS>ATOM
      1 OG        -21.9000    4.4500   93.4400 O.3       1 SER1        0.0000 
      2 OG        -23.0000    3.4800   93.7400 O.3       1 SER1        0.0000 
      3 OG        -19.5400    4.4300   94.5300 O.3       1 SER1        0.0000 
      4 OG        -20.5200    5.5700   94.6000 O.3       1 SER1        0.0000 
      5 OG        -21.5000    6.7000   94.6700 O.3       1 SER1        0.0000 
      6 OG        -19.6600    2.3300   94.7600 O.3       1 SER1        0.0000 
      7 OG        -20.6400    3.4600   94.8300 O.3       1 SER1        0.0000 
      8 OG        -21.6200    4.6000   94.9000 O.3       1 SER1        0.0000 
      9 OG        -19.2700    4.5800   96.0000 O.3       1 SER1        0.0000 
     10 OG        -20.3700    3.6100   96.3000 O.3       1 SER1        0.0000 
     11 OG        -22.6400    9.4000   99.2200 O.3       1 SER1        0.0000 
     12 OG        -22.7600    7.3000   99.4500 O.3       1 SER1        0.0000 
     13 N         -20.8800   -0.3600   89.1200 N.am      2 ALA2        0.0000 
     14 N         -24.9300    2.0700   89.6400 N.am      2 ALA2        0.0000 
     15 N         -25.0500   -0.0400   89.8700 N.am      2 ALA2        0.0000 
     16 N         -26.0300    1.1000   89.9400 N.am      2 ALA2        0.0000 
     17 O         -25.1700   -2.1400   90.1000 O.2       2 ALA2        0.0000 
     18 N         -26.1500   -1.0100   90.1700 N.am      2 ALA2        0.0000 
     19 N         -19.5100    0.7600   90.2900 N.am      2 ALA2        0.0000 
     20 N         -24.6500    2.2200   91.1100 N.am      2 ALA2        0.0000 
     21 O         -23.7900   -1.0200   91.2700 O.2       2 ALA2        0.0000 
     22 N         -24.7700    0.1100   91.3400 N.am      2 ALA2        0.0000 
     23 N         -20.3300   -0.0700   92.0600 N.am      2 ALA2        0.0000 
     24 N         -21.3100    1.0700   92.1300 N.am      2 ALA2        0.0000 
     25 N         -21.4400   -1.0400   92.3600 N.am      2 ALA2        0.0000 
     26 N         -22.4200    0.0900   92.4300 N.am      2 ALA2        0.0000 
     27 N         -24.3800    2.3600   92.5700 N.am      2 ALA2        0.0000 
     28 N         -25.3600    3.4900   92.6500 N.am      2 ALA2        0.0000 
     29 N         -23.5200   -0.8800   92.7400 N.am      2 ALA2        0.0000 
     30 N         -24.5000    0.2600   92.8100 N.am      2 ALA2        0.0000 
     31 N         -19.9400    2.1800   93.2900 N.am      2 ALA2        0.0000 
     32 N         -21.0400    1.2100   93.6000 N.am      2 ALA2        0.0000 
     33 O         -24.1000    2.5100   94.0400 O.2       2 ALA2        0.0000 
     34 N         -20.1300    7.8200   95.8400 N.am      2 ALA2        0.0000 
     35 O         -22.2100    7.9800   96.2100 O.2       2 ALA2        0.0000 
     36 O         -22.4500    3.7700   96.6700 O.2       2 ALA2        0.0000 
     37 O         -22.0500    6.0200   97.9100 O.2       2 ALA2        0.0000 
     38 O         -23.0300    7.1500   97.9800 O.2       2 ALA2        0.0000 
     39 OD1       -20.2500    5.7100   96.0700 O.co2     3 ASP3        0.0000 
     40 OD1       -20.8300    9.1000   97.3800 O.co2     3 ASP3        0.0000 
     41 OD1       -19.9700    5.8600   97.5400 O.co2     3 ASP3        0.0000 
     42 OD1       -20.9500    6.9900   97.6100 O.co2     3 ASP3        0.0000 
     43 OD1       -21.9300    8.1200   97.6800 O.co2     3 ASP3        0.0000 
     44 OD1       -21.6600    8.2700   99.1500 O.co2     3 ASP3        0.0000 
     45 NZ        -22.7200    4.0100   89.0300 N.4       4 LYS4        0.0000 
     46 NZ        -20.4900    1.8900   90.3600 N.4       4 LYS4        0.0000 
     47 NZ        -22.4500    4.1600   90.5000 N.4       4 LYS4        0.0000 
     48 NZ        -22.5700    2.0500   90.7300 N.4       4 LYS4        0.0000 
     49 NZ        -20.2100    2.0400   91.8300 N.4       4 LYS4        0.0000 
     50 NZ        -22.1700    4.3000   91.9700 N.4       4 LYS4        0.0000 
     51 NZ        -22.2900    2.2000   92.2000 N.4       4 LYS4        0.0000 
     52 NZ        -20.8000    5.4200   93.1300 N.4       4 LYS4        0.0000 
     53 NZ        -20.9200    3.3200   93.3700 N.4       4 LYS4        0.0000 
     54 CA        -24.3400   -1.3100   88.3300 C.3       5 GLY6        0.0000 
     55 CA        -24.8000    4.1800   89.4100 C.3       5 GLY6        0.0000 
     56 CA        -25.9100    3.2000   89.7100 C.3       5 GLY6        0.0000 
     57 CA        -23.0900   -2.3000   89.7300 C.3       5 GLY6        0.0000 
     58 CA        -24.0700   -1.1700   89.8000 C.3       5 GLY6        0.0000 
     59 CA        -23.5500    3.1900   90.8000 C.3       5 GLY6        0.0000 
     60 CA        -24.5300    4.3200   90.8800 C.3       5 GLY6        0.0000 
     61 CA        -22.8100   -2.1600   91.2000 C.3       5 GLY6        0.0000 
     62 CA        -25.8800   -0.8600   91.6400 C.3       5 GLY6        0.0000 
     63 CA        -23.2700    3.3300   92.2700 C.3       5 GLY6        0.0000 
     64 CA        -22.0200    2.3400   93.6700 C.3       5 GLY6        0.0000 
     65 CA        -22.1400    0.2400   93.9000 C.3       5 GLY6        0.0000 
     66 CA        -23.1200    1.3700   93.9700 C.3       5 GLY6        0.0000 
     67 CA        -19.4200    6.5400   94.3000 C.3       5 GLY6        0.0000 
     68 CA        -21.7500    2.4900   95.1400 C.3       5 GLY6        0.0000 
     69 CA        -22.7300    3.6200   95.2100 C.3       5 GLY6        0.0000 
     70 CA        -21.2300    6.8500   96.1400 C.3       5 GLY6        0.0000 
     71 CA        -21.3500    4.7400   96.3700 C.3       5 GLY6        0.0000 
     72 CA        -22.3300    5.8700   96.4400 C.3       5 GLY6        0.0000 
     73 CA        -23.3100    7.0100   96.5100 C.3       5 GLY6        0.0000 
     74 CA        -24.2900    8.1400   96.5900 C.3       5 GLY6        0.0000 
     75 CA        -21.4700    2.6400   96.6000 C.3       5 GLY6        0.0000 
     76 CA        -22.9100    9.2600   97.7500 C.3       5 GLY6        0.0000 
     77 CA        -21.0700    4.8900   97.8400 C.3       5 GLY6        0.0000 
     78 CA        -24.0100    8.2900   98.0500 C.3       5 GLY6        0.0000 
     79 DU        -21.8600    0.7800   89.2000 H         6 CUB7        0.0000 
     80 DU        -22.8400    1.9100   89.2700 H         6 CUB7        0.0000 
     81 DU        -23.8200    3.0400   89.3400 H         6 CUB7        0.0000 
     82 DU        -21.9900   -1.3300   89.4300 H         6 CUB7        0.0000 
     83 DU        -22.9700   -0.2000   89.5000 H         6 CUB7        0.0000 
     84 DU        -23.9500    0.9400   89.5700 H         6 CUB7        0.0000 
     85 DU        -20.6100   -0.2100   90.5900 H         6 CUB7        0.0000 
     86 DU        -21.5900    0.9200   90.6600 H         6 CUB7        0.0000 
     87 DU        -21.7100   -1.1800   90.8900 H         6 CUB7        0.0000 
     88 DU        -22.6900   -0.0500   90.9700 H         6 CUB7        0.0000 
     89 DU        -23.6700    1.0800   91.0400 H         6 CUB7        0.0000 
     90 DU        -23.4000    1.2300   92.5000 H         6 CUB7        0.0000 
@<TRIPOS>BOND
@<TRIPOS>SUBSTRUCTURE
     1 SER1        1 GROUP   
     2 ALA2       13 GROUP   
     3 ASP3       39 GROUP   
     4 LYS4       45 GROUP   
     5 GLY6       54 GROUP   
     6 CUB7       79 GROUP   
@<TRIPOS>SET

