#    Name: 6euq_1_DXC
#    Modification time : Fri May 22 19:27:13 2020

@<TRIPOS>MOLECULE
6euq_1_DXC
   28    31     1     0     0
SMALL
NO_CHARGES


@<TRIPOS>ATOM
      1 C1         24.6420    3.2630   23.1090 C.3       1 DXC502      0.0000 
      2 C2         24.4890    1.8860   22.4610 C.3       1 DXC502      0.0000 
      3 C3         24.2000    0.7360   23.4340 C.3       1 DXC502      0.0000 
      4 C4         25.1410    0.7070   24.6470 C.3       1 DXC502      0.0000 
      5 C5         25.0750    2.0880   25.3070 C.3       1 DXC502      0.0000 
      6 C6         25.4810    3.2320   24.3850 C.3       1 DXC502      0.0000 
      7 C7         24.2020   -0.5810   22.6480 C.3       1 DXC502      0.0000 
      8 C8         25.5970   -1.0920   22.2820 C.3       1 DXC502      0.0000 
      9 C9         26.5860   -1.0480   23.4470 C.3       1 DXC502      0.0000 
     10 C10        26.5670    0.2970   24.2010 C.3       1 DXC502      0.0000 
     11 C11        28.0230   -1.2800   22.9720 C.3       1 DXC502      0.0000 
     12 C12        29.0250   -1.4620   24.1120 C.3       1 DXC502      0.0000 
     13 C13        29.0320   -0.1640   24.9310 C.3       1 DXC502      0.0000 
     14 C14        27.6270    0.3320   25.3250 C.3       1 DXC502      0.0000 
     15 C15        28.2780   -2.4370   22.0130 C.3       1 DXC502      0.0000 
     16 C16        29.7630   -2.7410   22.1930 C.3       1 DXC502      0.0000 
     17 C17        30.2900   -1.8200   23.3040 C.3       1 DXC502      0.0000 
     18 C18        24.5480   -0.2480   25.6900 C.3       1 DXC502      0.0000 
     19 C19        31.5140   -2.4440   24.0120 C.3       1 DXC502      0.0000 
     20 O1         29.6990    0.8920   24.2300 O.3       1 DXC502      0.0000 
     21 O2         25.2880    4.1210   22.1650 O.3       1 DXC502      0.0000 
     22 C20        28.6270   -2.6160   25.0490 C.3       1 DXC502      0.0000 
     23 C21        32.6830   -2.6480   23.0300 C.3       1 DXC502      0.0000 
     24 C22        32.9900   -4.1260   22.7950 C.3       1 DXC502      0.0000 
     25 C23        34.2130   -4.2670   21.9160 C.2       1 DXC502      0.0000 
     26 O3         35.2250   -4.8340   22.3840 O.co2     1 DXC502      0.0000 
     27 O4         34.1690   -3.8140   20.7520 O.co2     1 DXC502      0.0000 
     28 C24        31.9910   -1.6370   25.2230 C.3       1 DXC502      0.0000 
@<TRIPOS>BOND
     1    1    2 1    
     2    1    6 1    
     3    1   21 1    
     4    2    3 1    
     5    3    4 1    
     6    3    7 1    
     7    4    5 1    
     8    4   10 1    
     9    4   18 1    
    10    5    6 1    
    11    7    8 1    
    12    8    9 1    
    13    9   10 1    
    14    9   11 1    
    15   10   14 1    
    16   11   12 1    
    17   11   15 1    
    18   12   13 1    
    19   12   17 1    
    20   12   22 1    
    21   13   14 1    
    22   13   20 1    
    23   15   16 1    
    24   16   17 1    
    25   17   19 1    
    26   19   23 1    
    27   19   28 1    
    28   23   24 1    
    29   24   25 1    
    30   25   26 ar   
    31   25   27 ar   
@<TRIPOS>SUBSTRUCTURE
     1 DXC502      1 GROUP   
@<TRIPOS>SET

