#    Name: 5y3z_1_IMD_CAVITY_N1_4
#    Modification time : Fri May 22 19:25:43 2020

@<TRIPOS>MOLECULE
5y3z_1_IMD_CAVITY_N1_4
   26     0     4     0     0
SMALL
NO_CHARGES


@<TRIPOS>ATOM
      1 OD1         1.4900   23.2800   20.4000 O.co2     1 ASP3        0.0000 
      2 OD1         1.9800   23.5900   19.0200 O.co2     1 ASP3        0.0000 
      3 OD1         2.2500   24.4500   20.9400 O.co2     1 ASP3        0.0000 
      4 OD1         3.0200   25.6200   21.4800 O.co2     1 ASP3        0.0000 
      5 CZ          5.8300   21.8100   21.6200 C.ar      2 PHE5        0.0000 
      6 CZ          6.3300   22.1300   20.2400 C.ar      2 PHE5        0.0000 
      7 CZ          5.9000   24.1800   20.5500 C.ar      2 PHE5        0.0000 
      8 CA          1.9200   21.2200   20.0900 C.3       3 GLY6        0.0000 
      9 CA          2.4100   21.5400   18.7100 C.3       3 GLY6        0.0000 
     10 CA          1.2200   22.4200   18.4800 C.3       3 GLY6        0.0000 
     11 CA          3.8800   21.5200   20.8500 C.3       3 GLY6        0.0000 
     12 CA          4.8600   22.1500   18.0900 C.3       3 GLY6        0.0000 
     13 CA          2.6800   22.4000   20.6300 C.3       3 GLY6        0.0000 
     14 CA          3.6700   23.0300   17.8600 C.3       3 GLY6        0.0000 
     15 CA          2.4800   23.9100   17.6400 C.3       3 GLY6        0.0000 
     16 CA          4.6400   22.6900   21.3900 C.3       3 GLY6        0.0000 
     17 CA          5.6300   23.3200   18.6300 C.3       3 GLY6        0.0000 
     18 CA          3.4500   23.5700   21.1700 C.3       3 GLY6        0.0000 
     19 CA          4.4300   24.2000   18.4000 C.3       3 GLY6        0.0000 
     20 CA          3.2400   25.0800   18.1800 C.3       3 GLY6        0.0000 
     21 CA          4.2100   24.7400   21.7100 C.3       3 GLY6        0.0000 
     22 DU          4.3700   21.8300   19.4700 H         4 CUB7        0.0000 
     23 DU          3.1800   22.7100   19.2500 H         4 CUB7        0.0000 
     24 DU          5.1300   23.0100   20.0100 H         4 CUB7        0.0000 
     25 DU          3.9400   23.8900   19.7900 H         4 CUB7        0.0000 
     26 DU          4.7000   25.0600   20.3300 H         4 CUB7        0.0000 
@<TRIPOS>BOND
@<TRIPOS>SUBSTRUCTURE
     1 ASP3        1 GROUP   
     2 PHE5        5 GROUP   
     3 GLY6        8 GROUP   
     4 CUB7       22 GROUP   
@<TRIPOS>SET

