#    Name: 5y3z_1_IMD
#    Modification time : Fri May 22 19:25:42 2020

@<TRIPOS>MOLECULE
5y3z_1_IMD
    5     5     1     0     0
SMALL
NO_CHARGES


@<TRIPOS>ATOM
      1 N1          0.7600   22.0880   19.1400 N.pl3     1 IMD503      0.0000 
      2 C2          1.1070   20.8260   18.8040 C.2       1 IMD503      0.0000 
      3 N3          2.4540   20.7550   18.7120 N.2       1 IMD503      0.0000 
      4 C4          2.9590   21.9750   18.9910 C.2       1 IMD503      0.0000 
      5 C5          1.8890   22.8170   19.2620 C.2       1 IMD503      0.0000 
@<TRIPOS>BOND
     1    1    2 1    
     2    1    5 1    
     3    2    3 2    
     4    3    4 1    
     5    4    5 2    
@<TRIPOS>SUBSTRUCTURE
     1 IMD503      1 GROUP   
@<TRIPOS>SET

