#    Name: 5y3z_1_IMD_CAVITY_N1_6
#    Modification time : Fri May 22 19:25:43 2020

@<TRIPOS>MOLECULE
5y3z_1_IMD_CAVITY_N1_6
   42     0     6     0     0
SMALL
NO_CHARGES


@<TRIPOS>ATOM
      1 N           6.1700   25.0400   22.4700 N.am      1 ALA2        0.0000 
      2 N           6.6600   25.3500   21.0900 N.am      1 ALA2        0.0000 
      3 OD1         1.4900   23.2800   20.4000 O.co2     2 ASP3        0.0000 
      4 OD1         1.9800   23.5900   19.0200 O.co2     2 ASP3        0.0000 
      5 OD1         2.2500   24.4500   20.9400 O.co2     2 ASP3        0.0000 
      6 OD1         2.5200   25.3100   22.8600 O.co2     2 ASP3        0.0000 
      7 OD1         3.0200   25.6200   21.4800 O.co2     2 ASP3        0.0000 
      8 OD1         0.8400   25.8700   24.0200 O.co2     2 ASP3        0.0000 
      9 NZ          4.9100   23.5500   23.3100 N.4       3 LYS4        0.0000 
     10 CZ          5.8300   21.8100   21.6200 C.ar      4 PHE5        0.0000 
     11 CZ          6.3300   22.1300   20.2400 C.ar      4 PHE5        0.0000 
     12 CZ          6.6000   22.9800   22.1600 C.ar      4 PHE5        0.0000 
     13 CZ          5.9000   24.1800   20.5500 C.ar      4 PHE5        0.0000 
     14 CA          1.9200   21.2200   20.0900 C.3       5 GLY6        0.0000 
     15 CA          2.4100   21.5400   18.7100 C.3       5 GLY6        0.0000 
     16 CA          1.2200   22.4200   18.4800 C.3       5 GLY6        0.0000 
     17 CA          3.8800   21.5200   20.8500 C.3       5 GLY6        0.0000 
     18 CA          4.8600   22.1500   18.0900 C.3       5 GLY6        0.0000 
     19 CA          2.6800   22.4000   20.6300 C.3       5 GLY6        0.0000 
     20 CA          3.6700   23.0300   17.8600 C.3       5 GLY6        0.0000 
     21 CA          2.4800   23.9100   17.6400 C.3       5 GLY6        0.0000 
     22 CA          4.6400   22.6900   21.3900 C.3       5 GLY6        0.0000 
     23 CA          5.6300   23.3200   18.6300 C.3       5 GLY6        0.0000 
     24 CA          3.4500   23.5700   21.1700 C.3       5 GLY6        0.0000 
     25 CA          4.4300   24.2000   18.4000 C.3       5 GLY6        0.0000 
     26 CA          3.2400   25.0800   18.1800 C.3       5 GLY6        0.0000 
     27 CA          5.4000   23.8600   21.9300 C.3       5 GLY6        0.0000 
     28 CA          6.3900   24.5000   19.1700 C.3       5 GLY6        0.0000 
     29 CA          3.7200   24.4300   23.0900 C.3       5 GLY6        0.0000 
     30 CA          4.2100   24.7400   21.7100 C.3       5 GLY6        0.0000 
     31 CA          5.1900   25.3700   18.9500 C.3       5 GLY6        0.0000 
     32 CA          2.0300   24.9900   24.2400 C.3       5 GLY6        0.0000 
     33 CA          4.4800   25.6000   23.6300 C.3       5 GLY6        0.0000 
     34 CA          5.4600   26.2300   20.8700 C.3       5 GLY6        0.0000 
     35 CA          3.2800   26.4800   23.4000 C.3       5 GLY6        0.0000 
     36 DU          4.3700   21.8300   19.4700 H         6 CUB7        0.0000 
     37 DU          3.1800   22.7100   19.2500 H         6 CUB7        0.0000 
     38 DU          5.1300   23.0100   20.0100 H         6 CUB7        0.0000 
     39 DU          3.9400   23.8900   19.7900 H         6 CUB7        0.0000 
     40 DU          4.7000   25.0600   20.3300 H         6 CUB7        0.0000 
     41 DU          4.9700   25.9200   22.2500 H         6 CUB7        0.0000 
     42 DU          3.7800   26.8000   22.0200 H         6 CUB7        0.0000 
@<TRIPOS>BOND
@<TRIPOS>SUBSTRUCTURE
     1 ALA2        1 GROUP   
     2 ASP3        3 GROUP   
     3 LYS4        9 GROUP   
     4 PHE5       10 GROUP   
     5 GLY6       14 GROUP   
     6 CUB7       36 GROUP   
@<TRIPOS>SET

