#    Name: 6a0f_1_ASN_PHE_ALA_ALA
#    Modification time : Fri May 22 19:24:38 2020

@<TRIPOS>MOLECULE
6a0f_1_ASN_PHE_ALA_ALA
   29    29     4     0     0
SMALL
NO_CHARGES


@<TRIPOS>ATOM
      1 N           8.2940    4.0630    3.6770 N.4       1 ASN1        0.0000 
      2 CA          7.5550    3.5750    2.5180 C.3       1 ASN1        0.0000 
      3 C           7.4010    2.0590    2.5590 C.2       1 ASN1        0.0000 
      4 O           8.0850    1.3770    3.3210 O.2       1 ASN1        0.0000 
      5 CB          8.2530    3.9940    1.2240 C.3       1 ASN1        0.0000 
      6 CG          8.1670    5.4840    0.9720 C.2       1 ASN1        0.0000 
      7 OD1         9.1260    6.2210    1.2020 O.2       1 ASN1        0.0000 
      8 ND2         7.0130    5.9380    0.4980 N.am      1 ASN1        0.0000 
      9 N           6.4940    1.5400    1.7340 N.am      2 PHE2        0.0000 
     10 CA          6.3200    0.0980    1.6210 C.3       2 PHE2        0.0000 
     11 C           7.5710   -0.5310    1.0210 C.2       2 PHE2        0.0000 
     12 O           8.0690   -0.0800   -0.0160 O.2       2 PHE2        0.0000 
     13 CB          5.1030   -0.2270    0.7550 C.3       2 PHE2        0.0000 
     14 CG          3.7870   -0.0600    1.4620 C.ar      2 PHE2        0.0000 
     15 CD1         3.7320    0.0790    2.8380 C.ar      2 PHE2        0.0000 
     16 CD2         2.6020   -0.0460    0.7440 C.ar      2 PHE2        0.0000 
     17 CE1         2.5190    0.2330    3.4840 C.ar      2 PHE2        0.0000 
     18 CE2         1.3870    0.1060    1.3850 C.ar      2 PHE2        0.0000 
     19 CZ          1.3460    0.2440    2.7570 C.ar      2 PHE2        0.0000 
     20 N           8.0790   -1.5720    1.6720 N.am      3 ALA3        0.0000 
     21 CA          9.2580   -2.2760    1.1880 C.3       3 ALA3        0.0000 
     22 C           8.8440   -3.2940    0.1250 C.2       3 ALA3        0.0000 
     23 O           7.6970   -3.3200   -0.3320 O.2       3 ALA3        0.0000 
     24 CB         10.0030   -2.9240    2.3520 C.3       3 ALA3        0.0000 
     25 N           9.7820   -4.1500   -0.2740 N.am      4 ALA4        0.0000 
     26 CA          9.5640   -5.1290   -1.3390 C.3       4 ALA4        0.0000 
     27 C           8.3630   -6.0320   -1.0730 C.2       4 ALA4        0.0000 
     28 O           7.6730   -6.4530   -2.0020 O.2       4 ALA4        0.0000 
     29 CB         10.8160   -5.9730   -1.5340 C.3       4 ALA4        0.0000 
@<TRIPOS>BOND
     1    1    2 1    
     2    2    3 1    
     3    2    5 1    
     4    3    4 2    
     5    3    9 am   
     6    5    6 1    
     7    6    7 2    
     8    6    8 am   
     9    9   10 1    
    10   10   11 1    
    11   10   13 1    
    12   11   12 2    
    13   11   20 am   
    14   13   14 1    
    15   14   15 ar   
    16   14   16 ar   
    17   15   17 ar   
    18   16   18 ar   
    19   17   19 ar   
    20   18   19 ar   
    21   20   21 1    
    22   21   22 1    
    23   21   24 1    
    24   22   23 2    
    25   22   25 am   
    26   25   26 1    
    27   26   27 1    
    28   26   29 1    
    29   27   28 2    
@<TRIPOS>SUBSTRUCTURE
     1 ASN1        1 RESIDUE 
     2 PHE2        9 RESIDUE 
     3 ALA3       20 RESIDUE 
     4 ALA4       25 RESIDUE 
@<TRIPOS>SET

