#    Name: 6a0f_1_ASN_PHE_ALA_ALA_CAVITY_N1_ALL
#    Modification time : Fri May 22 19:24:39 2020

@<TRIPOS>MOLECULE
6a0f_1_ASN_PHE_ALA_ALA_CAVITY_N1_ALL
  105     0     7     0     0
SMALL
NO_CHARGES


@<TRIPOS>ATOM
      1 OG          8.8600    3.3200    1.3200 O.3       1 SER1        0.0000 
      2 OG          8.1000    4.6100    1.2000 O.3       1 SER1        0.0000 
      3 OG          7.6800    2.7000    2.0200 O.3       1 SER1        0.0000 
      4 OG          1.9200    4.7200    3.8000 O.3       1 SER1        0.0000 
      5 OG          2.2500    1.5200    4.7300 O.3       1 SER1        0.0000 
      6 N           2.9100    1.4400   -0.6400 N.am      2 ALA2        0.0000 
      7 N           2.1600    2.7300   -0.7500 N.am      2 ALA2        0.0000 
      8 O           2.4900   -0.4800    0.1700 O.2       2 ALA2        0.0000 
      9 N           0.2300    3.4100   -0.1600 N.am      2 ALA2        0.0000 
     10 N           1.3200   -1.1000    0.8800 N.am      2 ALA2        0.0000 
     11 O           8.0600   -0.7700   -0.4000 O.2       2 ALA2        0.0000 
     12 O           7.3100    0.5200   -0.5100 O.2       2 ALA2        0.0000 
     13 O           6.1400   -0.0900    0.2000 O.2       2 ALA2        0.0000 
     14 N           4.2200    0.5800    0.7900 N.am      2 ALA2        0.0000 
     15 O           1.2200    5.7600    0.3400 O.2       2 ALA2        0.0000 
     16 N           2.3000    1.2600    1.3800 N.am      2 ALA2        0.0000 
     17 N           0.0500    5.1400    1.0500 N.am      2 ALA2        0.0000 
     18 O           8.2900    2.8800    0.0000 O.2       2 ALA2        0.0000 
     19 O           7.8700    0.9600    0.8100 O.2       2 ALA2        0.0000 
     20 O           7.1200    2.2600    0.7000 O.2       2 ALA2        0.0000 
     21 N           8.9500   -3.5400    1.8500 N.am      2 ALA2        0.0000 
     22 N           8.2000   -2.2400    1.7400 N.am      2 ALA2        0.0000 
     23 N           7.4500   -0.9500    1.6300 N.am      2 ALA2        0.0000 
     24 N           6.7000    0.3500    1.5200 N.am      2 ALA2        0.0000 
     25 N           5.9500    1.6400    1.4000 N.am      2 ALA2        0.0000 
     26 N           6.2800   -1.5700    2.3300 N.am      2 ALA2        0.0000 
     27 N           5.5300   -0.2700    2.2200 N.am      2 ALA2        0.0000 
     28 N           4.7800    1.0200    2.1100 N.am      2 ALA2        0.0000 
     29 N           4.0300    2.3100    2.0000 N.am      2 ALA2        0.0000 
     30 N           3.2800    3.6100    1.8900 N.am      2 ALA2        0.0000 
     31 N           6.9300    3.9900    1.9100 N.am      2 ALA2        0.0000 
     32 N           7.2600    0.7800    2.8400 N.am      2 ALA2        0.0000 
     33 N           5.7600    3.3700    2.6100 N.am      2 ALA2        0.0000 
     34 N           6.0900    0.1700    3.5400 N.am      2 ALA2        0.0000 
     35 N          -1.4100    6.7700    9.6500 N.am      2 ALA2        0.0000 
     36 OD1         5.5800   -0.5300   -1.1200 O.co2     3 ASP3        0.0000 
     37 OD1        -0.1400    6.8700    2.2600 O.co2     3 ASP3        0.0000 
     38 OD1        -1.3100    6.2500    2.9600 O.co2     3 ASP3        0.0000 
     39 OD1        -0.7500    6.6900    4.2800 O.co2     3 ASP3        0.0000 
     40 OD1        -2.1100    7.8100    6.1900 O.co2     3 ASP3        0.0000 
     41 OD1        -1.5500    8.2500    7.5100 O.co2     3 ASP3        0.0000 
     42 NZ         -1.9200    6.0700    4.9800 N.4       4 LYS4        0.0000 
     43 NZ          8.2500    3.1400    3.3400 N.4       4 LYS4        0.0000 
     44 NZ         -1.3600    6.5100    6.3000 N.4       4 LYS4        0.0000 
     45 NZ         -3.2800    7.1900    6.9000 N.4       4 LYS4        0.0000 
     46 NZ         -4.4500    6.5700    7.6000 N.4       4 LYS4        0.0000 
     47 NZ         -0.8000    6.9500    7.6200 N.4       4 LYS4        0.0000 
     48 CZ          0.8000    3.8400    1.1600 C.ar      5 PHE5        0.0000 
     49 CZ          1.1300    0.6400    2.0900 C.ar      5 PHE5        0.0000 
     50 CZ         -1.1300    4.5200    1.7500 C.ar      5 PHE5        0.0000 
     51 CZ          2.8600    1.7000    2.7000 C.ar      5 PHE5        0.0000 
     52 CZ          2.1100    2.9900    2.5900 C.ar      5 PHE5        0.0000 
     53 CZ          1.3600    4.2800    2.4800 C.ar      5 PHE5        0.0000 
     54 CZ          0.6100    5.5800    2.3700 C.ar      5 PHE5        0.0000 
     55 CZ          1.6900    1.0800    3.4100 C.ar      5 PHE5        0.0000 
     56 CZ         -0.5600    4.9600    3.0700 C.ar      5 PHE5        0.0000 
     57 CZ          6.5100    2.0800    2.7200 C.ar      5 PHE5        0.0000 
     58 CZ          5.3400    1.4600    3.4300 C.ar      5 PHE5        0.0000 
     59 CZ          4.5900    2.7500    3.3200 C.ar      5 PHE5        0.0000 
     60 CZ          3.8400    4.0500    3.2100 C.ar      5 PHE5        0.0000 
     61 CZ          4.1700    0.8400    4.1300 C.ar      5 PHE5        0.0000 
     62 CZ          3.4200    2.1400    4.0200 C.ar      5 PHE5        0.0000 
     63 CZ          2.6700    3.4300    3.9100 C.ar      5 PHE5        0.0000 
     64 CZ          0.0000    5.4000    4.3900 C.ar      5 PHE5        0.0000 
     65 CZ          7.0700    2.5200    4.0400 C.ar      5 PHE5        0.0000 
     66 CZ          6.6500    0.6100    4.8600 C.ar      5 PHE5        0.0000 
     67 CZ         -0.6100    5.2200    6.4100 C.ar      5 PHE5        0.0000 
     68 CZ         -2.5300    5.9000    7.0100 C.ar      5 PHE5        0.0000 
     69 CA          4.4100   -1.1500   -0.4200 C.3       6 GLY6        0.0000 
     70 CA          3.6600    0.1400   -0.5300 C.3       6 GLY6        0.0000 
     71 CA          1.4100    4.0200   -0.8700 C.3       6 GLY6        0.0000 
     72 CA          1.7400    0.8200    0.0600 C.3       6 GLY6        0.0000 
     73 CA          0.9900    2.1100   -0.0500 C.3       6 GLY6        0.0000 
     74 CA          6.4700   -3.3000    1.1200 C.3       6 GLY6        0.0000 
     75 CA          5.7200   -2.0100    1.0100 C.3       6 GLY6        0.0000 
     76 CA          4.9700   -0.7100    0.9000 C.3       6 GLY6        0.0000 
     77 CA          1.9700    4.4600    0.4500 C.3       6 GLY6        0.0000 
     78 CA          3.8000   -1.3300    1.6100 C.3       6 GLY6        0.0000 
     79 CA          3.0500   -0.0400    1.4900 C.3       6 GLY6        0.0000 
     80 CA         -0.7000    6.4300    0.9400 C.3       6 GLY6        0.0000 
     81 CA          1.8800   -0.6600    2.2000 C.3       6 GLY6        0.0000 
     82 CA          0.7100   -1.2700    2.9000 C.3       6 GLY6        0.0000 
     83 CA          9.0400    1.5800    0.1100 C.3       6 GLY6        0.0000 
     84 CA          9.3700   -1.6200    1.0400 C.3       6 GLY6        0.0000 
     85 CA          8.6200   -0.3300    0.9200 C.3       6 GLY6        0.0000 
     86 CA          1.7800    6.2000    1.6600 C.3       6 GLY6        0.0000 
     87 CA          5.1100   -2.1900    3.0400 C.3       6 GLY6        0.0000 
     88 CA          4.3600   -0.8900    2.9200 C.3       6 GLY6        0.0000 
     89 CA          3.6100    0.4000    2.8100 C.3       6 GLY6        0.0000 
     90 CA          3.1900   -1.5100    3.6300 C.3       6 GLY6        0.0000 
     91 CA          2.4400   -0.2200    3.5200 C.3       6 GLY6        0.0000 
     92 CA          8.4300    1.4000    2.1300 C.3       6 GLY6        0.0000 
     93 CA          4.9200   -0.4500    4.2400 C.3       6 GLY6        0.0000 
     94 CA          7.8300    1.2200    4.1600 C.3       6 GLY6        0.0000 
     95 CA         -0.0500    5.6600    7.7300 C.3       6 GLY6        0.0000 
     96 CA         -1.9700    6.3300    8.3300 C.3       6 GLY6        0.0000 
     97 CA         -3.1400    5.7200    9.0300 C.3       6 GLY6        0.0000 
     98 DU          9.5600   -3.3600   -0.1700 H         7 CUB7        0.0000 
     99 DU          8.8100   -2.0600   -0.2800 H         7 CUB7        0.0000 
    100 DU          7.6400   -2.6800    0.4200 H         7 CUB7        0.0000 
    101 DU          6.8900   -1.3900    0.3100 H         7 CUB7        0.0000 
    102 DU         10.1200   -2.9200    1.1500 H         7 CUB7        0.0000 
    103 DU         -2.7200    7.6300    8.2200 H         7 CUB7        0.0000 
    104 DU         -0.9900    8.6900    8.8300 H         7 CUB7        0.0000 
    105 DU         -2.1600    8.0700    9.5400 H         7 CUB7        0.0000 
@<TRIPOS>BOND
@<TRIPOS>SUBSTRUCTURE
     1 SER1        1 GROUP   
     2 ALA2        6 GROUP   
     3 ASP3       36 GROUP   
     4 LYS4       42 GROUP   
     5 PHE5       48 GROUP   
     6 GLY6       69 GROUP   
     7 CUB7       98 GROUP   
@<TRIPOS>SET

