#    Name: 6a0f_2_ASN_PHE_ALA_ALA
#    Modification time : Fri May 22 19:24:42 2020

@<TRIPOS>MOLECULE
6a0f_2_ASN_PHE_ALA_ALA
   29    29     4     0     0
SMALL
NO_CHARGES


@<TRIPOS>ATOM
      1 N          -7.3010   12.2050  -47.7420 N.4       1 ASN1        0.0000 
      2 CA         -7.7200   12.7200  -46.4440 C.3       1 ASN1        0.0000 
      3 C          -7.7600   14.2440  -46.4430 C.2       1 ASN1        0.0000 
      4 O          -7.3310   14.8860  -47.4030 O.2       1 ASN1        0.0000 
      5 CB         -6.7840   12.2200  -45.3420 C.3       1 ASN1        0.0000 
      6 CG         -6.6900   10.7080  -45.3000 C.2       1 ASN1        0.0000 
      7 OD1        -5.6680   10.1280  -45.6680 O.2       1 ASN1        0.0000 
      8 ND2        -7.7580   10.0610  -44.8490 N.am      1 ASN1        0.0000 
      9 N          -8.2820   14.8140  -45.3590 N.am      2 PHE2        0.0000 
     10 CA         -8.3290   16.2640  -45.2220 C.3       2 PHE2        0.0000 
     11 C          -6.9190   16.8350  -45.1580 C.2       2 PHE2        0.0000 
     12 O          -6.0860   16.3800  -44.3680 O.2       2 PHE2        0.0000 
     13 CB         -9.1070   16.6540  -43.9630 C.3       2 PHE2        0.0000 
     14 CG        -10.5910   16.4370  -44.0660 C.ar      2 PHE2        0.0000 
     15 CD1       -11.1970   16.2330  -45.2930 C.ar      2 PHE2        0.0000 
     16 CD2       -11.3800   16.4410  -42.9270 C.ar      2 PHE2        0.0000 
     17 CE1       -12.5630   16.0330  -45.3810 C.ar      2 PHE2        0.0000 
     18 CE2       -12.7450   16.2440  -43.0100 C.ar      2 PHE2        0.0000 
     19 CZ        -13.3370   16.0400  -44.2390 C.ar      2 PHE2        0.0000 
     20 N          -6.6510   17.8300  -45.9960 N.am      3 ALA3        0.0000 
     21 CA         -5.3680   18.5140  -45.9610 C.3       3 ALA3        0.0000 
     22 C          -5.3140   19.4720  -44.7780 C.2       3 ALA3        0.0000 
     23 O          -6.3330   20.0140  -44.3410 O.2       3 ALA3        0.0000 
     24 CB         -5.1240   19.2740  -47.2650 C.3       3 ALA3        0.0000 
     25 N          -4.1080   19.6730  -44.2560 N.am      4 ALA4        0.0000 
     26 CA         -3.9100   20.5550  -43.1100 C.3       4 ALA4        0.0000 
     27 C          -3.9180   22.0190  -43.5370 C.2       4 ALA4        0.0000 
     28 O          -4.8760   22.4940  -44.1490 O.2       4 ALA4        0.0000 
     29 CB         -2.6080   20.2160  -42.4000 C.3       4 ALA4        0.0000 
@<TRIPOS>BOND
     1    1    2 1    
     2    2    3 1    
     3    2    5 1    
     4    3    4 2    
     5    3    9 am   
     6    5    6 1    
     7    6    7 2    
     8    6    8 am   
     9    9   10 1    
    10   10   11 1    
    11   10   13 1    
    12   11   12 2    
    13   11   20 am   
    14   13   14 1    
    15   14   15 ar   
    16   14   16 ar   
    17   15   17 ar   
    18   16   18 ar   
    19   17   19 ar   
    20   18   19 ar   
    21   20   21 1    
    22   21   22 1    
    23   21   24 1    
    24   22   23 2    
    25   22   25 am   
    26   25   26 1    
    27   26   27 1    
    28   26   29 1    
    29   27   28 2    
@<TRIPOS>SUBSTRUCTURE
     1 ASN1        1 RESIDUE 
     2 PHE2        9 RESIDUE 
     3 ALA3       20 RESIDUE 
     4 ALA4       25 RESIDUE 
@<TRIPOS>SET

