#    Name: 6s6u_9_FAD
#    Modification time : Fri May 22 19:35:46 2020

@<TRIPOS>MOLECULE
6s6u_9_FAD
   53    58     1     0     1
SMALL
NO_CHARGES


@<TRIPOS>ATOM
      1 PA        275.2850  282.1940  168.9020 P.3       1 FAD503      0.0000 
      2 O1A       274.8560  282.9730  170.0940 O.co2     1 FAD503      0.0000 
      3 O2A       276.5290  281.3790  168.9770 O.co2     1 FAD503      0.0000 
      4 O5B       275.3820  283.1680  167.6450 O.3       1 FAD503      0.0000 
      5 C5B       274.2330  283.9570  167.2810 C.3       1 FAD503      0.0000 
      6 C4B       274.5540  284.6760  165.9980 C.3       1 FAD503      0.0000 
      7 O4B       273.6400  285.7910  165.8620 O.3       1 FAD503      0.0000 
      8 C3B       275.9630  285.2760  165.9050 C.3       1 FAD503      0.0000 
      9 O3B       276.4750  285.1400  164.5880 O.3       1 FAD503      0.0000 
     10 C2B       275.7050  286.7590  166.1600 C.3       1 FAD503      0.0000 
     11 O2B       276.7070  287.5800  165.6040 O.3       1 FAD503      0.0000 
     12 C1B       274.3680  286.9200  165.4560 C.3       1 FAD503      0.0000 
     13 N9A       273.6500  288.0830  165.9150 N.pl3     1 FAD503      0.0000 
     14 C8A       273.5600  288.5430  167.1990 C.2       1 FAD503      0.0000 
     15 N7A       272.8360  289.6330  167.2920 N.2       1 FAD503      0.0000 
     16 C5A       272.4490  289.9090  165.9890 C.ar      1 FAD503      0.0000 
     17 C6A       271.6750  290.9360  165.4260 C.ar      1 FAD503      0.0000 
     18 N6A       271.1330  291.9210  166.1340 N.pl3     1 FAD503      0.0000 
     19 N1A       271.4880  290.9080  164.0860 N.ar      1 FAD503      0.0000 
     20 C2A       272.0370  289.9110  163.3820 C.ar      1 FAD503      0.0000 
     21 N3A       272.7790  288.8940  163.8040 N.ar      1 FAD503      0.0000 
     22 C4A       272.9470  288.9550  165.1330 C.ar      1 FAD503      0.0000 
     23 N1        279.0930  281.0550  175.3110 N.2       1 FAD503      0.0000 
     24 C2        279.8740  282.1520  175.3820 C.2       1 FAD503      0.0000 
     25 O2        279.3860  283.2780  175.3200 O.2       1 FAD503      0.0000 
     26 N3        281.2130  282.0740  175.5260 N.am      1 FAD503      0.0000 
     27 C4        281.8600  280.8710  175.6060 C.2       1 FAD503      0.0000 
     28 O4        283.0710  280.8470  175.7300 O.2       1 FAD503      0.0000 
     29 C4X       281.0900  279.7030  175.5300 C.2       1 FAD503      0.0000 
     30 N5        281.6950  278.5500  175.6000 N.2       1 FAD503      0.0000 
     31 C5X       280.9180  277.4280  175.5160 C.ar      1 FAD503      0.0000 
     32 C6        281.5520  276.1780  175.5850 C.ar      1 FAD503      0.0000 
     33 C7        280.8350  275.0120  175.5040 C.ar      1 FAD503      0.0000 
     34 C7M       281.5450  273.6900  175.5800 C.3       1 FAD503      0.0000 
     35 C8        279.4370  275.0600  175.3530 C.ar      1 FAD503      0.0000 
     36 C8M       278.6420  273.7850  175.2640 C.3       1 FAD503      0.0000 
     37 C9        278.8000  276.2780  175.2880 C.ar      1 FAD503      0.0000 
     38 C9A       279.5200  277.4790  175.3630 C.ar      1 FAD503      0.0000 
     39 N10       278.9150  278.7290  175.3040 N.pl3     1 FAD503      0.0000 
     40 C10       279.6730  279.8780  175.3780 C.2       1 FAD503      0.0000 
     41 C1'       277.4560  278.8350  175.1390 C.3       1 FAD503      0.0000 
     42 C2'       276.9530  278.0070  173.9830 C.3       1 FAD503      0.0000 
     43 O2'       277.8650  278.1000  172.9070 O.3       1 FAD503      0.0000 
     44 C3'       275.6030  278.5550  173.5240 C.3       1 FAD503      0.0000 
     45 O3'       274.5710  278.0230  174.3350 O.3       1 FAD503      0.0000 
     46 C4'       275.2880  278.2990  172.0530 C.3       1 FAD503      0.0000 
     47 O4'       276.4460  278.6110  171.2800 O.3       1 FAD503      0.0000 
     48 C5'       274.1170  279.1240  171.5750 C.3       1 FAD503      0.0000 
     49 O5'       274.3010  279.4980  170.1860 O.3       1 FAD503      0.0000 
     50 P         273.1830  280.3780  169.4590 P.3       1 FAD503      0.0000 
     51 O1P       272.6080  281.3350  170.4380 O.co2     1 FAD503      0.0000 
     52 O2P       272.2800  279.4810  168.6850 O.co2     1 FAD503      0.0000 
     53 O3P       274.0820  281.2400  168.4660 O.3       1 FAD503      0.0000 
@<TRIPOS>BOND
     1    1    2 ar   
     2    1    3 ar   
     3    1    4 1    
     4    1   53 1    
     5    4    5 1    
     6    5    6 1    
     7    6    7 1    
     8    6    8 1    
     9    7   12 1    
    10    8    9 1    
    11    8   10 1    
    12   10   11 1    
    13   10   12 1    
    14   12   13 1    
    15   13   14 1    
    16   13   22 1    
    17   14   15 2    
    18   15   16 1    
    19   16   17 ar   
    20   16   22 ar   
    21   17   18 1    
    22   17   19 ar   
    23   19   20 ar   
    24   20   21 ar   
    25   21   22 ar   
    26   23   24 1    
    27   23   40 2    
    28   24   25 2    
    29   24   26 am   
    30   26   27 am   
    31   27   28 2    
    32   27   29 1    
    33   29   30 2    
    34   29   40 1    
    35   30   31 1    
    36   31   32 ar   
    37   31   38 ar   
    38   32   33 ar   
    39   33   34 1    
    40   33   35 ar   
    41   35   36 1    
    42   35   37 ar   
    43   37   38 ar   
    44   38   39 1    
    45   39   40 1    
    46   39   41 1    
    47   41   42 1    
    48   42   43 1    
    49   42   44 1    
    50   44   45 1    
    51   44   46 1    
    52   46   47 1    
    53   46   48 1    
    54   48   49 1    
    55   49   50 1    
    56   50   51 ar   
    57   50   52 ar   
    58   50   53 1    
@<TRIPOS>SUBSTRUCTURE
     1 FAD503      1 GROUP   
@<TRIPOS>SET
ATOM$ORANGE STATIC     ATOMS   COLORGROUP SYSTEM 
54 5 5 6 6 8 8 10 10 12 12 14 14 16 16 17 17 20 \
20 22 22 24 24 27 27 29 29 31 31 32 32 33 33 34 34 35 \
35 36 36 37 37 38 38 40 40 41 41 42 42 44 44 46 46 48 \
48 

