#    Name: 6s6u_5_FMN
#    Modification time : Fri May 22 19:35:02 2020

@<TRIPOS>MOLECULE
6s6u_5_FMN
   31    33     1     0     1
SMALL
NO_CHARGES


@<TRIPOS>ATOM
      1 N1        263.2290  177.9000  234.7620 N.2       1 FMN1501     0.0000 
      2 C2        263.3360  178.6990  235.8800 C.2       1 FMN1501     0.0000 
      3 O2        262.3240  179.0650  236.4720 O.2       1 FMN1501     0.0000 
      4 N3        264.5710  179.0910  236.3420 N.am      1 FMN1501     0.0000 
      5 C4        265.7080  178.6840  235.6850 C.2       1 FMN1501     0.0000 
      6 O4        266.8120  179.0320  236.0930 O.2       1 FMN1501     0.0000 
      7 C4A       265.6080  177.8820  234.5610 C.2       1 FMN1501     0.0000 
      8 N5        266.7470  177.4780  233.9060 N.2       1 FMN1501     0.0000 
      9 C5A       266.6490  176.6820  232.7890 C.ar      1 FMN1501     0.0000 
     10 C6        267.8010  176.2770  232.1310 C.ar      1 FMN1501     0.0000 
     11 C7        267.7060  175.4750  231.0050 C.ar      1 FMN1501     0.0000 
     12 C7M       268.9490  175.0370  230.2950 C.3       1 FMN1501     0.0000 
     13 C8        266.4630  175.0780  230.5380 C.ar      1 FMN1501     0.0000 
     14 C8M       266.3610  174.2100  229.3220 C.3       1 FMN1501     0.0000 
     15 C9        265.3120  175.4820  231.1980 C.ar      1 FMN1501     0.0000 
     16 C9A       265.4040  176.2870  232.3240 C.ar      1 FMN1501     0.0000 
     17 N10       264.2630  176.6940  232.9800 N.pl3     1 FMN1501     0.0000 
     18 C10       264.3630  177.4890  234.0990 C.2       1 FMN1501     0.0000 
     19 C1'       262.9180  176.2610  232.4800 C.3       1 FMN1501     0.0000 
     20 C2'       262.3360  177.3060  231.5450 C.3       1 FMN1501     0.0000 
     21 O2'       262.0300  178.4560  232.2950 O.3       1 FMN1501     0.0000 
     22 C3'       261.0670  176.7880  230.8850 C.3       1 FMN1501     0.0000 
     23 O3'       260.1410  176.4180  231.8780 O.3       1 FMN1501     0.0000 
     24 C4'       261.3840  175.5900  230.0050 C.3       1 FMN1501     0.0000 
     25 O4'       262.5880  175.8300  229.3160 O.3       1 FMN1501     0.0000 
     26 C5'       260.2840  175.3290  228.9890 C.3       1 FMN1501     0.0000 
     27 O5'       260.5820  174.1330  228.3120 O.3       1 FMN1501     0.0000 
     28 P         260.4150  174.0390  226.7200 P.3       1 FMN1501     0.0000 
     29 O1P       261.5930  174.7450  226.1050 O.co2     1 FMN1501     0.0000 
     30 O2P       260.3980  172.5980  226.2850 O.co2     1 FMN1501     0.0000 
     31 O3P       259.1420  174.7190  226.2930 O.co2     1 FMN1501     0.0000 
@<TRIPOS>BOND
     1    1    2 1    
     2    1   18 2    
     3    2    3 2    
     4    2    4 am   
     5    4    5 am   
     6    5    6 2    
     7    5    7 1    
     8    7    8 2    
     9    7   18 1    
    10    8    9 1    
    11    9   10 ar   
    12    9   16 ar   
    13   10   11 ar   
    14   11   12 1    
    15   11   13 ar   
    16   13   14 1    
    17   13   15 ar   
    18   15   16 ar   
    19   16   17 1    
    20   17   18 1    
    21   17   19 1    
    22   19   20 1    
    23   20   21 1    
    24   20   22 1    
    25   22   23 1    
    26   22   24 1    
    27   24   25 1    
    28   24   26 1    
    29   26   27 1    
    30   27   28 1    
    31   28   29 ar   
    32   28   30 ar   
    33   28   31 ar   
@<TRIPOS>SUBSTRUCTURE
     1 FMN1501     1 GROUP   
@<TRIPOS>SET
ATOM$ORANGE STATIC     ATOMS   COLORGROUP SYSTEM 
34 2 2 5 5 7 7 9 9 10 10 11 11 12 12 13 13 14 \
14 15 15 16 16 18 18 19 19 20 20 22 22 24 24 26 26 

