#    Name: 6s6u_8_FAD
#    Modification time : Fri May 22 19:35:37 2020

@<TRIPOS>MOLECULE
6s6u_8_FAD
   53    58     1     0     1
SMALL
NO_CHARGES


@<TRIPOS>ATOM
      1 PA        160.6130  298.5270  194.7840 P.3       1 FAD503      0.0000 
      2 O1A       159.3040  297.9940  195.2550 O.co2     1 FAD503      0.0000 
      3 O2A       161.2570  297.8850  193.6040 O.co2     1 FAD503      0.0000 
      4 O5B       160.5000  300.1010  194.5400 O.3       1 FAD503      0.0000 
      5 C5B       161.5730  300.7770  193.8540 C.3       1 FAD503      0.0000 
      6 C4B       161.1170  302.1720  193.5140 C.3       1 FAD503      0.0000 
      7 O4B       162.0960  302.7750  192.6310 O.3       1 FAD503      0.0000 
      8 C3B       159.7810  302.2880  192.7680 C.3       1 FAD503      0.0000 
      9 O3B       159.1640  303.5140  193.1290 O.3       1 FAD503      0.0000 
     10 C2B       160.2570  302.4290  191.3240 C.3       1 FAD503      0.0000 
     11 O2B       159.2810  302.9510  190.4520 O.3       1 FAD503      0.0000 
     12 C1B       161.4090  303.3890  191.5720 C.3       1 FAD503      0.0000 
     13 N9A       162.3220  303.5180  190.4640 N.pl3     1 FAD503      0.0000 
     14 C8A       162.5910  302.5970  189.4880 C.2       1 FAD503      0.0000 
     15 N7A       163.4790  303.0270  188.6230 N.2       1 FAD503      0.0000 
     16 C5A       163.8070  304.3020  189.0630 C.ar      1 FAD503      0.0000 
     17 C6A       164.6920  305.2780  188.5760 C.ar      1 FAD503      0.0000 
     18 N6A       165.4450  305.1120  187.4930 N.pl3     1 FAD503      0.0000 
     19 N1A       164.7750  306.4420  189.2630 N.ar      1 FAD503      0.0000 
     20 C2A       164.0140  306.5990  190.3540 C.ar      1 FAD503      0.0000 
     21 N3A       163.1500  305.7520  190.9030 N.ar      1 FAD503      0.0000 
     22 C4A       163.0970  304.6110  190.1990 C.ar      1 FAD503      0.0000 
     23 N1        156.3360  291.9200  193.3010 N.2       1 FAD503      0.0000 
     24 C2        155.5600  292.1820  192.2350 C.2       1 FAD503      0.0000 
     25 O2        156.0360  292.6830  191.2170 O.2       1 FAD503      0.0000 
     26 N3        154.2360  291.9080  192.2270 N.am      1 FAD503      0.0000 
     27 C4        153.6060  291.3460  193.3050 C.2       1 FAD503      0.0000 
     28 O4        152.4100  291.1200  193.2500 O.2       1 FAD503      0.0000 
     29 C4X       154.3760  291.0590  194.4370 C.2       1 FAD503      0.0000 
     30 N5        153.7930  290.5270  195.4740 N.2       1 FAD503      0.0000 
     31 C5X       154.5730  290.2610  196.5650 C.ar      1 FAD503      0.0000 
     32 C6        153.9600  289.6860  197.6880 C.ar      1 FAD503      0.0000 
     33 C7        154.6780  289.3920  198.8180 C.ar      1 FAD503      0.0000 
     34 C7M       153.9820  288.7760  200.0000 C.3       1 FAD503      0.0000 
     35 C8        156.0590  289.6690  198.8580 C.ar      1 FAD503      0.0000 
     36 C8M       156.8650  289.3600  200.0920 C.3       1 FAD503      0.0000 
     37 C9        156.6750  290.2310  197.7640 C.ar      1 FAD503      0.0000 
     38 C9A       155.9530  290.5400  196.6020 C.ar      1 FAD503      0.0000 
     39 N10       156.5360  291.1050  195.4710 N.pl3     1 FAD503      0.0000 
     40 C10       155.7740  291.3840  194.3600 C.2       1 FAD503      0.0000 
     41 C1'       157.9760  291.4160  195.4470 C.3       1 FAD503      0.0000 
     42 C2'       158.4780  291.9200  196.7750 C.3       1 FAD503      0.0000 
     43 O2'       157.5710  292.9070  197.2320 O.3       1 FAD503      0.0000 
     44 C3'       159.8550  292.5730  196.6350 C.3       1 FAD503      0.0000 
     45 O3'       160.5320  292.0340  195.5070 O.3       1 FAD503      0.0000 
     46 C4'       159.8100  294.0960  196.5280 C.3       1 FAD503      0.0000 
     47 O4'       158.9200  294.5950  197.5250 O.3       1 FAD503      0.0000 
     48 C5'       161.1680  294.7300  196.7150 C.3       1 FAD503      0.0000 
     49 O5'       161.0340  296.1780  196.6990 O.3       1 FAD503      0.0000 
     50 P         162.3240  297.0870  196.4230 P.3       1 FAD503      0.0000 
     51 O1P       162.9840  296.6120  195.1790 O.co2     1 FAD503      0.0000 
     52 O2P       163.1310  297.2660  197.6620 O.co2     1 FAD503      0.0000 
     53 O3P       161.6230  298.4540  196.0130 O.3       1 FAD503      0.0000 
@<TRIPOS>BOND
     1    1    2 ar   
     2    1    3 ar   
     3    1    4 1    
     4    1   53 1    
     5    4    5 1    
     6    5    6 1    
     7    6    7 1    
     8    6    8 1    
     9    7   12 1    
    10    8    9 1    
    11    8   10 1    
    12   10   11 1    
    13   10   12 1    
    14   12   13 1    
    15   13   14 1    
    16   13   22 1    
    17   14   15 2    
    18   15   16 1    
    19   16   17 ar   
    20   16   22 ar   
    21   17   18 1    
    22   17   19 ar   
    23   19   20 ar   
    24   20   21 ar   
    25   21   22 ar   
    26   23   24 1    
    27   23   40 2    
    28   24   25 2    
    29   24   26 am   
    30   26   27 am   
    31   27   28 2    
    32   27   29 1    
    33   29   30 2    
    34   29   40 1    
    35   30   31 1    
    36   31   32 ar   
    37   31   38 ar   
    38   32   33 ar   
    39   33   34 1    
    40   33   35 ar   
    41   35   36 1    
    42   35   37 ar   
    43   37   38 ar   
    44   38   39 1    
    45   39   40 1    
    46   39   41 1    
    47   41   42 1    
    48   42   43 1    
    49   42   44 1    
    50   44   45 1    
    51   44   46 1    
    52   46   47 1    
    53   46   48 1    
    54   48   49 1    
    55   49   50 1    
    56   50   51 ar   
    57   50   52 ar   
    58   50   53 1    
@<TRIPOS>SUBSTRUCTURE
     1 FAD503      1 GROUP   
@<TRIPOS>SET
ATOM$ORANGE STATIC     ATOMS   COLORGROUP SYSTEM 
54 5 5 6 6 8 8 10 10 12 12 14 14 16 16 17 17 20 \
20 22 22 24 24 27 27 29 29 31 31 32 32 33 33 34 34 35 \
35 36 36 37 37 38 38 40 40 41 41 42 42 44 44 46 46 48 \
48 

