#    Name: 6s6u_10_FAD
#    Modification time : Fri May 22 19:35:55 2020

@<TRIPOS>MOLECULE
6s6u_10_FAD
   53    58     1     0     1
SMALL
NO_CHARGES


@<TRIPOS>ATOM
      1 PA        278.4670  140.6640  194.8170 P.3       1 FAD503      0.0000 
      2 O1A       277.7850  141.5740  193.8550 O.co2     1 FAD503      0.0000 
      3 O2A       279.9270  140.8450  195.0560 O.co2     1 FAD503      0.0000 
      4 O5B       278.1670  139.1540  194.3960 O.3       1 FAD503      0.0000 
      5 C5B       278.3950  138.8060  193.0170 C.3       1 FAD503      0.0000 
      6 C4B       278.7560  137.3470  192.9570 C.3       1 FAD503      0.0000 
      7 O4B       277.5750  136.5120  193.0080 O.3       1 FAD503      0.0000 
      8 C3B       279.5210  136.8350  191.7380 C.3       1 FAD503      0.0000 
      9 O3B       280.8860  137.2210  191.7840 O.3       1 FAD503      0.0000 
     10 C2B       279.3070  135.3430  191.9710 C.3       1 FAD503      0.0000 
     11 O2B       279.9550  134.9750  193.1670 O.3       1 FAD503      0.0000 
     12 C1B       277.8010  135.3750  192.2050 C.3       1 FAD503      0.0000 
     13 N9A       277.0750  135.5540  190.9690 N.pl3     1 FAD503      0.0000 
     14 C8A       277.0730  136.6570  190.1630 C.2       1 FAD503      0.0000 
     15 N7A       276.3040  136.5100  189.1090 N.2       1 FAD503      0.0000 
     16 C5A       275.7730  135.2350  189.2400 C.ar      1 FAD503      0.0000 
     17 C6A       274.8840  134.4880  188.4480 C.ar      1 FAD503      0.0000 
     18 N6A       274.3460  134.9370  187.3190 N.pl3     1 FAD503      0.0000 
     19 N1A       274.5630  133.2460  188.8770 N.ar      1 FAD503      0.0000 
     20 C2A       275.1070  132.7990  190.0160 C.ar      1 FAD503      0.0000 
     21 N3A       275.9510  133.4110  190.8410 N.ar      1 FAD503      0.0000 
     22 C4A       276.2440  134.6390  190.3870 C.ar      1 FAD503      0.0000 
     23 N1        282.8980  147.4700  193.2850 N.2       1 FAD503      0.0000 
     24 C2        283.6860  147.1970  192.2310 C.2       1 FAD503      0.0000 
     25 O2        283.2150  146.7360  191.1930 O.2       1 FAD503      0.0000 
     26 N3        285.0200  147.4160  192.2580 N.am      1 FAD503      0.0000 
     27 C4        285.6470  147.9320  193.3610 C.2       1 FAD503      0.0000 
     28 O4        286.8530  148.1100  193.3380 O.2       1 FAD503      0.0000 
     29 C4X       284.8650  148.2260  194.4820 C.2       1 FAD503      0.0000 
     30 N5        285.4460  148.7130  195.5420 N.2       1 FAD503      0.0000 
     31 C5X       284.6520  148.9850  196.6220 C.ar      1 FAD503      0.0000 
     32 C6        285.2610  149.5080  197.7710 C.ar      1 FAD503      0.0000 
     33 C7        284.5280  149.8040  198.8910 C.ar      1 FAD503      0.0000 
     34 C7M       285.2210  150.3630  200.1020 C.3       1 FAD503      0.0000 
     35 C8        283.1360  149.5800  198.8950 C.ar      1 FAD503      0.0000 
     36 C8M       282.3160  149.8920  200.1180 C.3       1 FAD503      0.0000 
     37 C9        282.5240  149.0710  197.7740 C.ar      1 FAD503      0.0000 
     38 C9A       283.2630  148.7600  196.6230 C.ar      1 FAD503      0.0000 
     39 N10       282.6830  148.2490  195.4670 N.pl3     1 FAD503      0.0000 
     40 C10       283.4580  147.9610  194.3660 C.2       1 FAD503      0.0000 
     41 C1'       281.2340  147.9990  195.4080 C.3       1 FAD503      0.0000 
     42 C2'       280.7440  147.2000  196.5850 C.3       1 FAD503      0.0000 
     43 O2'       281.7680  146.3140  196.9910 O.3       1 FAD503      0.0000 
     44 C3'       279.5470  146.3600  196.1430 C.3       1 FAD503      0.0000 
     45 O3'       278.3990  147.1710  195.9560 O.3       1 FAD503      0.0000 
     46 C4'       279.2370  145.1850  197.0670 C.3       1 FAD503      0.0000 
     47 O4'       280.3500  144.2920  197.0520 O.3       1 FAD503      0.0000 
     48 C5'       277.9790  144.4490  196.6680 C.3       1 FAD503      0.0000 
     49 O5'       278.1590  143.0250  196.8940 O.3       1 FAD503      0.0000 
     50 P         276.9300  142.0220  196.6820 P.3       1 FAD503      0.0000 
     51 O1P       276.2010  141.8000  197.9620 O.co2     1 FAD503      0.0000 
     52 O2P       276.1530  142.4090  195.4780 O.co2     1 FAD503      0.0000 
     53 O3P       277.7100  140.7190  196.2180 O.3       1 FAD503      0.0000 
@<TRIPOS>BOND
     1    1    2 ar   
     2    1    3 ar   
     3    1    4 1    
     4    1   53 1    
     5    4    5 1    
     6    5    6 1    
     7    6    7 1    
     8    6    8 1    
     9    7   12 1    
    10    8    9 1    
    11    8   10 1    
    12   10   11 1    
    13   10   12 1    
    14   12   13 1    
    15   13   14 1    
    16   13   22 1    
    17   14   15 2    
    18   15   16 1    
    19   16   17 ar   
    20   16   22 ar   
    21   17   18 1    
    22   17   19 ar   
    23   19   20 ar   
    24   20   21 ar   
    25   21   22 ar   
    26   23   24 1    
    27   23   40 2    
    28   24   25 2    
    29   24   26 am   
    30   26   27 am   
    31   27   28 2    
    32   27   29 1    
    33   29   30 2    
    34   29   40 1    
    35   30   31 1    
    36   31   32 ar   
    37   31   38 ar   
    38   32   33 ar   
    39   33   34 1    
    40   33   35 ar   
    41   35   36 1    
    42   35   37 ar   
    43   37   38 ar   
    44   38   39 1    
    45   39   40 1    
    46   39   41 1    
    47   41   42 1    
    48   42   43 1    
    49   42   44 1    
    50   44   45 1    
    51   44   46 1    
    52   46   47 1    
    53   46   48 1    
    54   48   49 1    
    55   49   50 1    
    56   50   51 ar   
    57   50   52 ar   
    58   50   53 1    
@<TRIPOS>SUBSTRUCTURE
     1 FAD503      1 GROUP   
@<TRIPOS>SET
ATOM$ORANGE STATIC     ATOMS   COLORGROUP SYSTEM 
54 5 5 6 6 8 8 10 10 12 12 14 14 16 16 17 17 20 \
20 22 22 24 24 27 27 29 29 31 31 32 32 33 33 34 34 35 \
35 36 36 37 37 38 38 40 40 41 41 42 42 44 44 46 46 48 \
48 

