#    Name: 6s6u_3_FMN
#    Modification time : Fri May 22 19:34:44 2020

@<TRIPOS>MOLECULE
6s6u_3_FMN
   31    33     1     0     1
SMALL
NO_CHARGES


@<TRIPOS>ATOM
      1 N1        175.9410  261.4890  234.7040 N.2       1 FMN1501     0.0000 
      2 C2        175.8290  260.6930  235.8240 C.2       1 FMN1501     0.0000 
      3 O2        176.8380  260.3250  236.4200 O.2       1 FMN1501     0.0000 
      4 N3        174.5920  260.3050  236.2830 N.am      1 FMN1501     0.0000 
      5 C4        173.4580  260.7140  235.6220 C.2       1 FMN1501     0.0000 
      6 O4        172.3510  260.3700  236.0280 O.2       1 FMN1501     0.0000 
      7 C4A       173.5630  261.5140  234.4970 C.2       1 FMN1501     0.0000 
      8 N5        172.4270  261.9200  233.8380 N.2       1 FMN1501     0.0000 
      9 C5A       172.5300  262.7130  232.7190 C.ar      1 FMN1501     0.0000 
     10 C6        171.3810  263.1190  232.0570 C.ar      1 FMN1501     0.0000 
     11 C7        171.4820  263.9190  230.9300 C.ar      1 FMN1501     0.0000 
     12 C7M       170.2420  264.3590  230.2150 C.3       1 FMN1501     0.0000 
     13 C8        172.7280  264.3120  230.4660 C.ar      1 FMN1501     0.0000 
     14 C8M       172.8360  265.1770  229.2480 C.3       1 FMN1501     0.0000 
     15 C9        173.8760  263.9050  231.1290 C.ar      1 FMN1501     0.0000 
     16 C9A       173.7770  263.1040  232.2580 C.ar      1 FMN1501     0.0000 
     17 N10       174.9160  262.6940  232.9170 N.pl3     1 FMN1501     0.0000 
     18 C10       174.8100  261.9020  234.0380 C.2       1 FMN1501     0.0000 
     19 C1'       176.2630  263.1230  232.4210 C.3       1 FMN1501     0.0000 
     20 C2'       176.8460  262.0750  231.4890 C.3       1 FMN1501     0.0000 
     21 O2'       177.1460  260.9250  232.2430 O.3       1 FMN1501     0.0000 
     22 C3'       178.1180  262.5870  230.8320 C.3       1 FMN1501     0.0000 
     23 O3'       179.0410  262.9570  231.8270 O.3       1 FMN1501     0.0000 
     24 C4'       177.8060  263.7850  229.9490 C.3       1 FMN1501     0.0000 
     25 O4'       176.6040  263.5470  229.2560 O.3       1 FMN1501     0.0000 
     26 C5'       178.9110  264.0400  228.9360 C.3       1 FMN1501     0.0000 
     27 O5'       178.6170  265.2360  228.2550 O.3       1 FMN1501     0.0000 
     28 P         178.7890  265.3260  226.6630 P.3       1 FMN1501     0.0000 
     29 O1P       177.6110  264.6220  226.0460 O.co2     1 FMN1501     0.0000 
     30 O2P       178.8120  266.7670  226.2250 O.co2     1 FMN1501     0.0000 
     31 O3P       180.0620  264.6420  226.2410 O.co2     1 FMN1501     0.0000 
@<TRIPOS>BOND
     1    1    2 1    
     2    1   18 2    
     3    2    3 2    
     4    2    4 am   
     5    4    5 am   
     6    5    6 2    
     7    5    7 1    
     8    7    8 2    
     9    7   18 1    
    10    8    9 1    
    11    9   10 ar   
    12    9   16 ar   
    13   10   11 ar   
    14   11   12 1    
    15   11   13 ar   
    16   13   14 1    
    17   13   15 ar   
    18   15   16 ar   
    19   16   17 1    
    20   17   18 1    
    21   17   19 1    
    22   19   20 1    
    23   20   21 1    
    24   20   22 1    
    25   22   23 1    
    26   22   24 1    
    27   24   25 1    
    28   24   26 1    
    29   26   27 1    
    30   27   28 1    
    31   28   29 ar   
    32   28   30 ar   
    33   28   31 ar   
@<TRIPOS>SUBSTRUCTURE
     1 FMN1501     1 GROUP   
@<TRIPOS>SET
ATOM$ORANGE STATIC     ATOMS   COLORGROUP SYSTEM 
34 2 2 5 5 7 7 9 9 10 10 11 11 12 12 13 13 14 \
14 15 15 16 16 18 18 19 19 20 20 22 22 24 24 26 26 

