#    Name: 6s6u_2_FMN
#    Modification time : Fri May 22 19:34:27 2020

@<TRIPOS>MOLECULE
6s6u_2_FMN
   31    33     1     0     1
SMALL
NO_CHARGES


@<TRIPOS>ATOM
      1 N1        180.7850  185.7240  255.2610 N.2       1 FMN1501     0.0000 
      2 C2        180.6680  185.5050  253.9050 C.2       1 FMN1501     0.0000 
      3 O2        181.6770  185.3240  253.2280 O.2       1 FMN1501     0.0000 
      4 N3        179.4270  185.4900  253.3060 N.am      1 FMN1501     0.0000 
      5 C4        178.2950  185.6940  254.0660 C.2       1 FMN1501     0.0000 
      6 O4        177.1850  185.6810  253.5380 O.2       1 FMN1501     0.0000 
      7 C4A       178.4070  185.9140  255.4300 C.2       1 FMN1501     0.0000 
      8 N5        177.2750  186.1170  256.1870 N.2       1 FMN1501     0.0000 
      9 C5A       177.3890  186.3360  257.5410 C.ar      1 FMN1501     0.0000 
     10 C6        176.2470  186.5400  258.3050 C.ar      1 FMN1501     0.0000 
     11 C7        176.3620  186.7630  259.6710 C.ar      1 FMN1501     0.0000 
     12 C7M       175.1340  186.9830  260.5010 C.3       1 FMN1501     0.0000 
     13 C8        177.6130  186.7780  260.2710 C.ar      1 FMN1501     0.0000 
     14 C8M       177.7390  187.0150  261.7460 C.3       1 FMN1501     0.0000 
     15 C9        178.7510  186.5720  259.5060 C.ar      1 FMN1501     0.0000 
     16 C9A       178.6410  186.3510  258.1400 C.ar      1 FMN1501     0.0000 
     17 N10       179.7750  186.1510  257.3810 N.pl3     1 FMN1501     0.0000 
     18 C10       179.6580  185.9250  256.0270 C.2       1 FMN1501     0.0000 
     19 C1'       181.1270  186.1590  258.0310 C.3       1 FMN1501     0.0000 
     20 C2'       181.7340  187.5530  257.9600 C.3       1 FMN1501     0.0000 
     21 O2'       181.9930  187.8830  256.6140 O.3       1 FMN1501     0.0000 
     22 C3'       183.0260  187.6320  258.7650 C.3       1 FMN1501     0.0000 
     23 O3'       183.9020  186.6100  258.3540 O.3       1 FMN1501     0.0000 
     24 C4'       182.7340  187.4590  260.2460 C.3       1 FMN1501     0.0000 
     25 O4'       181.5950  188.2140  260.5820 O.3       1 FMN1501     0.0000 
     26 C5'       183.9000  187.9340  261.0990 C.3       1 FMN1501     0.0000 
     27 O5'       183.6350  187.6170  262.4450 O.3       1 FMN1501     0.0000 
     28 P         183.8510  188.7300  263.5860 P.3       1 FMN1501     0.0000 
     29 O1P       182.6700  189.6650  263.5350 O.co2     1 FMN1501     0.0000 
     30 O2P       183.9400  188.0750  264.9430 O.co2     1 FMN1501     0.0000 
     31 O3P       185.1050  189.5210  263.3110 O.co2     1 FMN1501     0.0000 
@<TRIPOS>BOND
     1    1    2 1    
     2    1   18 2    
     3    2    3 2    
     4    2    4 am   
     5    4    5 am   
     6    5    6 2    
     7    5    7 1    
     8    7    8 2    
     9    7   18 1    
    10    8    9 1    
    11    9   10 ar   
    12    9   16 ar   
    13   10   11 ar   
    14   11   12 1    
    15   11   13 ar   
    16   13   14 1    
    17   13   15 ar   
    18   15   16 ar   
    19   16   17 1    
    20   17   18 1    
    21   17   19 1    
    22   19   20 1    
    23   20   21 1    
    24   20   22 1    
    25   22   23 1    
    26   22   24 1    
    27   24   25 1    
    28   24   26 1    
    29   26   27 1    
    30   27   28 1    
    31   28   29 ar   
    32   28   30 ar   
    33   28   31 ar   
@<TRIPOS>SUBSTRUCTURE
     1 FMN1501     1 GROUP   
@<TRIPOS>SET
ATOM$ORANGE STATIC     ATOMS   COLORGROUP SYSTEM 
34 2 2 5 5 7 7 9 9 10 10 11 11 12 12 13 13 14 \
14 15 15 16 16 18 18 19 19 20 20 22 22 24 24 26 26 

