#    Name: 6s6u_6_FMN
#    Modification time : Fri May 22 19:35:19 2020

@<TRIPOS>MOLECULE
6s6u_6_FMN
   31    33     1     0     1
SMALL
NO_CHARGES


@<TRIPOS>ATOM
      1 N1        258.3220  253.5910  255.3980 N.2       1 FMN1501     0.0000 
      2 C2        258.4390  253.8070  254.0410 C.2       1 FMN1501     0.0000 
      3 O2        257.4300  253.9890  253.3640 O.2       1 FMN1501     0.0000 
      4 N3        259.6800  253.8180  253.4420 N.am      1 FMN1501     0.0000 
      5 C4        260.8120  253.6130  254.2010 C.2       1 FMN1501     0.0000 
      6 O4        261.9210  253.6230  253.6730 O.2       1 FMN1501     0.0000 
      7 C4A       260.7000  253.3970  255.5660 C.2       1 FMN1501     0.0000 
      8 N5        261.8320  253.1930  256.3230 N.2       1 FMN1501     0.0000 
      9 C5A       261.7180  252.9760  257.6770 C.ar      1 FMN1501     0.0000 
     10 C6        262.8590  252.7720  258.4410 C.ar      1 FMN1501     0.0000 
     11 C7        262.7450  252.5520  259.8080 C.ar      1 FMN1501     0.0000 
     12 C7M       263.9730  252.3320  260.6370 C.3       1 FMN1501     0.0000 
     13 C8        261.4940  252.5410  260.4090 C.ar      1 FMN1501     0.0000 
     14 C8M       261.3680  252.3080  261.8840 C.3       1 FMN1501     0.0000 
     15 C9        260.3560  252.7480  259.6440 C.ar      1 FMN1501     0.0000 
     16 C9A       260.4660  252.9650  258.2770 C.ar      1 FMN1501     0.0000 
     17 N10       259.3320  253.1660  257.5180 N.pl3     1 FMN1501     0.0000 
     18 C10       259.4490  253.3890  256.1640 C.2       1 FMN1501     0.0000 
     19 C1'       257.9810  253.1630  258.1690 C.3       1 FMN1501     0.0000 
     20 C2'       257.3700  251.7700  258.1010 C.3       1 FMN1501     0.0000 
     21 O2'       257.1100  251.4380  256.7550 O.3       1 FMN1501     0.0000 
     22 C3'       256.0790  251.6960  258.9060 C.3       1 FMN1501     0.0000 
     23 O3'       255.2040  252.7190  258.4940 O.3       1 FMN1501     0.0000 
     24 C4'       256.3710  251.8720  260.3880 C.3       1 FMN1501     0.0000 
     25 O4'       257.5090  251.1150  260.7240 O.3       1 FMN1501     0.0000 
     26 C5'       255.2050  251.4000  261.2410 C.3       1 FMN1501     0.0000 
     27 O5'       255.4710  251.7190  262.5870 O.3       1 FMN1501     0.0000 
     28 P         255.2530  250.6100  263.7300 P.3       1 FMN1501     0.0000 
     29 O1P       256.4320  249.6720  263.6800 O.co2     1 FMN1501     0.0000 
     30 O2P       255.1660  251.2680  265.0860 O.co2     1 FMN1501     0.0000 
     31 O3P       253.9980  249.8210  263.4580 O.co2     1 FMN1501     0.0000 
@<TRIPOS>BOND
     1    1    2 1    
     2    1   18 2    
     3    2    3 2    
     4    2    4 am   
     5    4    5 am   
     6    5    6 2    
     7    5    7 1    
     8    7    8 2    
     9    7   18 1    
    10    8    9 1    
    11    9   10 ar   
    12    9   16 ar   
    13   10   11 ar   
    14   11   12 1    
    15   11   13 ar   
    16   13   14 1    
    17   13   15 ar   
    18   15   16 ar   
    19   16   17 1    
    20   17   18 1    
    21   17   19 1    
    22   19   20 1    
    23   20   21 1    
    24   20   22 1    
    25   22   23 1    
    26   22   24 1    
    27   24   25 1    
    28   24   26 1    
    29   26   27 1    
    30   27   28 1    
    31   28   29 ar   
    32   28   30 ar   
    33   28   31 ar   
@<TRIPOS>SUBSTRUCTURE
     1 FMN1501     1 GROUP   
@<TRIPOS>SET
ATOM$ORANGE STATIC     ATOMS   COLORGROUP SYSTEM 
34 2 2 5 5 7 7 9 9 10 10 11 11 12 12 13 13 14 \
14 15 15 16 16 18 18 19 19 20 20 22 22 24 24 26 26 

