#    Name: 6s6u_7_FAD
#    Modification time : Fri May 22 19:35:27 2020

@<TRIPOS>MOLECULE
6s6u_7_FAD
   53    58     1     0     1
SMALL
NO_CHARGES


@<TRIPOS>ATOM
      1 PA        163.9390  157.0710  169.0920 P.3       1 FAD503      0.0000 
      2 O1A       164.4210  156.5330  170.3920 O.co2     1 FAD503      0.0000 
      3 O2A       162.4740  157.1410  168.8260 O.co2     1 FAD503      0.0000 
      4 O5B       164.6400  156.3020  167.8920 O.3       1 FAD503      0.0000 
      5 C5B       164.6290  154.8670  167.8930 C.3       1 FAD503      0.0000 
      6 C4B       164.6190  154.4020  166.4620 C.3       1 FAD503      0.0000 
      7 O4B       165.5560  153.3050  166.3490 O.3       1 FAD503      0.0000 
      8 C3B       163.2840  153.8460  165.9500 C.3       1 FAD503      0.0000 
      9 O3B       163.1010  154.2010  164.5880 O.3       1 FAD503      0.0000 
     10 C2B       163.5150  152.3370  166.0070 C.3       1 FAD503      0.0000 
     11 O2B       162.6570  151.6210  165.1490 O.3       1 FAD503      0.0000 
     12 C1B       164.9740  152.2840  165.5850 C.3       1 FAD503      0.0000 
     13 N9A       165.6290  151.0670  165.9830 N.pl3     1 FAD503      0.0000 
     14 C8A       165.7590  150.5840  167.2540 C.2       1 FAD503      0.0000 
     15 N7A       166.4300  149.4580  167.2960 N.2       1 FAD503      0.0000 
     16 C5A       166.7680  149.2030  165.9750 C.ar      1 FAD503      0.0000 
     17 C6A       167.4840  148.1620  165.3630 C.ar      1 FAD503      0.0000 
     18 N6A       168.0140  147.1440  166.0320 N.pl3     1 FAD503      0.0000 
     19 N1A       167.6390  148.2210  164.0200 N.ar      1 FAD503      0.0000 
     20 C2A       167.1060  149.2550  163.3580 C.ar      1 FAD503      0.0000 
     21 N3A       166.4140  150.2870  163.8280 N.ar      1 FAD503      0.0000 
     22 C4A       166.2830  150.1970  165.1590 C.ar      1 FAD503      0.0000 
     23 N1        159.7760  158.0620  175.4350 N.2       1 FAD503      0.0000 
     24 C2        158.9230  157.0200  175.4840 C.2       1 FAD503      0.0000 
     25 O2        159.3380  155.8660  175.4630 O.2       1 FAD503      0.0000 
     26 N3        157.5880  157.1860  175.5620 N.am      1 FAD503      0.0000 
     27 C4        157.0170  158.4290  175.5930 C.2       1 FAD503      0.0000 
     28 O4        155.8050  158.5320  175.6590 O.2       1 FAD503      0.0000 
     29 C4X       157.8640  159.5430  175.5380 C.2       1 FAD503      0.0000 
     30 N5        157.3330  160.7340  175.5640 N.2       1 FAD503      0.0000 
     31 C5X       158.1850  161.8020  175.5030 C.ar      1 FAD503      0.0000 
     32 C6        157.6320  163.0910  175.5240 C.ar      1 FAD503      0.0000 
     33 C7        158.4280  164.2050  175.4640 C.ar      1 FAD503      0.0000 
     34 C7M       157.8050  165.5710  175.4870 C.3       1 FAD503      0.0000 
     35 C8        159.8230  164.0650  175.3810 C.ar      1 FAD503      0.0000 
     36 C8M       160.7020  165.2860  175.3150 C.3       1 FAD503      0.0000 
     37 C9        160.3830  162.8080  175.3630 C.ar      1 FAD503      0.0000 
     38 C9A       159.5820  161.6580  175.4180 C.ar      1 FAD503      0.0000 
     39 N10       160.1060  160.3710  175.4060 N.pl3     1 FAD503      0.0000 
     40 C10       159.2720  159.2750  175.4580 C.2       1 FAD503      0.0000 
     41 C1'       161.5600  160.1670  175.3130 C.3       1 FAD503      0.0000 
     42 C2'       162.1830  160.9330  174.1720 C.3       1 FAD503      0.0000 
     43 O2'       161.2060  161.1860  173.1820 O.3       1 FAD503      0.0000 
     44 C3'       163.2440  160.0230  173.5600 C.3       1 FAD503      0.0000 
     45 O3'       164.2120  159.7040  174.5410 O.3       1 FAD503      0.0000 
     46 C4'       163.9570  160.5820  172.3320 C.3       1 FAD503      0.0000 
     47 O4'       162.9760  161.1570  171.4700 O.3       1 FAD503      0.0000 
     48 C5'       164.6740  159.4870  171.5790 C.3       1 FAD503      0.0000 
     49 O5'       165.5170  160.0410  170.5430 O.3       1 FAD503      0.0000 
     50 P         165.9950  159.0870  169.3530 P.3       1 FAD503      0.0000 
     51 O1P       166.7920  157.9670  169.9230 O.co2     1 FAD503      0.0000 
     52 O2P       166.5890  159.9010  168.2560 O.co2     1 FAD503      0.0000 
     53 O3P       164.5890  158.5100  168.8720 O.3       1 FAD503      0.0000 
@<TRIPOS>BOND
     1    1    2 ar   
     2    1    3 ar   
     3    1    4 1    
     4    1   53 1    
     5    4    5 1    
     6    5    6 1    
     7    6    7 1    
     8    6    8 1    
     9    7   12 1    
    10    8    9 1    
    11    8   10 1    
    12   10   11 1    
    13   10   12 1    
    14   12   13 1    
    15   13   14 1    
    16   13   22 1    
    17   14   15 2    
    18   15   16 1    
    19   16   17 ar   
    20   16   22 ar   
    21   17   18 1    
    22   17   19 ar   
    23   19   20 ar   
    24   20   21 ar   
    25   21   22 ar   
    26   23   24 1    
    27   23   40 2    
    28   24   25 2    
    29   24   26 am   
    30   26   27 am   
    31   27   28 2    
    32   27   29 1    
    33   29   30 2    
    34   29   40 1    
    35   30   31 1    
    36   31   32 ar   
    37   31   38 ar   
    38   32   33 ar   
    39   33   34 1    
    40   33   35 ar   
    41   35   36 1    
    42   35   37 ar   
    43   37   38 ar   
    44   38   39 1    
    45   39   40 1    
    46   39   41 1    
    47   41   42 1    
    48   42   43 1    
    49   42   44 1    
    50   44   45 1    
    51   44   46 1    
    52   46   47 1    
    53   46   48 1    
    54   48   49 1    
    55   49   50 1    
    56   50   51 ar   
    57   50   52 ar   
    58   50   53 1    
@<TRIPOS>SUBSTRUCTURE
     1 FAD503      1 GROUP   
@<TRIPOS>SET
ATOM$ORANGE STATIC     ATOMS   COLORGROUP SYSTEM 
54 5 5 6 6 8 8 10 10 12 12 14 14 16 16 17 17 20 \
20 22 22 24 24 27 27 29 29 31 31 32 32 33 33 34 34 35 \
35 36 36 37 37 38 38 40 40 41 41 42 42 44 44 46 46 48 \
48 

