#    Name: 6s6u_1_FMN
#    Modification time : Fri May 22 19:34:09 2020

@<TRIPOS>MOLECULE
6s6u_1_FMN
   31    33     1     0     1
SMALL
NO_CHARGES


@<TRIPOS>ATOM
      1 N1        178.7300  207.9350  188.4190 N.2       1 FMN1501     0.0000 
      2 C2        178.7100  209.2570  188.8070 C.2       1 FMN1501     0.0000 
      3 O2        179.7650  209.8630  188.9710 O.2       1 FMN1501     0.0000 
      4 N3        177.5140  209.9050  189.0130 N.am      1 FMN1501     0.0000 
      5 C4        176.3300  209.2310  188.8310 C.2       1 FMN1501     0.0000 
      6 O4        175.2590  209.8020  189.0120 O.2       1 FMN1501     0.0000 
      7 C4A       176.3440  207.9040  188.4400 C.2       1 FMN1501     0.0000 
      8 N5        175.1580  207.2360  188.2580 N.2       1 FMN1501     0.0000 
      9 C5A       175.1710  205.9170  187.8700 C.ar      1 FMN1501     0.0000 
     10 C6        173.9700  205.2480  187.6900 C.ar      1 FMN1501     0.0000 
     11 C7        173.9760  203.9200  187.3010 C.ar      1 FMN1501     0.0000 
     12 C7M       172.6810  203.1960  187.1040 C.3       1 FMN1501     0.0000 
     13 C8        175.1800  203.2630  187.0920 C.ar      1 FMN1501     0.0000 
     14 C8M       175.1880  201.8270  186.6710 C.3       1 FMN1501     0.0000 
     15 C9        176.3800  203.9320  187.2720 C.ar      1 FMN1501     0.0000 
     16 C9A       176.3770  205.2630  187.6630 C.ar      1 FMN1501     0.0000 
     17 N10       177.5660  205.9330  187.8480 N.pl3     1 FMN1501     0.0000 
     18 C10       177.5480  207.2550  188.2320 C.2       1 FMN1501     0.0000 
     19 C1'       178.8750  205.2380  187.6220 C.3       1 FMN1501     0.0000 
     20 C2'       179.3720  204.6380  188.9280 C.3       1 FMN1501     0.0000 
     21 O2'       179.5200  205.6690  189.8710 O.3       1 FMN1501     0.0000 
     22 C3'       180.7080  203.9380  188.7410 C.3       1 FMN1501     0.0000 
     23 O3'       181.6230  204.8310  188.1560 O.3       1 FMN1501     0.0000 
     24 C4'       180.5450  202.7350  187.8340 C.3       1 FMN1501     0.0000 
     25 O4'       179.3520  202.0750  188.1710 O.3       1 FMN1501     0.0000 
     26 C5'       181.6960  201.7550  187.9820 C.3       1 FMN1501     0.0000 
     27 O5'       181.4610  200.6920  187.0920 O.3       1 FMN1501     0.0000 
     28 P         181.5040  199.1830  187.6280 P.3       1 FMN1501     0.0000 
     29 O1P       180.3400  199.0100  188.5650 O.co2     1 FMN1501     0.0000 
     30 O2P       181.3740  198.2250  186.4730 O.co2     1 FMN1501     0.0000 
     31 O3P       182.7890  198.9290  188.3720 O.co2     1 FMN1501     0.0000 
@<TRIPOS>BOND
     1    1    2 1    
     2    1   18 2    
     3    2    3 2    
     4    2    4 am   
     5    4    5 am   
     6    5    6 2    
     7    5    7 1    
     8    7    8 2    
     9    7   18 1    
    10    8    9 1    
    11    9   10 ar   
    12    9   16 ar   
    13   10   11 ar   
    14   11   12 1    
    15   11   13 ar   
    16   13   14 1    
    17   13   15 ar   
    18   15   16 ar   
    19   16   17 1    
    20   17   18 1    
    21   17   19 1    
    22   19   20 1    
    23   20   21 1    
    24   20   22 1    
    25   22   23 1    
    26   22   24 1    
    27   24   25 1    
    28   24   26 1    
    29   26   27 1    
    30   27   28 1    
    31   28   29 ar   
    32   28   30 ar   
    33   28   31 ar   
@<TRIPOS>SUBSTRUCTURE
     1 FMN1501     1 GROUP   
@<TRIPOS>SET
ATOM$ORANGE STATIC     ATOMS   COLORGROUP SYSTEM 
34 2 2 5 5 7 7 9 9 10 10 11 11 12 12 13 13 14 \
14 15 15 16 16 18 18 19 19 20 20 22 22 24 24 26 26 

