#    Name: 6gk4_2_ATP_CAVITY_N1_4
#    Modification time : Fri May 22 19:23:27 2020

@<TRIPOS>MOLECULE
6gk4_2_ATP_CAVITY_N1_4
   27     0     5     0     0
SMALL
NO_CHARGES


@<TRIPOS>ATOM
      1 OG         -0.4300   35.2300  -10.7100 O.3       1 SER1        0.0000 
      2 OG          1.4200   35.8300   -9.8700 O.3       1 SER1        0.0000 
      3 OG          1.8700   36.2400   -8.5000 O.3       1 SER1        0.0000 
      4 O           2.6700   34.1900  -11.4400 O.2       2 ALA2        0.0000 
      5 O           1.2800   33.9900  -10.9200 O.2       2 ALA2        0.0000 
      6 O           3.1300   34.6000  -10.0700 O.2       2 ALA2        0.0000 
      7 O           3.2600   36.4400   -9.0200 O.2       2 ALA2        0.0000 
      8 CZ          0.0400   34.6000  -13.9700 C.ar      3 PHE5        0.0000 
      9 CZ         -1.3500   34.4100  -13.4500 C.ar      3 PHE5        0.0000 
     10 CZ         -1.6700   35.8400  -13.7700 C.ar      3 PHE5        0.0000 
     11 CZ          1.8900   35.2100  -13.1300 C.ar      3 PHE5        0.0000 
     12 CZ          0.5000   35.0100  -12.6100 C.ar      3 PHE5        0.0000 
     13 CZ         -0.8900   34.8200  -12.0800 C.ar      3 PHE5        0.0000 
     14 CZ          2.3500   35.6200  -11.7600 C.ar      3 PHE5        0.0000 
     15 CZ          0.9600   35.4200  -11.2400 C.ar      3 PHE5        0.0000 
     16 CZ          0.6400   36.8500  -11.5600 C.ar      3 PHE5        0.0000 
     17 CZ          3.8800   37.6500  -11.2400 C.ar      3 PHE5        0.0000 
     18 CZ          2.4900   37.4600  -10.7100 C.ar      3 PHE5        0.0000 
     19 CA         -1.9600   33.1900  -11.2400 C.3       4 GLY6        0.0000 
     20 CA          3.7400   35.8100  -12.2800 C.3       4 GLY6        0.0000 
     21 CA          4.6600   36.6300   -9.5500 C.3       4 GLY6        0.0000 
     22 DU         -2.7400   34.2100  -12.9300 H         5 CUB7        0.0000 
     23 DU          0.8200   33.5800  -12.2800 H         5 CUB7        0.0000 
     24 DU         -0.5700   33.3900  -11.7600 H         5 CUB7        0.0000 
     25 DU          4.2000   36.2200  -10.9100 H         5 CUB7        0.0000 
     26 DU          2.8100   36.0300  -10.3900 H         5 CUB7        0.0000 
     27 DU          5.1100   37.0400   -8.1800 H         5 CUB7        0.0000 
@<TRIPOS>BOND
@<TRIPOS>SUBSTRUCTURE
     1 SER1        1 GROUP   
     2 ALA2        4 GROUP   
     3 PHE5        8 GROUP   
     4 GLY6       19 GROUP   
     5 CUB7       22 GROUP   
@<TRIPOS>SET

