#    Name: 6gk4_1_ATP
#    Modification time : Fri May 22 19:23:23 2020

@<TRIPOS>MOLECULE
6gk4_1_ATP
   31    33     1     0     1
SMALL
NO_CHARGES


@<TRIPOS>ATOM
      1 PG         39.6050    7.0210  -55.5730 P.3       1 ATP703      0.0000 
      2 O1G        39.1870    8.3360  -56.1420 O.co2     1 ATP703      0.0000 
      3 O2G        38.8750    6.5660  -54.3650 O.co2     1 ATP703      0.0000 
      4 O3G        41.0560    6.8940  -55.3420 O.co2     1 ATP703      0.0000 
      5 PB         38.4600    6.1070  -58.0580 P.3       1 ATP703      0.0000 
      6 O1B        38.2450    7.5520  -58.3660 O.co2     1 ATP703      0.0000 
      7 O2B        37.3250    5.2150  -57.8510 O.co2     1 ATP703      0.0000 
      8 O3B        39.3490    5.9520  -56.7420 O.3       1 ATP703      0.0000 
      9 PA         39.5980    5.8720  -60.6130 P.3       1 ATP703      0.0000 
     10 O1A        38.4250    6.1240  -61.4890 O.co2     1 ATP703      0.0000 
     11 O2A        40.6070    6.9350  -60.4100 O.co2     1 ATP703      0.0000 
     12 O3A        39.2490    5.3260  -59.1760 O.3       1 ATP703      0.0000 
     13 O5'        40.3070    4.6470  -61.3170 O.3       1 ATP703      0.0000 
     14 C5'        41.7080    4.5160  -61.1610 C.3       1 ATP703      0.0000 
     15 C4'        42.4650    4.0570  -62.3990 C.3       1 ATP703      0.0000 
     16 O4'        42.1680    4.9120  -63.4810 O.3       1 ATP703      0.0000 
     17 C3'        43.9370    4.2270  -62.1220 C.3       1 ATP703      0.0000 
     18 O3'        44.5380    2.9560  -61.9620 O.3       1 ATP703      0.0000 
     19 C2'        44.5070    5.0010  -63.2870 C.3       1 ATP703      0.0000 
     20 O2'        45.3710    4.2350  -64.1150 O.3       1 ATP703      0.0000 
     21 C1'        43.3330    5.3720  -64.1340 C.3       1 ATP703      0.0000 
     22 N9         43.2840    6.8360  -64.2000 N.pl3     1 ATP703      0.0000 
     23 C8         42.7080    7.6530  -63.3110 C.2       1 ATP703      0.0000 
     24 N7         42.8360    8.9470  -63.6850 N.2       1 ATP703      0.0000 
     25 C5         43.5180    8.9640  -64.8430 C.ar      1 ATP703      0.0000 
     26 C6         44.0110    9.9860  -65.7940 C.ar      1 ATP703      0.0000 
     27 N6         43.8100   11.3080  -65.6060 N.pl3     1 ATP703      0.0000 
     28 N1         44.6760    9.5530  -66.8790 N.ar      1 ATP703      0.0000 
     29 C2         44.9010    8.2530  -67.1150 C.ar      1 ATP703      0.0000 
     30 N3         44.4890    7.2750  -66.2970 N.ar      1 ATP703      0.0000 
     31 C4         43.8100    7.5630  -65.1700 C.ar      1 ATP703      0.0000 
@<TRIPOS>BOND
     1    1    2 ar   
     2    1    3 ar   
     3    1    4 ar   
     4    1    8 1    
     5    5    6 ar   
     6    5    7 ar   
     7    5    8 1    
     8    5   12 1    
     9    9   10 ar   
    10    9   11 ar   
    11    9   12 1    
    12    9   13 1    
    13   13   14 1    
    14   14   15 1    
    15   15   16 1    
    16   15   17 1    
    17   16   21 1    
    18   17   18 1    
    19   17   19 1    
    20   19   20 1    
    21   19   21 1    
    22   21   22 1    
    23   22   23 1    
    24   22   31 1    
    25   23   24 2    
    26   24   25 1    
    27   25   26 ar   
    28   25   31 ar   
    29   26   27 1    
    30   26   28 ar   
    31   28   29 ar   
    32   29   30 ar   
    33   30   31 ar   
@<TRIPOS>SUBSTRUCTURE
     1 ATP703      1 GROUP   
@<TRIPOS>SET
ATOM$ORANGE STATIC     ATOMS   COLORGROUP SYSTEM 
20 14 14 15 15 17 17 19 19 21 21 23 23 25 25 26 26 29 \
29 31 31 

