#    Name: 6gk4_2_ATP_CAVITY_N1_6
#    Modification time : Fri May 22 19:23:27 2020

@<TRIPOS>MOLECULE
6gk4_2_ATP_CAVITY_N1_6
   69     0     7     0     0
SMALL
NO_CHARGES


@<TRIPOS>ATOM
      1 OG         -0.4300   35.2300  -10.7100 O.3       1 SER1        0.0000 
      2 OG          1.4200   35.8300   -9.8700 O.3       1 SER1        0.0000 
      3 OG          1.8700   36.2400   -8.5000 O.3       1 SER1        0.0000 
      4 N          -2.5800   35.0200  -16.5100 N.am      2 ALA2        0.0000 
      5 N          -0.4100   34.1900  -15.3400 N.am      2 ALA2        0.0000 
      6 N          -4.5900   33.6100  -13.7700 N.am      2 ALA2        0.0000 
      7 N          -2.4200   32.7800  -12.6100 N.am      2 ALA2        0.0000 
      8 N          -3.8100   32.5900  -12.0800 N.am      2 ALA2        0.0000 
      9 O          -3.0300   31.5700  -10.3900 O.2       2 ALA2        0.0000 
     10 O           2.9900   32.7600  -11.1200 O.2       2 ALA2        0.0000 
     11 O           2.6700   34.1900  -11.4400 O.2       2 ALA2        0.0000 
     12 O           1.6000   32.5600  -10.5900 O.2       2 ALA2        0.0000 
     13 O           1.2800   33.9900  -10.9200 O.2       2 ALA2        0.0000 
     14 O           4.8400   33.3600  -10.2700 O.2       2 ALA2        0.0000 
     15 O           3.1300   34.6000  -10.0700 O.2       2 ALA2        0.0000 
     16 O           5.3000   33.7700   -8.9000 O.2       2 ALA2        0.0000 
     17 O           4.9800   35.2000   -9.2200 O.2       2 ALA2        0.0000 
     18 O           3.5900   35.0100   -8.7000 O.2       2 ALA2        0.0000 
     19 O           3.2600   36.4400   -9.0200 O.2       2 ALA2        0.0000 
     20 OD1         5.4300   35.6100   -7.8600 O.co2     3 ASP3        0.0000 
     21 OD1         4.0400   35.4200   -7.3300 O.co2     3 ASP3        0.0000 
     22 NZ         -0.0900   32.7600  -15.0200 N.4       4 LYS4        0.0000 
     23 NZ          1.7600   33.3700  -14.1800 N.4       4 LYS4        0.0000 
     24 NZ          0.6900   31.7400  -13.3300 N.4       4 LYS4        0.0000 
     25 NZ          0.3700   33.1700  -13.6500 N.4       4 LYS4        0.0000 
     26 CZ         -2.1200   35.4300  -15.1400 C.ar      5 PHE5        0.0000 
     27 CZ          0.0400   34.6000  -13.9700 C.ar      5 PHE5        0.0000 
     28 CZ         -1.3500   34.4100  -13.4500 C.ar      5 PHE5        0.0000 
     29 CZ         -1.6700   35.8400  -13.7700 C.ar      5 PHE5        0.0000 
     30 CZ          1.8900   35.2100  -13.1300 C.ar      5 PHE5        0.0000 
     31 CZ          0.5000   35.0100  -12.6100 C.ar      5 PHE5        0.0000 
     32 CZ         -0.8900   34.8200  -12.0800 C.ar      5 PHE5        0.0000 
     33 CZ          2.3500   35.6200  -11.7600 C.ar      5 PHE5        0.0000 
     34 CZ          0.9600   35.4200  -11.2400 C.ar      5 PHE5        0.0000 
     35 CZ          0.6400   36.8500  -11.5600 C.ar      5 PHE5        0.0000 
     36 CZ          3.8800   37.6500  -11.2400 C.ar      5 PHE5        0.0000 
     37 CZ          2.4900   37.4600  -10.7100 C.ar      5 PHE5        0.0000 
     38 CZ          7.1500   34.3800   -8.0600 C.ar      5 PHE5        0.0000 
     39 CA         -2.2600   33.5900  -16.1900 C.3       6 GLY6        0.0000 
     40 CA         -3.6500   33.3900  -15.6700 C.3       6 GLY6        0.0000 
     41 CA         -1.4800   32.5700  -14.5000 C.3       6 GLY6        0.0000 
     42 CA         -1.8000   34.0000  -14.8200 C.3       6 GLY6        0.0000 
     43 CA         -3.2000   33.8000  -14.3000 C.3       6 GLY6        0.0000 
     44 CA         -0.7100   31.5500  -12.8100 C.3       6 GLY6        0.0000 
     45 CA         -2.1000   31.3500  -12.2900 C.3       6 GLY6        0.0000 
     46 CA          3.9300   32.5400  -13.0100 C.3       6 GLY6        0.0000 
     47 CA          2.2100   33.7800  -12.8100 C.3       6 GLY6        0.0000 
     48 CA         -0.2500   31.9600  -11.4400 C.3       6 GLY6        0.0000 
     49 CA         -1.6400   31.7600  -10.9200 C.3       6 GLY6        0.0000 
     50 CA         -1.9600   33.1900  -11.2400 C.3       6 GLY6        0.0000 
     51 CA          4.3800   32.9500  -11.6400 C.3       6 GLY6        0.0000 
     52 CA          4.0600   34.3800  -11.9600 C.3       6 GLY6        0.0000 
     53 CA          3.7400   35.8100  -12.2800 C.3       6 GLY6        0.0000 
     54 CA          5.9100   34.9900  -11.1200 C.3       6 GLY6        0.0000 
     55 CA          5.5900   36.4200  -11.4400 C.3       6 GLY6        0.0000 
     56 CA          4.5200   34.7900  -10.5900 C.3       6 GLY6        0.0000 
     57 CA          6.3700   35.4000   -9.7500 C.3       6 GLY6        0.0000 
     58 CA          4.6600   36.6300   -9.5500 C.3       6 GLY6        0.0000 
     59 DU         -3.9700   34.8200  -15.9900 H         7 CUB7        0.0000 
     60 DU         -3.5200   35.2300  -14.6200 H         7 CUB7        0.0000 
     61 DU         -1.0300   32.9800  -13.1300 H         7 CUB7        0.0000 
     62 DU         -2.7400   34.2100  -12.9300 H         7 CUB7        0.0000 
     63 DU          2.5400   32.3500  -12.4900 H         7 CUB7        0.0000 
     64 DU          1.1400   32.1500  -11.9600 H         7 CUB7        0.0000 
     65 DU          0.8200   33.5800  -12.2800 H         7 CUB7        0.0000 
     66 DU         -0.5700   33.3900  -11.7600 H         7 CUB7        0.0000 
     67 DU          4.2000   36.2200  -10.9100 H         7 CUB7        0.0000 
     68 DU          2.8100   36.0300  -10.3900 H         7 CUB7        0.0000 
     69 DU          5.1100   37.0400   -8.1800 H         7 CUB7        0.0000 
@<TRIPOS>BOND
@<TRIPOS>SUBSTRUCTURE
     1 SER1        1 GROUP   
     2 ALA2        4 GROUP   
     3 ASP3       20 GROUP   
     4 LYS4       22 GROUP   
     5 PHE5       26 GROUP   
     6 GLY6       39 GROUP   
     7 CUB7       59 GROUP   
@<TRIPOS>SET

