#    Name: 6gk4_1_ATP_CAVITY_N1_6
#    Modification time : Fri May 22 19:23:24 2020

@<TRIPOS>MOLECULE
6gk4_1_ATP_CAVITY_N1_6
   75     0     6     0     0
SMALL
NO_CHARGES


@<TRIPOS>ATOM
      1 OG         44.4600   13.7700  -66.9500 O.3       1 SER1        0.0000 
      2 OG         43.0700   13.5700  -66.4200 O.3       1 SER1        0.0000 
      3 OG         43.5300   13.9800  -65.0500 O.3       1 SER1        0.0000 
      4 OG         42.4600   12.3600  -64.2100 O.3       1 SER1        0.0000 
      5 OG         42.1400   13.7900  -64.5300 O.3       1 SER1        0.0000 
      6 OG         40.6300    7.6800  -62.2000 O.3       1 SER1        0.0000 
      7 OG         40.3100    9.1100  -62.5200 O.3       1 SER1        0.0000 
      8 OG         42.9100   12.7700  -62.8400 O.3       1 SER1        0.0000 
      9 OG         42.5900   14.2000  -63.1600 O.3       1 SER1        0.0000 
     10 OG         43.3700   13.1800  -61.4700 O.3       1 SER1        0.0000 
     11 N          45.5400   15.3900  -67.7900 N.am      2 ALA2        0.0000 
     12 N          41.0400   16.2400  -66.5400 N.am      2 ALA2        0.0000 
     13 O          41.5700    7.4600  -64.0900 O.2       2 ALA2        0.0000 
     14 N          42.8900   16.8400  -65.7000 N.am      2 ALA2        0.0000 
     15 N          41.8200   15.2200  -64.8500 N.am      2 ALA2        0.0000 
     16 N          41.4900   16.6500  -65.1700 N.am      2 ALA2        0.0000 
     17 NZ         40.4400   13.9900  -68.9600 N.4       3 LYS4        0.0000 
     18 NZ         40.9000   14.4000  -67.5900 N.4       3 LYS4        0.0000 
     19 CZ         41.7000   12.3400  -70.5300 C.ar      4 PHE5        0.0000 
     20 CZ         42.1600   12.7500  -69.1600 C.ar      4 PHE5        0.0000 
     21 CZ         40.7600   12.5600  -68.6400 C.ar      4 PHE5        0.0000 
     22 CZ         41.5400   11.5400  -66.9500 C.ar      4 PHE5        0.0000 
     23 CZ         41.2200   12.9700  -67.2700 C.ar      4 PHE5        0.0000 
     24 CZ         39.8300   12.7700  -66.7500 C.ar      4 PHE5        0.0000 
     25 CZ         42.0000   11.9500  -65.5800 C.ar      4 PHE5        0.0000 
     26 CZ         41.2500    8.8900  -64.4100 C.ar      4 PHE5        0.0000 
     27 CZ         40.9300   10.3200  -64.7300 C.ar      4 PHE5        0.0000 
     28 CZ         40.6100   11.7500  -65.0600 C.ar      4 PHE5        0.0000 
     29 CZ         39.8600    8.7000  -63.8900 C.ar      4 PHE5        0.0000 
     30 CZ         39.5400   10.1300  -64.2100 C.ar      4 PHE5        0.0000 
     31 CZ         42.3000   11.5500  -60.6300 C.ar      4 PHE5        0.0000 
     32 CZ         41.9800   12.9800  -60.9500 C.ar      4 PHE5        0.0000 
     33 CZ         42.7500   11.9600  -59.2600 C.ar      4 PHE5        0.0000 
     34 CA         43.2300   14.3800  -70.0100 C.3       5 GLY6        0.0000 
     35 CA         43.3700   16.2200  -68.9600 C.3       5 GLY6        0.0000 
     36 CA         39.5100   14.2000  -67.0700 C.3       5 GLY6        0.0000 
     37 CA         43.8200   16.6300  -67.5900 C.3       5 GLY6        0.0000 
     38 CA         42.4300   16.4300  -67.0700 C.3       5 GLY6        0.0000 
     39 CA         40.2900   13.1800  -65.3800 C.3       5 GLY6        0.0000 
     40 CA         39.9700   14.6100  -65.7000 C.3       5 GLY6        0.0000 
     41 CA         39.2100   11.5600  -64.5300 C.3       5 GLY6        0.0000 
     42 CA         44.6000   15.6100  -65.9000 C.3       5 GLY6        0.0000 
     43 CA         43.2100   15.4100  -65.3800 C.3       5 GLY6        0.0000 
     44 CA         40.7400   13.5900  -64.0100 C.3       5 GLY6        0.0000 
     45 CA         40.4200   15.0200  -64.3300 C.3       5 GLY6        0.0000 
     46 CA         39.9900   10.5400  -62.8400 C.3       5 GLY6        0.0000 
     47 CA         39.6700   11.9700  -63.1600 C.3       5 GLY6        0.0000 
     48 CA         38.9200    8.9100  -62.0000 C.3       5 GLY6        0.0000 
     49 CA         42.2700   15.6300  -63.4800 C.3       5 GLY6        0.0000 
     50 CA         40.7700    9.5200  -61.1500 C.3       5 GLY6        0.0000 
     51 CA         40.4500   10.9500  -61.4700 C.3       5 GLY6        0.0000 
     52 CA         40.1300   12.3800  -61.8000 C.3       5 GLY6        0.0000 
     53 CA         39.8100   13.8100  -62.1200 C.3       5 GLY6        0.0000 
     54 CA         43.0500   14.6100  -61.7900 C.3       5 GLY6        0.0000 
     55 CA         42.7300   16.0400  -62.1200 C.3       5 GLY6        0.0000 
     56 CA         40.9100   11.3600  -60.1100 C.3       5 GLY6        0.0000 
     57 CA         40.5900   12.7900  -60.4300 C.3       5 GLY6        0.0000 
     58 CA         43.8300   13.5900  -60.1000 C.3       5 GLY6        0.0000 
     59 DU         41.8400   14.1800  -69.4800 H         6 CUB7        0.0000 
     60 DU         45.0800   14.9800  -69.1600 H         6 CUB7        0.0000 
     61 DU         43.6900   14.7900  -68.6400 H         6 CUB7        0.0000 
     62 DU         42.6100   13.1600  -67.7900 H         6 CUB7        0.0000 
     63 DU         42.2900   14.5900  -68.1100 H         6 CUB7        0.0000 
     64 DU         41.9700   16.0200  -68.4400 H         6 CUB7        0.0000 
     65 DU         44.1400   15.2000  -67.2700 H         6 CUB7        0.0000 
     66 DU         42.7500   15.0000  -66.7500 H         6 CUB7        0.0000 
     67 DU         41.6800   13.3800  -65.9000 H         6 CUB7        0.0000 
     68 DU         41.3600   14.8100  -66.2200 H         6 CUB7        0.0000 
     69 DU         41.3800   10.7300  -63.3700 H         6 CUB7        0.0000 
     70 DU         41.0600   12.1600  -63.6900 H         6 CUB7        0.0000 
     71 DU         41.8400   11.1400  -62.0000 H         6 CUB7        0.0000 
     72 DU         41.5200   12.5700  -62.3200 H         6 CUB7        0.0000 
     73 DU         41.2000   14.0000  -62.6400 H         6 CUB7        0.0000 
     74 DU         40.8800   15.4300  -62.9600 H         6 CUB7        0.0000 
     75 DU         41.6600   14.4100  -61.2700 H         6 CUB7        0.0000 
@<TRIPOS>BOND
@<TRIPOS>SUBSTRUCTURE
     1 SER1        1 GROUP   
     2 ALA2       11 GROUP   
     3 LYS4       17 GROUP   
     4 PHE5       19 GROUP   
     5 GLY6       34 GROUP   
     6 CUB7       59 GROUP   
@<TRIPOS>SET

