#    Name: 6gk4_1_ATP_CAVITY_N1_4
#    Modification time : Fri May 22 19:23:24 2020

@<TRIPOS>MOLECULE
6gk4_1_ATP_CAVITY_N1_4
   28     0     5     0     0
SMALL
NO_CHARGES


@<TRIPOS>ATOM
      1 OG         44.4600   13.7700  -66.9500 O.3       1 SER1        0.0000 
      2 OG         43.0700   13.5700  -66.4200 O.3       1 SER1        0.0000 
      3 OG         43.5300   13.9800  -65.0500 O.3       1 SER1        0.0000 
      4 OG         42.4600   12.3600  -64.2100 O.3       1 SER1        0.0000 
      5 OG         42.1400   13.7900  -64.5300 O.3       1 SER1        0.0000 
      6 OG         40.6300    7.6800  -62.2000 O.3       1 SER1        0.0000 
      7 OG         40.3100    9.1100  -62.5200 O.3       1 SER1        0.0000 
      8 OG         42.9100   12.7700  -62.8400 O.3       1 SER1        0.0000 
      9 OG         42.5900   14.2000  -63.1600 O.3       1 SER1        0.0000 
     10 O          41.5700    7.4600  -64.0900 O.2       2 ALA2        0.0000 
     11 CZ         41.5400   11.5400  -66.9500 C.ar      3 PHE5        0.0000 
     12 CZ         41.2200   12.9700  -67.2700 C.ar      3 PHE5        0.0000 
     13 CZ         42.0000   11.9500  -65.5800 C.ar      3 PHE5        0.0000 
     14 CZ         41.2500    8.8900  -64.4100 C.ar      3 PHE5        0.0000 
     15 CZ         40.9300   10.3200  -64.7300 C.ar      3 PHE5        0.0000 
     16 CZ         40.6100   11.7500  -65.0600 C.ar      3 PHE5        0.0000 
     17 CZ         39.8600    8.7000  -63.8900 C.ar      3 PHE5        0.0000 
     18 CZ         39.5400   10.1300  -64.2100 C.ar      3 PHE5        0.0000 
     19 CA         40.2900   13.1800  -65.3800 C.3       4 GLY6        0.0000 
     20 CA         39.9900   10.5400  -62.8400 C.3       4 GLY6        0.0000 
     21 CA         38.9200    8.9100  -62.0000 C.3       4 GLY6        0.0000 
     22 CA         40.7700    9.5200  -61.1500 C.3       4 GLY6        0.0000 
     23 CA         40.4500   10.9500  -61.4700 C.3       4 GLY6        0.0000 
     24 DU         42.6100   13.1600  -67.7900 H         5 CUB7        0.0000 
     25 DU         41.6800   13.3800  -65.9000 H         5 CUB7        0.0000 
     26 DU         41.3800   10.7300  -63.3700 H         5 CUB7        0.0000 
     27 DU         41.0600   12.1600  -63.6900 H         5 CUB7        0.0000 
     28 DU         41.8400   11.1400  -62.0000 H         5 CUB7        0.0000 
@<TRIPOS>BOND
@<TRIPOS>SUBSTRUCTURE
     1 SER1        1 GROUP   
     2 ALA2       10 GROUP   
     3 PHE5       11 GROUP   
     4 GLY6       19 GROUP   
     5 CUB7       24 GROUP   
@<TRIPOS>SET

