#    Name: 6gk4_2_ATP
#    Modification time : Fri May 22 19:23:26 2020

@<TRIPOS>MOLECULE
6gk4_2_ATP
   31    33     1     0     1
SMALL
NO_CHARGES


@<TRIPOS>ATOM
      1 PG         10.2620   40.6740   -6.2200 P.3       1 ATP701      0.0000 
      2 O1G        10.1460   39.3400   -6.8590 O.co2     1 ATP701      0.0000 
      3 O2G        11.6560   41.1890   -6.2160 O.co2     1 ATP701      0.0000 
      4 O3G         9.5150   40.7820   -4.9420 O.co2     1 ATP701      0.0000 
      5 PB          9.5290   41.5330   -8.7320 P.3       1 ATP701      0.0000 
      6 O1B         9.5050   40.1120   -9.1960 O.co2     1 ATP701      0.0000 
      7 O2B        10.6710   42.4040   -9.1110 O.co2     1 ATP701      0.0000 
      8 O3B         9.4180   41.6220   -7.1580 O.3       1 ATP701      0.0000 
      9 PA          6.9230   41.4100   -9.7640 P.3       1 ATP701      0.0000 
     10 O1A         6.9910   40.9940  -11.1940 O.co2     1 ATP701      0.0000 
     11 O2A         6.6460   40.4040   -8.7230 O.co2     1 ATP701      0.0000 
     12 O3A         8.1840   42.2240   -9.2390 O.3       1 ATP701      0.0000 
     13 O5'         5.6930   42.4080   -9.6420 O.3       1 ATP701      0.0000 
     14 C5'         4.3890   41.8470   -9.8100 C.3       1 ATP701      0.0000 
     15 C4'         3.2760   42.5630   -9.0550 C.3       1 ATP701      0.0000 
     16 O4'         2.0140   42.2060   -9.5970 O.3       1 ATP701      0.0000 
     17 C3'         3.2060   42.1360   -7.6230 C.3       1 ATP701      0.0000 
     18 O3'         2.8410   43.3240   -6.9480 O.3       1 ATP701      0.0000 
     19 C2'         2.0510   41.1720   -7.5450 C.3       1 ATP701      0.0000 
     20 O2'         1.4190   41.2170   -6.2630 O.3       1 ATP701      0.0000 
     21 C1'         1.1240   41.6990   -8.6060 C.3       1 ATP701      0.0000 
     22 N9          0.2240   40.6640   -9.2060 N.pl3     1 ATP701      0.0000 
     23 C8         -1.1220   40.6860   -9.1520 C.2       1 ATP701      0.0000 
     24 N7         -1.6760   39.6230   -9.7680 N.2       1 ATP701      0.0000 
     25 C5         -0.6720   38.8830  -10.2290 C.ar      1 ATP701      0.0000 
     26 C6         -0.5690   37.6300  -10.9760 C.ar      1 ATP701      0.0000 
     27 N6         -1.6690   36.9490  -11.3440 N.pl3     1 ATP701      0.0000 
     28 N1          0.6580   37.1920  -11.2720 N.ar      1 ATP701      0.0000 
     29 C2          1.7550   37.8600  -10.8970 C.ar      1 ATP701      0.0000 
     30 N3          1.7470   39.0050  -10.2100 N.ar      1 ATP701      0.0000 
     31 C4          0.5760   39.5550   -9.8510 C.ar      1 ATP701      0.0000 
@<TRIPOS>BOND
     1    1    2 ar   
     2    1    3 ar   
     3    1    4 ar   
     4    1    8 1    
     5    5    6 ar   
     6    5    7 ar   
     7    5    8 1    
     8    5   12 1    
     9    9   10 ar   
    10    9   11 ar   
    11    9   12 1    
    12    9   13 1    
    13   13   14 1    
    14   14   15 1    
    15   15   16 1    
    16   15   17 1    
    17   16   21 1    
    18   17   18 1    
    19   17   19 1    
    20   19   20 1    
    21   19   21 1    
    22   21   22 1    
    23   22   23 1    
    24   22   31 1    
    25   23   24 2    
    26   24   25 1    
    27   25   26 ar   
    28   25   31 ar   
    29   26   27 1    
    30   26   28 ar   
    31   28   29 ar   
    32   29   30 ar   
    33   30   31 ar   
@<TRIPOS>SUBSTRUCTURE
     1 ATP701      1 GROUP   
@<TRIPOS>SET
ATOM$ORANGE STATIC     ATOMS   COLORGROUP SYSTEM 
20 14 14 15 15 17 17 19 19 21 21 23 23 25 25 26 26 29 \
29 31 31 

