#    Name: 6oh3_1_NCC
#    Modification time : Fri May 22 19:26:12 2020

@<TRIPOS>MOLECULE
6oh3_1_NCC
   41    43     1     0     0
SMALL
NO_CHARGES


@<TRIPOS>ATOM
      1 O3P       -22.7660   -9.5310   22.8330 O.co2     1 NCC401      0.0000 
      2 P         -23.5010   -9.6040   21.5160 P.3       1 NCC401      0.0000 
      3 O2P       -24.8440   -8.7040   21.5270 O.3       1 NCC401      0.0000 
      4 O1P       -22.7500   -9.2890   20.2480 O.co2     1 NCC401      0.0000 
      5 O5'       -24.2010  -11.0420   21.2990 O.3       1 NCC401      0.0000 
      6 C5'       -23.9990  -12.1800   22.1350 C.3       1 NCC401      0.0000 
      7 C4'       -25.2680  -13.0260   22.2060 C.3       1 NCC401      0.0000 
      8 O4'       -25.9220  -13.1250   20.9330 O.3       1 NCC401      0.0000 
      9 C1'       -26.2270  -14.5040   20.6970 C.3       1 NCC401      0.0000 
     10 N1        -26.3130  -14.8820   19.2810 N.am      1 NCC401      0.0000 
     11 C6        -25.5480  -14.2760   18.3570 C.2       1 NCC401      0.0000 
     12 C5        -25.6490  -14.6540   17.0200 C.2       1 NCC401      0.0000 
     13 C4        -26.5420  -15.6630   16.6570 C.2       1 NCC401      0.0000 
     14 N4        -26.6450  -16.0360   15.3690 N.pl3     1 NCC401      0.0000 
     15 N3        -27.3040  -16.2740   17.5860 N.2       1 NCC401      0.0000 
     16 C2        -27.2120  -15.9100   18.8830 C.2       1 NCC401      0.0000 
     17 O2        -27.9350  -16.4990   19.7130 O.2       1 NCC401      0.0000 
     18 C2'       -25.1120  -15.2640   21.3830 C.3       1 NCC401      0.0000 
     19 O2'       -25.4430  -16.6340   21.6270 O.3       1 NCC401      0.0000 
     20 C3'       -24.9510  -14.4510   22.6480 C.3       1 NCC401      0.0000 
     21 O3'       -25.8720  -14.8800   23.6610 O.3       1 NCC401      0.0000 
     22 C9        -24.6750   -6.4370   22.2850 C.2       1 NCC401      0.0000 
     23 O1B       -23.7640   -6.3230   21.4270 O.co2     1 NCC401      0.0000 
     24 O1A       -25.0800   -5.4480   22.9420 O.co2     1 NCC401      0.0000 
     25 C10       -25.2910   -7.8000   22.5530 C.3       1 NCC401      0.0000 
     26 O6        -24.9330   -8.2120   23.8830 O.3       1 NCC401      0.0000 
     27 C12       -25.5280   -9.4010   24.4430 C.3       1 NCC401      0.0000 
     28 C13       -24.8330   -9.5280   25.8150 C.3       1 NCC401      0.0000 
     29 O7        -23.4960   -9.9780   25.5530 O.3       1 NCC401      0.0000 
     30 C14       -25.4110  -10.4470   26.8990 C.3       1 NCC401      0.0000 
     31 O8        -24.9200   -9.9680   28.1570 O.3       1 NCC401      0.0000 
     32 C15       -25.0110  -11.9240   26.7830 C.3       1 NCC401      0.0000 
     33 O9        -25.0540  -12.3920   25.4310 O.3       1 NCC401      0.0000 
     34 C16       -27.0640   -9.3200   24.3910 C.3       1 NCC401      0.0000 
     35 N5        -27.6880  -10.5880   24.7400 N.am      1 NCC401      0.0000 
     36 C17       -28.9440  -10.7050   25.1830 C.2       1 NCC401      0.0000 
     37 O10       -29.6910   -9.7560   25.3510 O.2       1 NCC401      0.0000 
     38 C18       -29.4060  -12.1040   25.4530 C.3       1 NCC401      0.0000 
     39 C19       -27.4930   -8.9710   22.9640 C.3       1 NCC401      0.0000 
     40 O4        -28.9150   -8.8040   22.8500 O.3       1 NCC401      0.0000 
     41 C20       -26.8170   -7.6990   22.4640 C.3       1 NCC401      0.0000 
@<TRIPOS>BOND
     1    1    2 ar   
     2    2    3 1    
     3    2    4 ar   
     4    2    5 1    
     5    3   25 1    
     6    5    6 1    
     7    6    7 1    
     8    7    8 1    
     9    7   20 1    
    10    8    9 1    
    11    9   10 1    
    12    9   18 1    
    13   10   11 1    
    14   10   16 am   
    15   11   12 2    
    16   12   13 1    
    17   13   14 1    
    18   13   15 2    
    19   15   16 1    
    20   16   17 2    
    21   18   19 1    
    22   18   20 1    
    23   20   21 1    
    24   22   23 ar   
    25   22   24 ar   
    26   22   25 1    
    27   25   26 1    
    28   25   41 1    
    29   26   27 1    
    30   27   28 1    
    31   27   34 1    
    32   28   29 1    
    33   28   30 1    
    34   30   31 1    
    35   30   32 1    
    36   32   33 1    
    37   34   35 1    
    38   34   39 1    
    39   35   36 am   
    40   36   37 2    
    41   36   38 1    
    42   39   40 1    
    43   39   41 1    
@<TRIPOS>SUBSTRUCTURE
     1 NCC401      1 GROUP   
@<TRIPOS>SET

