#    Name: 6an8_2_D4T
#    Modification time : Fri May 22 19:34:22 2020

@<TRIPOS>MOLECULE
6an8_2_D4T
   28    29     1     0     0
SMALL
NO_CHARGES


@<TRIPOS>ATOM
      1 PC         18.7610  -42.1630  -11.2850 P.3       1 D4T603      0.0000 
      2 O1C        17.3820  -41.7390  -10.9000 O.co2     1 D4T603      0.0000 
      3 O2C        19.7410  -41.6250  -10.2980 O.co2     1 D4T603      0.0000 
      4 O3C        19.0800  -41.6380  -12.6490 O.co2     1 D4T603      0.0000 
      5 O7'        18.8430  -43.7270  -11.2960 O.3       1 D4T603      0.0000 
      6 PB         19.1840  -44.5780  -10.0310 P.3       1 D4T603      0.0000 
      7 O1B        19.1940  -46.0540  -10.4030 O.co2     1 D4T603      0.0000 
      8 O2B        20.5420  -44.1810   -9.5050 O.co2     1 D4T603      0.0000 
      9 O6'        18.0970  -44.3270   -8.9230 O.3       1 D4T603      0.0000 
     10 PA         18.4320  -44.1680   -7.4280 P.3       1 D4T603      0.0000 
     11 O1A        19.5550  -43.1950   -7.2720 O.co2     1 D4T603      0.0000 
     12 O2A        17.2260  -43.6590   -6.6980 O.co2     1 D4T603      0.0000 
     13 O5'        18.8650  -45.6330   -6.8110 O.3       1 D4T603      0.0000 
     14 C5'        20.2410  -45.8540   -6.4690 C.3       1 D4T603      0.0000 
     15 C4'        20.5750  -47.2900   -6.5610 C.3       1 D4T603      0.0000 
     16 O4'        19.8470  -48.0440   -5.5530 O.3       1 D4T603      0.0000 
     17 C1'        18.9950  -48.9960   -6.1750 C.3       1 D4T603      0.0000 
     18 N1         17.6170  -48.8400   -5.7170 N.am      1 D4T603      0.0000 
     19 C6         17.1520  -47.6610   -5.3570 C.2       1 D4T603      0.0000 
     20 C2         16.8010  -49.9410   -5.6620 C.2       1 D4T603      0.0000 
     21 O2         17.2370  -51.0450   -5.9980 O.2       1 D4T603      0.0000 
     22 N3         15.5050  -49.8170   -5.2360 N.am      1 D4T603      0.0000 
     23 C4         15.0330  -48.6150   -4.8700 C.2       1 D4T603      0.0000 
     24 O4         13.8520  -48.4960   -4.4800 O.2       1 D4T603      0.0000 
     25 C5         15.8350  -47.5330   -4.9230 C.2       1 D4T603      0.0000 
     26 C5A        15.2880  -46.1350   -4.5000 C.3       1 D4T603      0.0000 
     27 C2'        19.1930  -48.7880   -7.6440 C.2       1 D4T603      0.0000 
     28 C3'        20.0740  -47.8360   -7.8350 C.2       1 D4T603      0.0000 
@<TRIPOS>BOND
     1    1    2 ar   
     2    1    3 ar   
     3    1    4 ar   
     4    1    5 1    
     5    5    6 1    
     6    6    7 ar   
     7    6    8 ar   
     8    6    9 1    
     9    9   10 1    
    10   10   11 ar   
    11   10   12 ar   
    12   10   13 1    
    13   13   14 1    
    14   14   15 1    
    15   15   16 1    
    16   15   28 1    
    17   16   17 1    
    18   17   18 1    
    19   17   27 1    
    20   18   19 1    
    21   18   20 1    
    22   19   25 2    
    23   20   21 2    
    24   20   22 1    
    25   22   23 1    
    26   23   24 2    
    27   23   25 1    
    28   25   26 1    
    29   27   28 2    
@<TRIPOS>SUBSTRUCTURE
     1 D4T603      1 GROUP   
@<TRIPOS>SET

