#    Name: 6an8_2_D4T_CAVITY_N1_4
#    Modification time : Fri May 22 19:34:23 2020

@<TRIPOS>MOLECULE
6an8_2_D4T_CAVITY_N1_4
   88     0     7     0     0
SMALL
NO_CHARGES


@<TRIPOS>ATOM
      1 OG         21.2000  -48.8100   -5.2300 O.3       1 SER1        0.0000 
      2 OG         19.7900  -48.3200   -5.4500 O.3       1 SER1        0.0000 
      3 O          16.5800  -47.0000  -12.7400 O.2       2 ALA2        0.0000 
      4 N          17.7200  -50.4000   -7.0700 N.am      2 ALA2        0.0000 
      5 O          18.3200  -46.2100  -11.8200 O.2       2 ALA2        0.0000 
      6 O          17.9000  -46.8100  -10.5100 O.2       2 ALA2        0.0000 
      7 O          18.8900  -47.9000   -8.9800 O.2       2 ALA2        0.0000 
      8 N          17.6400  -49.7200   -5.0600 N.am      2 ALA2        0.0000 
      9 O          20.0600  -45.4100  -10.9000 O.2       2 ALA2        0.0000 
     10 O          19.6400  -46.0200   -9.5900 O.2       2 ALA2        0.0000 
     11 O          19.4100  -43.0300  -11.7200 O.2       2 ALA2        0.0000 
     12 N          20.8400  -38.5800  -10.9300 N.am      2 ALA2        0.0000 
     13 OD1        16.9200  -45.7200  -12.0400 O.co2     3 ASP3        0.0000 
     14 OD1        18.4700  -48.5100   -7.6800 O.co2     3 ASP3        0.0000 
     15 OD1        18.0600  -49.1200   -6.3700 O.co2     3 ASP3        0.0000 
     16 OD1        16.6600  -48.6300   -6.5900 O.co2     3 ASP3        0.0000 
     17 OD1        18.6600  -44.9200  -11.1200 O.co2     3 ASP3        0.0000 
     18 OD1        18.2400  -45.5300   -9.8100 O.co2     3 ASP3        0.0000 
     19 OD1        19.2300  -46.6200   -8.2800 O.co2     3 ASP3        0.0000 
     20 OD1        18.8100  -47.2300   -6.9700 O.co2     3 ASP3        0.0000 
     21 OD1        16.9900  -47.3500   -5.8900 O.co2     3 ASP3        0.0000 
     22 OD1        18.8400  -41.3300  -14.5600 O.co2     3 ASP3        0.0000 
     23 OD1        18.4300  -41.9400  -13.2500 O.co2     3 ASP3        0.0000 
     24 OD1        17.0300  -41.4500  -13.4700 O.co2     3 ASP3        0.0000 
     25 OD1        20.4000  -44.1300  -10.2000 O.co2     3 ASP3        0.0000 
     26 OD1        19.0000  -43.6400  -10.4200 O.co2     3 ASP3        0.0000 
     27 OD1        19.9800  -44.7300   -8.8900 O.co2     3 ASP3        0.0000 
     28 OD1        18.5800  -44.2500   -9.1100 O.co2     3 ASP3        0.0000 
     29 OD1        17.1800  -43.7600   -9.3300 O.co2     3 ASP3        0.0000 
     30 OD1        18.1600  -44.8500   -7.8000 O.co2     3 ASP3        0.0000 
     31 OD1        17.7500  -45.4600   -6.4900 O.co2     3 ASP3        0.0000 
     32 OD1        19.1800  -40.0500  -13.8600 O.co2     3 ASP3        0.0000 
     33 OD1        17.3600  -40.1700  -12.7700 O.co2     3 ASP3        0.0000 
     34 OD1        19.7500  -41.7500  -11.0200 O.co2     3 ASP3        0.0000 
     35 OD1        18.3500  -41.2600  -11.2400 O.co2     3 ASP3        0.0000 
     36 OD1        16.9500  -40.7800  -11.4600 O.co2     3 ASP3        0.0000 
     37 OD1        15.5500  -40.2900  -11.6800 O.co2     3 ASP3        0.0000 
     38 OD1        17.9300  -41.8700   -9.9400 O.co2     3 ASP3        0.0000 
     39 OD1        16.5300  -41.3800  -10.1600 O.co2     3 ASP3        0.0000 
     40 OD1        15.1300  -40.8900  -10.3800 O.co2     3 ASP3        0.0000 
     41 OD1        17.5100  -42.4800   -8.6300 O.co2     3 ASP3        0.0000 
     42 OD1        16.1100  -41.9900   -8.8500 O.co2     3 ASP3        0.0000 
     43 OD1        18.5000  -43.5700   -7.1000 O.co2     3 ASP3        0.0000 
     44 OD1        17.1000  -43.0800   -7.3200 O.co2     3 ASP3        0.0000 
     45 OD1        15.7000  -42.5900   -7.5400 O.co2     3 ASP3        0.0000 
     46 OD1        17.7000  -38.8900  -12.0700 O.co2     3 ASP3        0.0000 
     47 OD1        16.3000  -38.4000  -12.2900 O.co2     3 ASP3        0.0000 
     48 OD1        20.0900  -40.4700  -10.3200 O.co2     3 ASP3        0.0000 
     49 OD1        18.6800  -39.9800  -10.5400 O.co2     3 ASP3        0.0000 
     50 OD1        18.2700  -40.5900   -9.2300 O.co2     3 ASP3        0.0000 
     51 OD1        16.8700  -40.1000   -9.4500 O.co2     3 ASP3        0.0000 
     52 OD1        15.4700  -39.6100   -9.6700 O.co2     3 ASP3        0.0000 
     53 OD1        17.8500  -41.1900   -7.9300 O.co2     3 ASP3        0.0000 
     54 OD1        16.4500  -40.7000   -8.1500 O.co2     3 ASP3        0.0000 
     55 OD1        15.0500  -40.2200   -8.3700 O.co2     3 ASP3        0.0000 
     56 OD1        16.0300  -41.3100   -6.8400 O.co2     3 ASP3        0.0000 
     57 OD1        18.6000  -39.3000   -8.5300 O.co2     3 ASP3        0.0000 
     58 NZ         17.3400  -45.1100  -13.3500 N.4       4 LYS4        0.0000 
     59 NZ         18.0900  -43.2200  -13.9500 N.4       4 LYS4        0.0000 
     60 NZ         19.0700  -44.3200  -12.4300 N.4       4 LYS4        0.0000 
     61 NZ         19.5600  -45.3400   -7.5800 N.4       4 LYS4        0.0000 
     62 NZ         20.5500  -46.4300   -6.0500 N.4       4 LYS4        0.0000 
     63 NZ         20.4200  -39.1900   -9.6200 N.4       4 LYS4        0.0000 
     64 CZ         20.2900  -48.3900   -8.7600 C.ar      5 PHE5        0.0000 
     65 CZ         19.8700  -49.0000   -7.4600 C.ar      5 PHE5        0.0000 
     66 CZ         19.4600  -49.6000   -6.1500 C.ar      5 PHE5        0.0000 
     67 CZ         21.6100  -48.2100   -6.5300 C.ar      5 PHE5        0.0000 
     68 CZ         20.2100  -47.7200   -6.7500 C.ar      5 PHE5        0.0000 
     69 CA         17.1100  -42.1300  -15.4800 C.3       6 GLY6        0.0000 
     70 CA         20.6300  -47.1100   -8.0600 C.3       6 GLY6        0.0000 
     71 CA         18.3900  -47.8300   -5.6700 C.3       6 GLY6        0.0000 
     72 CA         19.1500  -45.9500   -6.2700 C.3       6 GLY6        0.0000 
     73 CA         20.1300  -47.0400   -4.7500 C.3       6 GLY6        0.0000 
     74 CA         18.7600  -40.6600  -12.5500 C.3       6 GLY6        0.0000 
     75 CA         14.1400  -39.8000  -11.9000 C.3       6 GLY6        0.0000 
     76 CA         13.7300  -40.4000  -10.6000 C.3       6 GLY6        0.0000 
     77 CA         14.7100  -41.5000   -9.0700 C.3       6 GLY6        0.0000 
     78 CA         19.4800  -44.6600   -5.5700 C.3       6 GLY6        0.0000 
     79 CA         18.0800  -44.1700   -5.7900 C.3       6 GLY6        0.0000 
     80 CA         20.9200  -39.2600  -12.9400 C.3       6 GLY6        0.0000 
     81 CA         19.5200  -38.7700  -13.1600 C.3       6 GLY6        0.0000 
     82 CA         20.5000  -39.8600  -11.6300 C.3       6 GLY6        0.0000 
     83 CA         19.1000  -39.3800  -11.8500 C.3       6 GLY6        0.0000 
     84 CA         19.4400  -38.0900  -11.1500 C.3       6 GLY6        0.0000 
     85 CA         19.0200  -38.7000   -9.8400 C.3       6 GLY6        0.0000 
     86 CA         17.6200  -38.2100  -10.0600 C.3       6 GLY6        0.0000 
     87 DU         17.2800  -39.4900  -10.7600 H         7 CUB7        0.0000 
     88 DU         15.8800  -39.0000  -10.9800 H         7 CUB7        0.0000 
@<TRIPOS>BOND
@<TRIPOS>SUBSTRUCTURE
     1 SER1        1 GROUP   
     2 ALA2        3 GROUP   
     3 ASP3       13 GROUP   
     4 LYS4       58 GROUP   
     5 PHE5       64 GROUP   
     6 GLY6       69 GROUP   
     7 CUB7       87 GROUP   
@<TRIPOS>SET

