#    Name: 6an8_1_D4T
#    Modification time : Fri May 22 19:34:16 2020

@<TRIPOS>MOLECULE
6an8_1_D4T
   28    29     1     0     0
SMALL
NO_CHARGES


@<TRIPOS>ATOM
      1 PC         40.4100   29.3650   32.9820 P.3       1 D4T603      0.0000 
      2 O1C        39.3900   30.2610   33.6050 O.co2     1 D4T603      0.0000 
      3 O2C        41.1460   28.6310   34.0510 O.co2     1 D4T603      0.0000 
      4 O3C        41.3730   30.1850   32.1830 O.co2     1 D4T603      0.0000 
      5 O7'        39.6980   28.3340   32.0420 O.3       1 D4T603      0.0000 
      6 PB         39.0350   27.0160   32.5570 P.3       1 D4T603      0.0000 
      7 O1B        38.4830   26.2350   31.3740 O.co2     1 D4T603      0.0000 
      8 O2B        40.0650   26.1790   33.2750 O.co2     1 D4T603      0.0000 
      9 O6'        37.8580   27.3720   33.5380 O.3       1 D4T603      0.0000 
     10 PA         37.6150   26.6500   34.8760 P.3       1 D4T603      0.0000 
     11 O1A        38.9080   26.5300   35.6160 O.co2     1 D4T603      0.0000 
     12 O2A        36.6380   27.4370   35.6970 O.co2     1 D4T603      0.0000 
     13 O5'        36.9960   25.1530   34.5770 O.3       1 D4T603      0.0000 
     14 C5'        37.8430   24.0200   34.8090 C.3       1 D4T603      0.0000 
     15 C4'        37.4200   22.8620   33.9990 C.3       1 D4T603      0.0000 
     16 O4'        36.1290   22.3810   34.4570 O.3       1 D4T603      0.0000 
     17 C1'        35.1720   22.4920   33.4140 C.3       1 D4T603      0.0000 
     18 N1         34.0180   23.2670   33.8530 N.am      1 D4T603      0.0000 
     19 C6         34.1260   24.1450   34.8300 C.2       1 D4T603      0.0000 
     20 C2         32.8110   23.0740   33.2340 C.2       1 D4T603      0.0000 
     21 O2         32.7140   22.2510   32.3210 O.2       1 D4T603      0.0000 
     22 N3         31.7140   23.7920   33.6280 N.am      1 D4T603      0.0000 
     23 C4         31.8240   24.6860   34.6230 C.2       1 D4T603      0.0000 
     24 O4         30.8260   25.3430   34.9860 O.2       1 D4T603      0.0000 
     25 C5         33.0120   24.8760   35.2320 C.2       1 D4T603      0.0000 
     26 C5A        33.1400   25.9160   36.3880 C.3       1 D4T603      0.0000 
     27 C2'        35.9170   23.0980   32.2670 C.2       1 D4T603      0.0000 
     28 C3'        37.1650   23.2960   32.6140 C.2       1 D4T603      0.0000 
@<TRIPOS>BOND
     1    1    2 ar   
     2    1    3 ar   
     3    1    4 ar   
     4    1    5 1    
     5    5    6 1    
     6    6    7 ar   
     7    6    8 ar   
     8    6    9 1    
     9    9   10 1    
    10   10   11 ar   
    11   10   12 ar   
    12   10   13 1    
    13   13   14 1    
    14   14   15 1    
    15   15   16 1    
    16   15   28 1    
    17   16   17 1    
    18   17   18 1    
    19   17   27 1    
    20   18   19 1    
    21   18   20 1    
    22   19   25 2    
    23   20   21 2    
    24   20   22 1    
    25   22   23 1    
    26   23   24 2    
    27   23   25 1    
    28   25   26 1    
    29   27   28 2    
@<TRIPOS>SUBSTRUCTURE
     1 D4T603      1 GROUP   
@<TRIPOS>SET

