#    Name: 6an8_1_D4T_CAVITY_N1_4
#    Modification time : Fri May 22 19:34:17 2020

@<TRIPOS>MOLECULE
6an8_1_D4T_CAVITY_N1_4
   87     0     7     0     0
SMALL
NO_CHARGES


@<TRIPOS>ATOM
      1 OG         39.1300   33.9800   33.6700 O.3       1 SER1        0.0000 
      2 OG         38.7100   33.3800   34.9800 O.3       1 SER1        0.0000 
      3 O          35.9400   23.7900   31.3800 O.2       2 ALA2        0.0000 
      4 N          35.1100   22.5800   33.9900 N.am      2 ALA2        0.0000 
      5 N          33.7000   23.0700   33.7700 N.am      2 ALA2        0.0000 
      6 O          37.4500   27.5700   30.1700 O.2       2 ALA2        0.0000 
      7 O          39.8300   25.9900   31.9100 O.2       2 ALA2        0.0000 
      8 O          38.4300   26.4800   31.6900 O.2       2 ALA2        0.0000 
      9 O          43.1600   29.8800   29.6100 O.2       2 ALA2        0.0000 
     10 O          41.3400   29.7600   30.7000 O.2       2 ALA2        0.0000 
     11 O          40.9200   29.1600   32.0100 O.2       2 ALA2        0.0000 
     12 OD1        34.1200   23.6800   32.4700 O.co2     3 ASP3        0.0000 
     13 OD1        36.2800   25.0800   32.0800 O.co2     3 ASP3        0.0000 
     14 OD1        35.8600   24.4700   33.3900 O.co2     3 ASP3        0.0000 
     15 OD1        34.0400   24.3500   34.4700 O.co2     3 ASP3        0.0000 
     16 OD1        39.4100   25.3800   33.2200 O.co2     3 ASP3        0.0000 
     17 OD1        38.0100   25.8700   33.0000 O.co2     3 ASP3        0.0000 
     18 OD1        36.6100   26.3600   32.7800 O.co2     3 ASP3        0.0000 
     19 OD1        36.2000   25.7500   34.0900 O.co2     3 ASP3        0.0000 
     20 OD1        34.3800   25.6400   35.1800 O.co2     3 ASP3        0.0000 
     21 OD1        39.1800   28.3600   31.0900 O.co2     3 ASP3        0.0000 
     22 OD1        40.1700   27.2700   32.6100 O.co2     3 ASP3        0.0000 
     23 OD1        38.7700   27.7600   32.3900 O.co2     3 ASP3        0.0000 
     24 OD1        37.3700   28.2500   32.1700 O.co2     3 ASP3        0.0000 
     25 OD1        38.3500   27.1500   33.7000 O.co2     3 ASP3        0.0000 
     26 OD1        37.9300   26.5500   35.0100 O.co2     3 ASP3        0.0000 
     27 OD1        36.1200   26.4300   36.1000 O.co2     3 ASP3        0.0000 
     28 OD1        39.9400   30.2500   30.4800 O.co2     3 ASP3        0.0000 
     29 OD1        40.5100   28.5500   33.3200 O.co2     3 ASP3        0.0000 
     30 OD1        39.1000   29.0400   33.1000 O.co2     3 ASP3        0.0000 
     31 OD1        38.6900   28.4400   34.4000 O.co2     3 ASP3        0.0000 
     32 OD1        37.2900   28.9200   34.1800 O.co2     3 ASP3        0.0000 
     33 OD1        38.2700   27.8300   35.7100 O.co2     3 ASP3        0.0000 
     34 OD1        36.8700   28.3200   35.4900 O.co2     3 ASP3        0.0000 
     35 OD1        42.0900   31.6500   30.0900 O.co2     3 ASP3        0.0000 
     36 OD1        40.6900   32.1400   29.8700 O.co2     3 ASP3        0.0000 
     37 OD1        40.2700   31.5300   31.1800 O.co2     3 ASP3        0.0000 
     38 OD1        39.8600   30.9300   32.4900 O.co2     3 ASP3        0.0000 
     39 OD1        42.2400   29.3500   34.2400 O.co2     3 ASP3        0.0000 
     40 OD1        40.8400   29.8300   34.0200 O.co2     3 ASP3        0.0000 
     41 OD1        39.4400   30.3200   33.8000 O.co2     3 ASP3        0.0000 
     42 OD1        37.6200   30.2100   34.8800 O.co2     3 ASP3        0.0000 
     43 OD1        35.8100   30.0900   35.9700 O.co2     3 ASP3        0.0000 
     44 OD1        43.8300   32.4500   31.0200 O.co2     3 ASP3        0.0000 
     45 OD1        42.0100   32.3300   32.1000 O.co2     3 ASP3        0.0000 
     46 OD1        40.1900   32.2100   33.1900 O.co2     3 ASP3        0.0000 
     47 OD1        38.7900   32.7000   32.9700 O.co2     3 ASP3        0.0000 
     48 OD1        38.3800   32.0900   34.2800 O.co2     3 ASP3        0.0000 
     49 OD1        42.3500   33.6100   32.8000 O.co2     3 ASP3        0.0000 
     50 NZ         37.8600   28.1800   28.8600 N.4       4 LYS4        0.0000 
     51 NZ         37.6000   25.2600   34.3100 N.4       4 LYS4        0.0000 
     52 NZ         40.3500   30.8600   29.1700 N.4       4 LYS4        0.0000 
     53 CZ         33.7800   22.3900   31.7600 C.ar      5 PHE5        0.0000 
     54 CZ         37.3400   23.3100   31.6000 C.ar      5 PHE5        0.0000 
     55 CZ         36.9200   22.7000   32.9100 C.ar      5 PHE5        0.0000 
     56 CZ         35.5200   23.1900   32.6900 C.ar      5 PHE5        0.0000 
     57 CA         38.3200   22.2100   33.1300 C.3       6 GLY6        0.0000 
     58 CA         36.5100   22.0900   34.2100 C.3       6 GLY6        0.0000 
     59 CA         37.6800   24.5900   32.3000 C.3       6 GLY6        0.0000 
     60 CA         38.6600   23.4900   33.8300 C.3       6 GLY6        0.0000 
     61 CA         37.2600   23.9800   33.6100 C.3       6 GLY6        0.0000 
     62 CA         36.8400   23.3800   34.9100 C.3       6 GLY6        0.0000 
     63 CA         35.4400   23.8700   34.6900 C.3       6 GLY6        0.0000 
     64 CA         38.8500   27.0800   30.3900 C.3       6 GLY6        0.0000 
     65 CA         37.1800   24.6600   35.6200 C.3       6 GLY6        0.0000 
     66 CA         35.7800   25.1500   35.4000 C.3       6 GLY6        0.0000 
     67 CA         37.5200   25.9400   36.3200 C.3       6 GLY6        0.0000 
     68 CA         44.8900   30.6800   30.5300 C.3       6 GLY6        0.0000 
     69 CA         43.4900   31.1600   30.3100 C.3       6 GLY6        0.0000 
     70 CA         43.0800   30.5600   31.6200 C.3       6 GLY6        0.0000 
     71 CA         42.6600   29.9500   32.9300 C.3       6 GLY6        0.0000 
     72 CA         41.2600   30.4400   32.7100 C.3       6 GLY6        0.0000 
     73 CA         36.2200   30.6900   34.6600 C.3       6 GLY6        0.0000 
     74 CA         43.4100   31.8400   32.3200 C.3       6 GLY6        0.0000 
     75 CA         40.6100   32.8200   31.8800 C.3       6 GLY6        0.0000 
     76 CA         39.2100   33.3100   31.6600 C.3       6 GLY6        0.0000 
     77 CA         43.0000   31.2300   33.6300 C.3       6 GLY6        0.0000 
     78 CA         42.5800   30.6300   34.9400 C.3       6 GLY6        0.0000 
     79 CA         41.1800   31.1200   34.7200 C.3       6 GLY6        0.0000 
     80 CA         36.5600   31.9800   35.3700 C.3       6 GLY6        0.0000 
     81 CA         43.7500   33.1200   33.0300 C.3       6 GLY6        0.0000 
     82 CA         40.9500   34.1000   32.5800 C.3       6 GLY6        0.0000 
     83 CA         43.3300   32.5200   34.3300 C.3       6 GLY6        0.0000 
     84 CA         41.9300   33.0100   34.1100 C.3       6 GLY6        0.0000 
     85 CA         40.5300   33.4900   33.8900 C.3       6 GLY6        0.0000 
     86 DU         41.6800   31.0500   31.4000 H         7 CUB7        0.0000 
     87 DU         41.6000   31.7200   33.4100 H         7 CUB7        0.0000 
@<TRIPOS>BOND
@<TRIPOS>SUBSTRUCTURE
     1 SER1        1 GROUP   
     2 ALA2        3 GROUP   
     3 ASP3       12 GROUP   
     4 LYS4       50 GROUP   
     5 PHE5       53 GROUP   
     6 GLY6       57 GROUP   
     7 CUB7       86 GROUP   
@<TRIPOS>SET

