#    Name: 6oh2_1_C5P_CAVITY_N1_6
#    Modification time : Fri May 22 19:26:08 2020

@<TRIPOS>MOLECULE
6oh2_1_C5P_CAVITY_N1_6
  103     0     6     0     0
SMALL
NO_CHARGES


@<TRIPOS>ATOM
      1 OG         14.0800  -15.8200   11.8700 O.3       1 SER1        0.0000 
      2 OG         17.0600  -16.5100   13.2400 O.3       1 SER1        0.0000 
      3 OG         16.1100  -13.8400   10.0800 O.3       1 SER1        0.0000 
      4 OG         17.2600  -14.0600   12.4000 O.3       1 SER1        0.0000 
      5 OG         16.7800  -12.7200   10.8300 O.3       1 SER1        0.0000 
      6 OG         18.8200  -11.4200    7.0400 O.3       1 SER1        0.0000 
      7 OG         19.5000  -10.9900    5.7700 O.3       1 SER1        0.0000 
      8 OG         14.2600  -12.0000   15.0500 O.3       1 SER1        0.0000 
      9 OG         20.1700   -9.1900    8.5200 O.3       1 SER1        0.0000 
     10 OG         20.8500   -8.7600    7.2600 O.3       1 SER1        0.0000 
     11 O          13.6800  -20.7300   13.5300 O.2       2 ALA2        0.0000 
     12 N          11.3600  -18.2400   14.9200 N.am      2 ALA2        0.0000 
     13 O          14.7600  -15.3900   10.6000 O.2       2 ALA2        0.0000 
     14 O          15.4400  -14.9500    9.3400 O.2       2 ALA2        0.0000 
     15 O          14.2700  -13.3700   11.0400 O.2       2 ALA2        0.0000 
     16 O          14.9500  -12.9300    9.7700 O.2       2 ALA2        0.0000 
     17 N          17.7300  -15.4000   13.9800 N.am      2 ALA2        0.0000 
     18 N          14.2600  -12.6800   13.0400 N.am      2 ALA2        0.0000 
     19 N          14.9500  -12.2500   11.7800 N.am      2 ALA2        0.0000 
     20 N          15.6300  -11.8200   10.5200 N.am      2 ALA2        0.0000 
     21 O          17.9300  -12.9400   13.1500 O.2       2 ALA2        0.0000 
     22 N          20.6500  -11.2100    8.0900 N.am      2 ALA2        0.0000 
     23 N          16.0900  -12.4700   14.1000 N.am      2 ALA2        0.0000 
     24 N          18.8200  -10.7400    9.0400 N.am      2 ALA2        0.0000 
     25 N          19.5000  -10.3100    7.7800 N.am      2 ALA2        0.0000 
     26 N          14.9400  -11.5700   13.7900 N.am      2 ALA2        0.0000 
     27 N          15.6200  -11.1400   12.5200 N.am      2 ALA2        0.0000 
     28 N          16.3000  -10.7000   11.2600 N.am      2 ALA2        0.0000 
     29 N          15.1400   -9.8000   10.9500 N.am      2 ALA2        0.0000 
     30 N          19.4900   -9.6200    9.7900 N.am      2 ALA2        0.0000 
     31 OD1        15.5300  -21.8800   10.5700 O.co2     3 ASP3        0.0000 
     32 OD1        16.2100  -21.4500    9.3100 O.co2     3 ASP3        0.0000 
     33 OD1        13.6900  -21.4100   11.5200 O.co2     3 ASP3        0.0000 
     34 OD1        15.5200  -21.2000   12.5800 O.co2     3 ASP3        0.0000 
     35 OD1        16.2000  -20.7600   11.3200 O.co2     3 ASP3        0.0000 
     36 OD1        16.8800  -20.3300   10.0500 O.co2     3 ASP3        0.0000 
     37 OD1        14.3600  -20.2900   12.2700 O.co2     3 ASP3        0.0000 
     38 OD1        16.8700  -19.6500   12.0600 O.co2     3 ASP3        0.0000 
     39 OD1        15.0300  -19.1800   13.0100 O.co2     3 ASP3        0.0000 
     40 OD1        15.7100  -18.7400   11.7500 O.co2     3 ASP3        0.0000 
     41 OD1        13.8800  -18.2700   12.7000 O.co2     3 ASP3        0.0000 
     42 OD1        16.3900  -17.6300   12.4900 O.co2     3 ASP3        0.0000 
     43 OD1        15.2300  -16.7200   12.1800 O.co2     3 ASP3        0.0000 
     44 OD1        15.9100  -16.2900   10.9200 O.co2     3 ASP3        0.0000 
     45 OD1        16.9800  -10.2700   10.0000 O.co2     3 ASP3        0.0000 
     46 OD1        18.3300   -8.7200    9.4800 O.co2     3 ASP3        0.0000 
     47 OD1        16.5000   -8.2500   10.4300 O.co2     3 ASP3        0.0000 
     48 OD1        17.1800   -7.8100    9.1600 O.co2     3 ASP3        0.0000 
     49 CZ         12.5300  -19.8200   13.2200 C.ar      4 PHE5        0.0000 
     50 CZ         13.2000  -18.7100   13.9600 C.ar      4 PHE5        0.0000 
     51 CZ         12.0400  -17.8000   13.6500 C.ar      4 PHE5        0.0000 
     52 CZ         12.7100  -16.6900   14.4000 C.ar      4 PHE5        0.0000 
     53 CZ         13.4000  -16.2500   13.1300 C.ar      4 PHE5        0.0000 
     54 CZ         14.5400  -16.4800   15.4500 C.ar      4 PHE5        0.0000 
     55 CZ         13.3900  -15.5700   15.1400 C.ar      4 PHE5        0.0000 
     56 CZ         12.2300  -14.6700   14.8300 C.ar      4 PHE5        0.0000 
     57 CZ         15.6300  -12.5000    8.5100 C.ar      4 PHE5        0.0000 
     58 CZ         14.7400  -14.0200   14.6200 C.ar      4 PHE5        0.0000 
     59 CZ         13.5800  -13.1200   14.3100 C.ar      4 PHE5        0.0000 
     60 CZ         16.3100  -11.3800    9.2500 C.ar      4 PHE5        0.0000 
     61 CZ         15.8900  -14.2400   16.9400 C.ar      4 PHE5        0.0000 
     62 CZ         15.4100  -12.9100   15.3700 C.ar      4 PHE5        0.0000 
     63 CZ         17.6600   -9.8300    8.7300 C.ar      4 PHE5        0.0000 
     64 CZ         18.3400   -9.4000    7.4700 C.ar      4 PHE5        0.0000 
     65 CZ         19.0200   -8.9700    6.2000 C.ar      4 PHE5        0.0000 
     66 CZ         15.8200   -9.3600    9.6800 C.ar      4 PHE5        0.0000 
     67 CZ         16.5000   -8.9300    8.4200 C.ar      4 PHE5        0.0000 
     68 CZ         19.0100   -8.2900    8.2100 C.ar      4 PHE5        0.0000 
     69 CZ         17.8600   -7.3800    7.9000 C.ar      4 PHE5        0.0000 
     70 CA         14.3800  -21.6600    8.2500 C.3       5 GLY6        0.0000 
     71 CA         18.0300  -20.5500   12.3700 C.3       5 GLY6        0.0000 
     72 CA         16.1900  -20.0800   13.3200 C.3       5 GLY6        0.0000 
     73 CA         16.8600  -18.9700   14.0700 C.3       5 GLY6        0.0000 
     74 CA         15.0300  -18.5000   15.0200 C.3       5 GLY6        0.0000 
     75 CA         18.2100  -17.4200   13.5500 C.3       5 GLY6        0.0000 
     76 CA         16.7900  -13.4000    8.8200 C.3       5 GLY6        0.0000 
     77 CA         19.9800  -12.3200    7.3500 C.3       5 GLY6        0.0000 
     78 CA         17.4600  -12.2900    9.5600 C.3       5 GLY6        0.0000 
     79 CA         18.1400  -11.8500    8.3000 C.3       5 GLY6        0.0000 
     80 CA         16.5700  -13.8100   15.6800 C.3       5 GLY6        0.0000 
     81 CA         17.2500  -13.3800   14.4100 C.3       5 GLY6        0.0000 
     82 CA         21.3300  -10.7800    6.8300 C.3       5 GLY6        0.0000 
     83 CA         16.7700  -12.0400   12.8400 C.3       5 GLY6        0.0000 
     84 CA         17.4500  -11.6100   11.5700 C.3       5 GLY6        0.0000 
     85 CA         18.1300  -11.1700   10.3100 C.3       5 GLY6        0.0000 
     86 CA         16.0200   -6.9100    8.8500 C.3       5 GLY6        0.0000 
     87 DU         14.3500  -19.6100   14.2800 H         6 CUB7        0.0000 
     88 DU         17.5400  -18.5300   12.8000 H         6 CUB7        0.0000 
     89 DU         15.7100  -18.0600   13.7600 H         6 CUB7        0.0000 
     90 DU         13.8700  -17.5900   14.7100 H         6 CUB7        0.0000 
     91 DU         14.5500  -17.1600   13.4400 H         6 CUB7        0.0000 
     92 DU         16.3800  -16.9500   14.5000 H         6 CUB7        0.0000 
     93 DU         15.2200  -16.0400   14.1900 H         6 CUB7        0.0000 
     94 DU         15.9000  -15.6100   12.9200 H         6 CUB7        0.0000 
     95 DU         14.0700  -15.1400   13.8800 H         6 CUB7        0.0000 
     96 DU         14.7500  -14.7000   12.6100 H         6 CUB7        0.0000 
     97 DU         15.4300  -14.2700   11.3500 H         6 CUB7        0.0000 
     98 DU         17.0500  -15.8300   15.2500 H         6 CUB7        0.0000 
     99 DU         15.8900  -14.9300   14.9300 H         6 CUB7        0.0000 
    100 DU         16.5800  -14.4900   13.6700 H         6 CUB7        0.0000 
    101 DU         15.4200  -13.5900   13.3600 H         6 CUB7        0.0000 
    102 DU         16.1000  -13.1500   12.0900 H         6 CUB7        0.0000 
    103 DU         20.1800   -9.8700    6.5200 H         6 CUB7        0.0000 
@<TRIPOS>BOND
@<TRIPOS>SUBSTRUCTURE
     1 SER1        1 GROUP   
     2 ALA2       11 GROUP   
     3 ASP3       31 GROUP   
     4 PHE5       49 GROUP   
     5 GLY6       70 GROUP   
     6 CUB7       87 GROUP   
@<TRIPOS>SET

