#    Name: 6oh2_1_C5P
#    Modification time : Fri May 22 19:26:07 2020

@<TRIPOS>MOLECULE
6oh2_1_C5P
   21    22     1     0     0
SMALL
NO_CHARGES


@<TRIPOS>ATOM
      1 O3P        15.8720  -16.4120    8.6770 O.co2     1 C5P401      0.0000 
      2 P          14.6060  -15.6450    8.9990 P.3       1 C5P401      0.0000 
      3 O1P        13.9310  -14.9020    7.8590 O.co2     1 C5P401      0.0000 
      4 O2P        13.6410  -16.3850    9.8850 O.co2     1 C5P401      0.0000 
      5 O5'        15.1550  -14.4790    9.9460 O.3       1 C5P401      0.0000 
      6 C5'        15.9460  -13.4550    9.3800 C.3       1 C5P401      0.0000 
      7 C4'        16.3430  -12.5110   10.4890 C.3       1 C5P401      0.0000 
      8 O4'        17.6480  -12.0380   10.1870 O.3       1 C5P401      0.0000 
      9 C3'        15.4500  -11.2860   10.5850 C.3       1 C5P401      0.0000 
     10 O3'        15.3010  -10.9490   11.9680 O.3       1 C5P401      0.0000 
     11 C2'        16.2130  -10.2140    9.8310 C.3       1 C5P401      0.0000 
     12 O2'        15.9480   -8.9050   10.3290 O.3       1 C5P401      0.0000 
     13 C1'        17.6440  -10.6110   10.1020 C.3       1 C5P401      0.0000 
     14 N1         18.6300  -10.2170    9.0920 N.am      1 C5P401      0.0000 
     15 C2         19.5910   -9.2250    9.4000 C.2       1 C5P401      0.0000 
     16 N3         20.5180   -8.8770    8.4920 N.2       1 C5P401      0.0000 
     17 C4         20.5540   -9.4710    7.2850 C.2       1 C5P401      0.0000 
     18 C5         19.6280  -10.4640    6.9560 C.2       1 C5P401      0.0000 
     19 C6         18.6650  -10.8290    7.8920 C.2       1 C5P401      0.0000 
     20 O2         19.6000   -8.6410   10.4990 O.2       1 C5P401      0.0000 
     21 N4         21.4980   -9.0900    6.4030 N.pl3     1 C5P401      0.0000 
@<TRIPOS>BOND
     1    1    2 ar   
     2    2    3 ar   
     3    2    4 ar   
     4    2    5 1    
     5    5    6 1    
     6    6    7 1    
     7    7    8 1    
     8    7    9 1    
     9    8   13 1    
    10    9   10 1    
    11    9   11 1    
    12   11   12 1    
    13   11   13 1    
    14   13   14 1    
    15   14   15 am   
    16   14   19 1    
    17   15   16 1    
    18   15   20 2    
    19   16   17 2    
    20   17   18 1    
    21   17   21 1    
    22   18   19 2    
@<TRIPOS>SUBSTRUCTURE
     1 C5P401      1 GROUP   
@<TRIPOS>SET

