#    Name: 6oh2_1_C5P_CAVITY_N1_4
#    Modification time : Fri May 22 19:26:08 2020

@<TRIPOS>MOLECULE
6oh2_1_C5P_CAVITY_N1_4
   65     0     6     0     0
SMALL
NO_CHARGES


@<TRIPOS>ATOM
      1 OG         14.0800  -15.8200   11.8700 O.3       1 SER1        0.0000 
      2 OG         16.1100  -13.8400   10.0800 O.3       1 SER1        0.0000 
      3 OG         17.2600  -14.0600   12.4000 O.3       1 SER1        0.0000 
      4 OG         16.7800  -12.7200   10.8300 O.3       1 SER1        0.0000 
      5 OG         18.8200  -11.4200    7.0400 O.3       1 SER1        0.0000 
      6 OG         19.5000  -10.9900    5.7700 O.3       1 SER1        0.0000 
      7 OG         14.2600  -12.0000   15.0500 O.3       1 SER1        0.0000 
      8 OG         20.1700   -9.1900    8.5200 O.3       1 SER1        0.0000 
      9 OG         20.8500   -8.7600    7.2600 O.3       1 SER1        0.0000 
     10 O          14.7600  -15.3900   10.6000 O.2       2 ALA2        0.0000 
     11 O          15.4400  -14.9500    9.3400 O.2       2 ALA2        0.0000 
     12 O          14.2700  -13.3700   11.0400 O.2       2 ALA2        0.0000 
     13 O          14.9500  -12.9300    9.7700 O.2       2 ALA2        0.0000 
     14 N          14.2600  -12.6800   13.0400 N.am      2 ALA2        0.0000 
     15 N          14.9500  -12.2500   11.7800 N.am      2 ALA2        0.0000 
     16 N          15.6300  -11.8200   10.5200 N.am      2 ALA2        0.0000 
     17 O          17.9300  -12.9400   13.1500 O.2       2 ALA2        0.0000 
     18 N          20.6500  -11.2100    8.0900 N.am      2 ALA2        0.0000 
     19 N          16.0900  -12.4700   14.1000 N.am      2 ALA2        0.0000 
     20 N          18.8200  -10.7400    9.0400 N.am      2 ALA2        0.0000 
     21 N          19.5000  -10.3100    7.7800 N.am      2 ALA2        0.0000 
     22 N          14.9400  -11.5700   13.7900 N.am      2 ALA2        0.0000 
     23 N          15.6200  -11.1400   12.5200 N.am      2 ALA2        0.0000 
     24 N          16.3000  -10.7000   11.2600 N.am      2 ALA2        0.0000 
     25 N          15.1400   -9.8000   10.9500 N.am      2 ALA2        0.0000 
     26 N          19.4900   -9.6200    9.7900 N.am      2 ALA2        0.0000 
     27 OD1        15.7100  -18.7400   11.7500 O.co2     3 ASP3        0.0000 
     28 OD1        13.8800  -18.2700   12.7000 O.co2     3 ASP3        0.0000 
     29 OD1        16.3900  -17.6300   12.4900 O.co2     3 ASP3        0.0000 
     30 OD1        15.2300  -16.7200   12.1800 O.co2     3 ASP3        0.0000 
     31 OD1        15.9100  -16.2900   10.9200 O.co2     3 ASP3        0.0000 
     32 OD1        16.9800  -10.2700   10.0000 O.co2     3 ASP3        0.0000 
     33 OD1        18.3300   -8.7200    9.4800 O.co2     3 ASP3        0.0000 
     34 OD1        16.5000   -8.2500   10.4300 O.co2     3 ASP3        0.0000 
     35 OD1        17.1800   -7.8100    9.1600 O.co2     3 ASP3        0.0000 
     36 CZ         13.4000  -16.2500   13.1300 C.ar      4 PHE5        0.0000 
     37 CZ         15.6300  -12.5000    8.5100 C.ar      4 PHE5        0.0000 
     38 CZ         13.5800  -13.1200   14.3100 C.ar      4 PHE5        0.0000 
     39 CZ         16.3100  -11.3800    9.2500 C.ar      4 PHE5        0.0000 
     40 CZ         15.4100  -12.9100   15.3700 C.ar      4 PHE5        0.0000 
     41 CZ         17.6600   -9.8300    8.7300 C.ar      4 PHE5        0.0000 
     42 CZ         18.3400   -9.4000    7.4700 C.ar      4 PHE5        0.0000 
     43 CZ         19.0200   -8.9700    6.2000 C.ar      4 PHE5        0.0000 
     44 CZ         15.8200   -9.3600    9.6800 C.ar      4 PHE5        0.0000 
     45 CZ         16.5000   -8.9300    8.4200 C.ar      4 PHE5        0.0000 
     46 CZ         19.0100   -8.2900    8.2100 C.ar      4 PHE5        0.0000 
     47 CZ         17.8600   -7.3800    7.9000 C.ar      4 PHE5        0.0000 
     48 CA         16.7900  -13.4000    8.8200 C.3       5 GLY6        0.0000 
     49 CA         19.9800  -12.3200    7.3500 C.3       5 GLY6        0.0000 
     50 CA         17.4600  -12.2900    9.5600 C.3       5 GLY6        0.0000 
     51 CA         18.1400  -11.8500    8.3000 C.3       5 GLY6        0.0000 
     52 CA         17.2500  -13.3800   14.4100 C.3       5 GLY6        0.0000 
     53 CA         21.3300  -10.7800    6.8300 C.3       5 GLY6        0.0000 
     54 CA         16.7700  -12.0400   12.8400 C.3       5 GLY6        0.0000 
     55 CA         17.4500  -11.6100   11.5700 C.3       5 GLY6        0.0000 
     56 CA         18.1300  -11.1700   10.3100 C.3       5 GLY6        0.0000 
     57 CA         16.0200   -6.9100    8.8500 C.3       5 GLY6        0.0000 
     58 DU         14.5500  -17.1600   13.4400 H         6 CUB7        0.0000 
     59 DU         15.9000  -15.6100   12.9200 H         6 CUB7        0.0000 
     60 DU         14.7500  -14.7000   12.6100 H         6 CUB7        0.0000 
     61 DU         15.4300  -14.2700   11.3500 H         6 CUB7        0.0000 
     62 DU         16.5800  -14.4900   13.6700 H         6 CUB7        0.0000 
     63 DU         15.4200  -13.5900   13.3600 H         6 CUB7        0.0000 
     64 DU         16.1000  -13.1500   12.0900 H         6 CUB7        0.0000 
     65 DU         20.1800   -9.8700    6.5200 H         6 CUB7        0.0000 
@<TRIPOS>BOND
@<TRIPOS>SUBSTRUCTURE
     1 SER1        1 GROUP   
     2 ALA2       10 GROUP   
     3 ASP3       27 GROUP   
     4 PHE5       36 GROUP   
     5 GLY6       48 GROUP   
     6 CUB7       58 GROUP   
@<TRIPOS>SET

