#    Name: 6pff_2_MTX
#    Modification time : Fri May 22 19:35:30 2020

@<TRIPOS>MOLECULE
6pff_2_MTX
   33    35     1     0     0
SMALL
NO_CHARGES


@<TRIPOS>ATOM
      1 N1        -57.7570  -67.5400   83.7470 N.ar      1 MTX604      0.0000 
      2 C2        -56.4850  -67.8120   84.0760 C.ar      1 MTX604      0.0000 
      3 NA2       -55.6830  -66.7700   84.6640 N.pl3     1 MTX604      0.0000 
      4 N3        -55.9370  -69.0200   83.8780 N.ar      1 MTX604      0.0000 
      5 C4        -56.6610  -70.0170   83.3290 C.ar      1 MTX604      0.0000 
      6 NA4       -56.1070  -71.3130   83.1050 N.pl3     1 MTX604      0.0000 
      7 C4A       -58.0020  -69.7780   82.9660 C.ar      1 MTX604      0.0000 
      8 N5        -58.7620  -70.7650   82.4120 N.ar      1 MTX604      0.0000 
      9 C6        -60.0390  -70.4910   82.0860 C.ar      1 MTX604      0.0000 
     10 C7        -60.6010  -69.2280   82.2870 C.ar      1 MTX604      0.0000 
     11 N8        -59.8370  -68.2620   82.8440 N.ar      1 MTX604      0.0000 
     12 C8A       -58.5320  -68.5210   83.1880 C.ar      1 MTX604      0.0000 
     13 C9        -60.8430  -71.5980   81.4650 C.3       1 MTX604      0.0000 
     14 N10       -60.2720  -71.9720   80.1920 N.pl3     1 MTX604      0.0000 
     15 CM        -59.6020  -73.2360   80.0410 C.3       1 MTX604      0.0000 
     16 C11       -60.3420  -69.2650   76.9420 C.ar      1 MTX604      0.0000 
     17 C12       -61.4370  -69.3380   77.8010 C.ar      1 MTX604      0.0000 
     18 C13       -61.4220  -70.2270   78.8760 C.ar      1 MTX604      0.0000 
     19 C14       -60.3150  -71.0420   79.0790 C.ar      1 MTX604      0.0000 
     20 C15       -59.2220  -70.9660   78.2250 C.ar      1 MTX604      0.0000 
     21 C16       -59.2390  -70.0770   77.1570 C.ar      1 MTX604      0.0000 
     22 C         -60.3030  -68.3130   75.7750 C.2       1 MTX604      0.0000 
     23 O         -61.3270  -67.9950   75.1970 O.2       1 MTX604      0.0000 
     24 N         -59.0210  -67.7900   75.3520 N.am      1 MTX604      0.0000 
     25 CA        -58.8690  -66.8750   74.2550 C.3       1 MTX604      0.0000 
     26 CT        -57.4620  -66.9870   73.8180 C.2       1 MTX604      0.0000 
     27 O1        -56.6730  -67.7140   74.4780 O.co2     1 MTX604      0.0000 
     28 O2        -57.0510  -66.3590   72.7960 O.co2     1 MTX604      0.0000 
     29 CB        -59.0830  -65.4920   74.7680 C.3       1 MTX604      0.0000 
     30 CG        -59.3390  -64.3640   73.8140 C.3       1 MTX604      0.0000 
     31 CD        -59.4350  -62.9910   74.4020 C.2       1 MTX604      0.0000 
     32 OE1       -58.7530  -62.0770   73.8850 O.co2     1 MTX604      0.0000 
     33 OE2       -60.4660  -62.6740   75.0540 O.co2     1 MTX604      0.0000 
@<TRIPOS>BOND
     1    1    2 ar   
     2    1   12 ar   
     3    2    3 1    
     4    2    4 ar   
     5    4    5 ar   
     6    5    6 1    
     7    5    7 ar   
     8    7    8 ar   
     9    7   12 ar   
    10    8    9 ar   
    11    9   10 ar   
    12    9   13 1    
    13   10   11 ar   
    14   11   12 ar   
    15   13   14 1    
    16   14   15 1    
    17   14   19 1    
    18   16   17 ar   
    19   16   21 ar   
    20   16   22 1    
    21   17   18 ar   
    22   18   19 ar   
    23   19   20 ar   
    24   20   21 ar   
    25   22   23 2    
    26   22   24 am   
    27   24   25 1    
    28   25   26 1    
    29   25   29 1    
    30   26   27 ar   
    31   26   28 ar   
    32   29   30 1    
    33   30   31 1    
    34   31   32 ar   
    35   31   33 ar   
@<TRIPOS>SUBSTRUCTURE
     1 MTX604      1 GROUP   
@<TRIPOS>SET

