#    Name: 6pff_1_MTX
#    Modification time : Fri May 22 19:35:25 2020

@<TRIPOS>MOLECULE
6pff_1_MTX
   33    35     1     0     0
SMALL
NO_CHARGES


@<TRIPOS>ATOM
      1 N1         -5.3980  -44.0980   95.3470 N.ar      1 MTX604      0.0000 
      2 C2         -6.1710  -44.8310   94.5250 C.ar      1 MTX604      0.0000 
      3 NA2        -7.5980  -44.6450   94.5630 N.pl3     1 MTX604      0.0000 
      4 N3         -5.6570  -45.7300   93.6720 N.ar      1 MTX604      0.0000 
      5 C4         -4.3230  -45.9260   93.6150 C.ar      1 MTX604      0.0000 
      6 NA4        -3.7450  -46.8750   92.7180 N.pl3     1 MTX604      0.0000 
      7 C4A        -3.4770  -45.1780   94.4590 C.ar      1 MTX604      0.0000 
      8 N5         -2.1290  -45.3510   94.4250 N.ar      1 MTX604      0.0000 
      9 C6         -1.3590  -44.6080   95.2390 C.ar      1 MTX604      0.0000 
     10 C7         -1.8930  -43.6800   96.1370 C.ar      1 MTX604      0.0000 
     11 N8         -3.2350  -43.5190   96.1580 N.ar      1 MTX604      0.0000 
     12 C8A        -4.0390  -44.2610   95.3250 C.ar      1 MTX604      0.0000 
     13 C9          0.1180  -44.8520   95.1680 C.3       1 MTX604      0.0000 
     14 N10         0.3920  -46.1980   95.6030 N.pl3     1 MTX604      0.0000 
     15 CM          0.8060  -47.2070   94.6650 C.3       1 MTX604      0.0000 
     16 C11        -0.2530  -47.2520   99.6340 C.ar      1 MTX604      0.0000 
     17 C12         0.2240  -45.9800   99.3280 C.ar      1 MTX604      0.0000 
     18 C13         0.4420  -45.6280   97.9980 C.ar      1 MTX604      0.0000 
     19 C14         0.1720  -46.5480   96.9910 C.ar      1 MTX604      0.0000 
     20 C15        -0.3060  -47.8150   97.2970 C.ar      1 MTX604      0.0000 
     21 C16        -0.5210  -48.1630   98.6230 C.ar      1 MTX604      0.0000 
     22 C          -0.5140  -47.6900  101.0480 C.2       1 MTX604      0.0000 
     23 O           0.1410  -47.2340  101.9700 O.2       1 MTX604      0.0000 
     24 N          -1.5540  -48.6690  101.2730 N.am      1 MTX604      0.0000 
     25 CA         -1.8960  -49.1670  102.5750 C.3       1 MTX604      0.0000 
     26 CT         -2.5460  -50.4770  102.3500 C.2       1 MTX604      0.0000 
     27 O1         -2.9060  -50.7870  101.1820 O.co2     1 MTX604      0.0000 
     28 O2         -2.7360  -51.2840  103.3110 O.co2     1 MTX604      0.0000 
     29 CB         -2.8980  -48.2320  103.1530 C.3       1 MTX604      0.0000 
     30 CG         -3.3460  -48.3710  104.5740 C.3       1 MTX604      0.0000 
     31 CD         -4.4370  -47.4400  104.9940 C.2       1 MTX604      0.0000 
     32 OE1        -5.4430  -47.9080  105.5740 O.co2     1 MTX604      0.0000 
     33 OE2        -4.2050  -46.2040  105.0610 O.co2     1 MTX604      0.0000 
@<TRIPOS>BOND
     1    1    2 ar   
     2    1   12 ar   
     3    2    3 1    
     4    2    4 ar   
     5    4    5 ar   
     6    5    6 1    
     7    5    7 ar   
     8    7    8 ar   
     9    7   12 ar   
    10    8    9 ar   
    11    9   10 ar   
    12    9   13 1    
    13   10   11 ar   
    14   11   12 ar   
    15   13   14 1    
    16   14   15 1    
    17   14   19 1    
    18   16   17 ar   
    19   16   21 ar   
    20   16   22 1    
    21   17   18 ar   
    22   18   19 ar   
    23   19   20 ar   
    24   20   21 ar   
    25   22   23 2    
    26   22   24 am   
    27   24   25 1    
    28   25   26 1    
    29   25   29 1    
    30   26   27 ar   
    31   26   28 ar   
    32   29   30 1    
    33   30   31 1    
    34   31   32 ar   
    35   31   33 ar   
@<TRIPOS>SUBSTRUCTURE
     1 MTX604      1 GROUP   
@<TRIPOS>SET

