#    Name: 6pff_4_MTX
#    Modification time : Fri May 22 19:35:40 2020

@<TRIPOS>MOLECULE
6pff_4_MTX
   33    35     1     0     0
SMALL
NO_CHARGES


@<TRIPOS>ATOM
      1 N1        -80.0950  -78.6870   25.9770 N.ar      1 MTX604      0.0000 
      2 C2        -78.9760  -78.1260   26.4690 C.ar      1 MTX604      0.0000 
      3 NA2       -78.9940  -77.6000   27.8100 N.pl3     1 MTX604      0.0000 
      4 N3        -77.8450  -78.0430   25.7490 N.ar      1 MTX604      0.0000 
      5 C4        -77.7990  -78.5280   24.4890 C.ar      1 MTX604      0.0000 
      6 NA4       -76.6080  -78.4500   23.7050 N.pl3     1 MTX604      0.0000 
      7 C4A       -78.9500  -79.1250   23.9300 C.ar      1 MTX604      0.0000 
      8 N5        -78.9440  -79.6280   22.6610 N.ar      1 MTX604      0.0000 
      9 C6        -80.0680  -80.1940   22.1780 C.ar      1 MTX604      0.0000 
     10 C7        -81.2400  -80.2660   22.9350 C.ar      1 MTX604      0.0000 
     11 N8        -81.2280  -79.7680   24.1890 N.ar      1 MTX604      0.0000 
     12 C8A       -80.0930  -79.1930   24.7030 C.ar      1 MTX604      0.0000 
     13 C9        -80.0460  -80.7330   20.7710 C.3       1 MTX604      0.0000 
     14 N10       -79.8410  -79.6820   19.8000 N.pl3     1 MTX604      0.0000 
     15 CM        -78.5930  -79.6040   19.0900 C.3       1 MTX604      0.0000 
     16 C11       -82.8360  -76.7390   19.1850 C.ar      1 MTX604      0.0000 
     17 C12       -83.2000  -78.0680   19.3990 C.ar      1 MTX604      0.0000 
     18 C13       -82.2160  -79.0360   19.6030 C.ar      1 MTX604      0.0000 
     19 C14       -80.8730  -78.6810   19.5800 C.ar      1 MTX604      0.0000 
     20 C15       -80.5090  -77.3550   19.3720 C.ar      1 MTX604      0.0000 
     21 C16       -81.4920  -76.3900   19.1720 C.ar      1 MTX604      0.0000 
     22 C         -83.8690  -75.6580   18.9710 C.2       1 MTX604      0.0000 
     23 O         -84.9360  -75.9240   18.4430 O.2       1 MTX604      0.0000 
     24 N         -83.5820  -74.3030   19.3970 N.am      1 MTX604      0.0000 
     25 CA        -84.5140  -73.2190   19.2240 C.3       1 MTX604      0.0000 
     26 CT        -83.7310  -71.9650   19.1790 C.2       1 MTX604      0.0000 
     27 O1        -82.4940  -71.9980   19.4120 O.co2     1 MTX604      0.0000 
     28 O2        -84.3040  -70.8630   18.9160 O.co2     1 MTX604      0.0000 
     29 CB        -85.4120  -73.1130   20.4110 C.3       1 MTX604      0.0000 
     30 CG        -86.8700  -73.4400   20.2800 C.3       1 MTX604      0.0000 
     31 CD        -87.7250  -73.1780   21.4800 C.2       1 MTX604      0.0000 
     32 OE1       -87.8680  -71.9970   21.8710 O.co2     1 MTX604      0.0000 
     33 OE2       -88.5370  -74.0550   21.8770 O.co2     1 MTX604      0.0000 
@<TRIPOS>BOND
     1    1    2 ar   
     2    1   12 ar   
     3    2    3 1    
     4    2    4 ar   
     5    4    5 ar   
     6    5    6 1    
     7    5    7 ar   
     8    7    8 ar   
     9    7   12 ar   
    10    8    9 ar   
    11    9   10 ar   
    12    9   13 1    
    13   10   11 ar   
    14   11   12 ar   
    15   13   14 1    
    16   14   15 1    
    17   14   19 1    
    18   16   17 ar   
    19   16   21 ar   
    20   16   22 1    
    21   17   18 ar   
    22   18   19 ar   
    23   19   20 ar   
    24   20   21 ar   
    25   22   23 2    
    26   22   24 am   
    27   24   25 1    
    28   25   26 1    
    29   25   29 1    
    30   26   27 ar   
    31   26   28 ar   
    32   29   30 1    
    33   30   31 1    
    34   31   32 ar   
    35   31   33 ar   
@<TRIPOS>SUBSTRUCTURE
     1 MTX604      1 GROUP   
@<TRIPOS>SET

