#    Name: 6pff_3_MTX
#    Modification time : Fri May 22 19:35:35 2020

@<TRIPOS>MOLECULE
6pff_3_MTX
   33    35     1     0     0
SMALL
NO_CHARGES


@<TRIPOS>ATOM
      1 N1        -61.6250  -40.6920   66.2680 N.ar      1 MTX604      0.0000 
      2 C2        -61.7100  -40.8100   64.9320 C.ar      1 MTX604      0.0000 
      3 NA2       -62.6010  -41.7980   64.3790 N.pl3     1 MTX604      0.0000 
      4 N3        -60.9940  -40.0370   64.1000 N.ar      1 MTX604      0.0000 
      5 C4        -60.1510  -39.1010   64.5870 C.ar      1 MTX604      0.0000 
      6 NA4       -59.3830  -38.2710   63.7150 N.pl3     1 MTX604      0.0000 
      7 C4A       -60.0270  -38.9420   65.9860 C.ar      1 MTX604      0.0000 
      8 N5        -59.1900  -38.0090   66.5220 N.ar      1 MTX604      0.0000 
      9 C6        -59.1100  -37.8940   67.8640 C.ar      1 MTX604      0.0000 
     10 C7        -59.8570  -38.7070   68.7210 C.ar      1 MTX604      0.0000 
     11 N8        -60.6850  -39.6240   68.1730 N.ar      1 MTX604      0.0000 
     12 C8A       -60.7820  -39.7560   66.8090 C.ar      1 MTX604      0.0000 
     13 C9        -58.1710  -36.8560   68.4210 C.3       1 MTX604      0.0000 
     14 N10       -56.7990  -37.1460   68.0770 N.pl3     1 MTX604      0.0000 
     15 CM        -56.1130  -36.3230   67.1190 C.3       1 MTX604      0.0000 
     16 C11       -54.8470  -40.5100   69.7250 C.ar      1 MTX604      0.0000 
     17 C12       -55.7010  -39.7500   70.5200 C.ar      1 MTX604      0.0000 
     18 C13       -56.3490  -38.6430   69.9790 C.ar      1 MTX604      0.0000 
     19 C14       -56.1260  -38.2940   68.6530 C.ar      1 MTX604      0.0000 
     20 C15       -55.2770  -39.0540   67.8580 C.ar      1 MTX604      0.0000 
     21 C16       -54.6370  -40.1620   68.3990 C.ar      1 MTX604      0.0000 
     22 C         -54.1340  -41.7200   70.2680 C.2       1 MTX604      0.0000 
     23 O         -53.8120  -41.7700   71.4430 O.2       1 MTX604      0.0000 
     24 N         -53.8260  -42.8100   69.3710 N.am      1 MTX604      0.0000 
     25 CA        -53.1520  -44.0010   69.8020 C.3       1 MTX604      0.0000 
     26 CT        -52.7530  -44.7090   68.5660 C.2       1 MTX604      0.0000 
     27 O1        -53.3610  -44.4500   67.4950 O.co2     1 MTX604      0.0000 
     28 O2        -51.8020  -45.5510   68.5700 O.co2     1 MTX604      0.0000 
     29 CB        -54.1280  -44.8290   70.5700 C.3       1 MTX604      0.0000 
     30 CG        -54.0960  -46.3280   70.5200 C.3       1 MTX604      0.0000 
     31 CD        -55.1950  -47.0300   71.2520 C.2       1 MTX604      0.0000 
     32 OE1       -55.0590  -48.2500   71.5070 O.co2     1 MTX604      0.0000 
     33 OE2       -55.9820  -46.3470   71.9590 O.co2     1 MTX604      0.0000 
@<TRIPOS>BOND
     1    1    2 ar   
     2    1   12 ar   
     3    2    3 1    
     4    2    4 ar   
     5    4    5 ar   
     6    5    6 1    
     7    5    7 ar   
     8    7    8 ar   
     9    7   12 ar   
    10    8    9 ar   
    11    9   10 ar   
    12    9   13 1    
    13   10   11 ar   
    14   11   12 ar   
    15   13   14 1    
    16   14   15 1    
    17   14   19 1    
    18   16   17 ar   
    19   16   21 ar   
    20   16   22 1    
    21   17   18 ar   
    22   18   19 ar   
    23   19   20 ar   
    24   20   21 ar   
    25   22   23 2    
    26   22   24 am   
    27   24   25 1    
    28   25   26 1    
    29   25   29 1    
    30   26   27 ar   
    31   26   28 ar   
    32   29   30 1    
    33   30   31 1    
    34   31   32 ar   
    35   31   33 ar   
@<TRIPOS>SUBSTRUCTURE
     1 MTX604      1 GROUP   
@<TRIPOS>SET

