#    Name: 6pff_5_MTX
#    Modification time : Fri May 22 19:35:45 2020

@<TRIPOS>MOLECULE
6pff_5_MTX
   33    35     1     0     0
SMALL
NO_CHARGES


@<TRIPOS>ATOM
      1 N1       -107.7750  -62.1960   29.7190 N.ar      1 MTX604      0.0000 
      2 C2       -108.1700  -61.6380   28.5620 C.ar      1 MTX604      0.0000 
      3 NA2      -108.2200  -62.4590   27.3820 N.pl3     1 MTX604      0.0000 
      4 N3       -108.5190  -60.3440   28.4690 N.ar      1 MTX604      0.0000 
      5 C4       -108.4820  -59.5470   29.5580 C.ar      1 MTX604      0.0000 
      6 NA4      -108.8500  -58.1690   29.4790 N.pl3     1 MTX604      0.0000 
      7 C4A      -108.0720  -60.0890   30.7990 C.ar      1 MTX604      0.0000 
      8 N5       -108.0200  -59.3230   31.9260 N.ar      1 MTX604      0.0000 
      9 C6       -107.6310  -59.8950   33.0830 C.ar      1 MTX604      0.0000 
     10 C7       -107.2600  -61.2400   33.1630 C.ar      1 MTX604      0.0000 
     11 N8       -107.3200  -61.9850   32.0390 N.ar      1 MTX604      0.0000 
     12 C8A      -107.7220  -61.4260   30.8510 C.ar      1 MTX604      0.0000 
     13 C9       -107.5630  -59.0320   34.3120 C.3       1 MTX604      0.0000 
     14 N10      -106.5590  -58.0090   34.1390 N.pl3     1 MTX604      0.0000 
     15 CM       -106.9350  -56.6260   34.0010 C.3       1 MTX604      0.0000 
     16 C11      -102.4890  -59.0950   33.8370 C.ar      1 MTX604      0.0000 
     17 C12      -103.3310  -59.8160   34.6800 C.ar      1 MTX604      0.0000 
     18 C13      -104.6720  -59.4580   34.7870 C.ar      1 MTX604      0.0000 
     19 C14      -105.1630  -58.3930   34.0410 C.ar      1 MTX604      0.0000 
     20 C15      -104.3220  -57.6760   33.1980 C.ar      1 MTX604      0.0000 
     21 C16      -102.9840  -58.0330   33.0960 C.ar      1 MTX604      0.0000 
     22 C        -101.0350  -59.4430   33.6810 C.2       1 MTX604      0.0000 
     23 O        -100.4180  -59.9610   34.5980 O.2       1 MTX604      0.0000 
     24 N        -100.3810  -59.1550   32.4260 N.am      1 MTX604      0.0000 
     25 CA        -98.9950  -59.4620   32.2150 C.3       1 MTX604      0.0000 
     26 CT        -98.4850  -58.5010   31.2120 C.2       1 MTX604      0.0000 
     27 O1        -97.2750  -58.1590   31.2270 O.co2     1 MTX604      0.0000 
     28 O2        -99.2770  -58.0130   30.3480 O.co2     1 MTX604      0.0000 
     29 CB        -98.9100  -60.8400   31.6570 C.3       1 MTX604      0.0000 
     30 CG        -97.7960  -61.7480   32.0820 C.3       1 MTX604      0.0000 
     31 CD        -97.7300  -63.0750   31.3970 C.2       1 MTX604      0.0000 
     32 OE1       -96.6350  -63.4350   30.9100 O.co2     1 MTX604      0.0000 
     33 OE2       -98.5570  -63.9660   31.7270 O.co2     1 MTX604      0.0000 
@<TRIPOS>BOND
     1    1    2 ar   
     2    1   12 ar   
     3    2    3 1    
     4    2    4 ar   
     5    4    5 ar   
     6    5    6 1    
     7    5    7 ar   
     8    7    8 ar   
     9    7   12 ar   
    10    8    9 ar   
    11    9   10 ar   
    12    9   13 1    
    13   10   11 ar   
    14   11   12 ar   
    15   13   14 1    
    16   14   15 1    
    17   14   19 1    
    18   16   17 ar   
    19   16   21 ar   
    20   16   22 1    
    21   17   18 ar   
    22   18   19 ar   
    23   19   20 ar   
    24   20   21 ar   
    25   22   23 2    
    26   22   24 am   
    27   24   25 1    
    28   25   26 1    
    29   25   29 1    
    30   26   27 ar   
    31   26   28 ar   
    32   29   30 1    
    33   30   31 1    
    34   31   32 ar   
    35   31   33 ar   
@<TRIPOS>SUBSTRUCTURE
     1 MTX604      1 GROUP   
@<TRIPOS>SET

