#    Name: 6pff_5_NDP
#    Modification time : Fri May 22 19:35:54 2020

@<TRIPOS>MOLECULE
6pff_5_NDP
   48    52     1     0     1
SMALL
NO_CHARGES


@<TRIPOS>ATOM
      1 PA        -72.1620  -86.2200   17.0200 P.3       1 NDP601      0.0000 
      2 O1A       -70.9840  -86.1210   17.9670 O.co2     1 NDP601      0.0000 
      3 O2A       -73.1140  -85.0840   17.2680 O.co2     1 NDP601      0.0000 
      4 O5B       -71.6620  -86.1150   15.5740 O.3       1 NDP601      0.0000 
      5 C5B       -70.6750  -86.9900   15.1000 C.3       1 NDP601      0.0000 
      6 C4B       -70.0860  -86.6880   13.7860 C.3       1 NDP601      0.0000 
      7 O4B       -69.2590  -85.5460   13.8580 O.3       1 NDP601      0.0000 
      8 C3B       -69.2010  -87.7540   13.3140 C.3       1 NDP601      0.0000 
      9 O3B       -69.9100  -88.7890   12.7260 O.3       1 NDP601      0.0000 
     10 C2B       -68.3800  -87.0490   12.3600 C.3       1 NDP601      0.0000 
     11 O2B       -69.0930  -86.7950   11.1810 O.3       1 NDP601      0.0000 
     12 C1B       -68.1380  -85.7770   13.0210 C.3       1 NDP601      0.0000 
     13 N9A       -66.9400  -85.8140   13.7900 N.pl3     1 NDP601      0.0000 
     14 C8A       -66.8450  -86.1030   15.1120 C.2       1 NDP601      0.0000 
     15 N7A       -65.5550  -86.0330   15.4970 N.2       1 NDP601      0.0000 
     16 C5A       -64.7980  -85.6840   14.4030 C.ar      1 NDP601      0.0000 
     17 C6A       -63.4160  -85.4590   14.1830 C.ar      1 NDP601      0.0000 
     18 N6A       -62.4620  -85.6030   15.3110 N.pl3     1 NDP601      0.0000 
     19 N1A       -62.9650  -85.1140   12.9460 N.ar      1 NDP601      0.0000 
     20 C2A       -63.8590  -84.9910   11.9290 C.ar      1 NDP601      0.0000 
     21 N3A       -65.1710  -85.1900   12.0860 N.ar      1 NDP601      0.0000 
     22 C4A       -65.6780  -85.5420   13.3250 C.ar      1 NDP601      0.0000 
     23 O3        -72.9280  -87.6060   17.2140 O.3       1 NDP601      0.0000 
     24 PN        -73.4630  -88.1040   18.6280 P.3       1 NDP601      0.0000 
     25 O1N       -73.9710  -89.5510   18.5250 O.co2     1 NDP601      0.0000 
     26 O2N       -72.3360  -88.0510   19.6380 O.co2     1 NDP601      0.0000 
     27 O5D       -74.6900  -87.1510   19.0970 O.3       1 NDP601      0.0000 
     28 C5D       -76.0090  -87.4890   18.7530 C.3       1 NDP601      0.0000 
     29 C4D       -76.9520  -87.7160   19.8370 C.3       1 NDP601      0.0000 
     30 O4D       -76.6420  -86.8490   20.9270 O.3       1 NDP601      0.0000 
     31 C3D       -78.3290  -87.4020   19.4340 C.3       1 NDP601      0.0000 
     32 O3D       -79.2120  -88.2640   20.0760 O.3       1 NDP601      0.0000 
     33 C2D       -78.5350  -86.0760   19.9110 C.3       1 NDP601      0.0000 
     34 O2D       -79.8920  -85.8420   20.1360 O.3       1 NDP601      0.0000 
     35 C1D       -77.7690  -86.0760   21.1740 C.3       1 NDP601      0.0000 
     36 N1N       -77.4260  -84.7440   21.5760 N.pl3     1 NDP601      0.0000 
     37 C2N       -77.7500  -84.3520   22.8200 C.2       1 NDP601      0.0000 
     38 C3N       -77.4380  -83.0630   23.2720 C.2       1 NDP601      0.0000 
     39 C7N       -77.8280  -82.6690   24.6860 C.2       1 NDP601      0.0000 
     40 O7N       -77.4750  -81.5640   25.1270 O.2       1 NDP601      0.0000 
     41 N7N       -78.5970  -83.5510   25.5180 N.am      1 NDP601      0.0000 
     42 C4N       -76.7750  -82.1630   22.4180 C.3       1 NDP601      0.0000 
     43 C5N       -76.4500  -82.6050   21.1290 C.2       1 NDP601      0.0000 
     44 C6N       -76.7790  -83.8950   20.7180 C.2       1 NDP601      0.0000 
     45 P2B       -68.7930  -87.5570    9.8500 P.3       1 NDP601      0.0000 
     46 O1X       -69.0420  -89.0630   10.0650 O.co2     1 NDP601      0.0000 
     47 O2X       -69.6890  -87.0480    8.7990 O.co2     1 NDP601      0.0000 
     48 O3X       -67.3790  -87.3320    9.4170 O.co2     1 NDP601      0.0000 
@<TRIPOS>BOND
     1    1    2 ar   
     2    1    3 ar   
     3    1    4 1    
     4    1   23 1    
     5    4    5 1    
     6    5    6 1    
     7    6    7 1    
     8    6    8 1    
     9    7   12 1    
    10    8    9 1    
    11    8   10 1    
    12   10   11 1    
    13   10   12 1    
    14   11   45 1    
    15   12   13 1    
    16   13   14 1    
    17   13   22 1    
    18   14   15 2    
    19   15   16 1    
    20   16   17 ar   
    21   16   22 ar   
    22   17   18 1    
    23   17   19 ar   
    24   19   20 ar   
    25   20   21 ar   
    26   21   22 ar   
    27   23   24 1    
    28   24   25 ar   
    29   24   26 ar   
    30   24   27 1    
    31   27   28 1    
    32   28   29 1    
    33   29   30 1    
    34   29   31 1    
    35   30   35 1    
    36   31   32 1    
    37   31   33 1    
    38   33   34 1    
    39   33   35 1    
    40   35   36 1    
    41   36   37 1    
    42   36   44 1    
    43   37   38 2    
    44   38   39 1    
    45   38   42 1    
    46   39   40 2    
    47   39   41 am   
    48   42   43 1    
    49   43   44 2    
    50   45   46 ar   
    51   45   47 ar   
    52   45   48 ar   
@<TRIPOS>SUBSTRUCTURE
     1 NDP601      1 GROUP   
@<TRIPOS>SET
ATOM$ORANGE STATIC     ATOMS   COLORGROUP SYSTEM 
42 5 5 6 6 8 8 10 10 12 12 14 14 16 16 17 17 20 \
20 22 22 28 28 29 29 31 31 33 33 35 35 37 37 38 38 39 \
39 42 42 43 43 44 44 

