#    Name: 6pff_6_NDP
#    Modification time : Fri May 22 19:35:49 2020

@<TRIPOS>MOLECULE
6pff_6_NDP
   48    52     1     0     1
SMALL
NO_CHARGES


@<TRIPOS>ATOM
      1 PA          6.0800  -45.0060   87.3120 P.3       1 NDP601      0.0000 
      2 O1A         5.2100  -45.3590   86.1240 O.co2     1 NDP601      0.0000 
      3 O2A         5.3800  -45.3730   88.5870 O.co2     1 NDP601      0.0000 
      4 O5B         7.3710  -45.8300   87.2490 O.3       1 NDP601      0.0000 
      5 C5B         8.2020  -45.7720   86.1230 C.3       1 NDP601      0.0000 
      6 C4B         9.2760  -46.7730   86.0510 C.3       1 NDP601      0.0000 
      7 O4B         8.7220  -48.0390   85.7590 O.3       1 NDP601      0.0000 
      8 C3B        10.2210  -46.5090   84.9640 C.3       1 NDP601      0.0000 
      9 O3B        11.2330  -45.6540   85.3660 O.3       1 NDP601      0.0000 
     10 C2B        10.7280  -47.8280   84.6780 C.3       1 NDP601      0.0000 
     11 O2B        11.6280  -48.2320   85.6670 O.3       1 NDP601      0.0000 
     12 C1B         9.5570  -48.6730   84.8060 C.3       1 NDP601      0.0000 
     13 N9A         8.8940  -48.8210   83.5560 N.pl3     1 NDP601      0.0000 
     14 C8A         7.8190  -48.1150   83.1280 C.2       1 NDP601      0.0000 
     15 N7A         7.4670  -48.5390   81.8990 N.2       1 NDP601      0.0000 
     16 C5A         8.3310  -49.5440   81.5280 C.ar      1 NDP601      0.0000 
     17 C6A         8.4670  -50.3620   80.3790 C.ar      1 NDP601      0.0000 
     18 N6A         7.5200  -50.1900   79.2480 N.pl3     1 NDP601      0.0000 
     19 N1A         9.4550  -51.2970   80.3150 N.ar      1 NDP601      0.0000 
     20 C2A        10.3070  -51.4310   81.3660 C.ar      1 NDP601      0.0000 
     21 N3A        10.2190  -50.6840   82.4710 N.ar      1 NDP601      0.0000 
     22 C4A         9.2310  -49.7220   82.5810 C.ar      1 NDP601      0.0000 
     23 O3          6.4340  -43.4470   87.3330 O.3       1 NDP601      0.0000 
     24 PN          5.3560  -42.3070   87.0480 P.3       1 NDP601      0.0000 
     25 O1N         6.0290  -40.9300   86.9420 O.co2     1 NDP601      0.0000 
     26 O2N         4.6550  -42.5980   85.7380 O.co2     1 NDP601      0.0000 
     27 O5D         4.2890  -42.2950   88.2690 O.3       1 NDP601      0.0000 
     28 C5D         4.6780  -41.9120   89.5620 C.3       1 NDP601      0.0000 
     29 C4D         3.9870  -40.7740   90.1440 C.3       1 NDP601      0.0000 
     30 O4D         2.5800  -40.9930   90.0660 O.3       1 NDP601      0.0000 
     31 C3D         4.2960  -40.6330   91.5700 C.3       1 NDP601      0.0000 
     32 O3D         4.1660  -39.2990   91.9400 O.3       1 NDP601      0.0000 
     33 C2D         3.2790  -41.3960   92.2080 C.3       1 NDP601      0.0000 
     34 O2D         3.0910  -40.9620   93.5210 O.3       1 NDP601      0.0000 
     35 C1D         2.0980  -41.1140   91.3640 C.3       1 NDP601      0.0000 
     36 N1N         1.1230  -42.1580   91.4900 N.pl3     1 NDP601      0.0000 
     37 C2N        -0.1680  -41.8200   91.6730 C.2       1 NDP601      0.0000 
     38 C3N        -1.1620  -42.8040   91.8010 C.2       1 NDP601      0.0000 
     39 C7N        -2.6080  -42.3830   92.0080 C.2       1 NDP601      0.0000 
     40 O7N        -3.4930  -43.2530   92.0220 O.2       1 NDP601      0.0000 
     41 N7N        -2.9780  -41.0070   92.1940 N.am      1 NDP601      0.0000 
     42 C4N        -0.8070  -44.1650   91.7410 C.3       1 NDP601      0.0000 
     43 C5N         0.5440  -44.4810   91.5520 C.2       1 NDP601      0.0000 
     44 C6N         1.5010  -43.4740   91.4270 C.2       1 NDP601      0.0000 
     45 P2B        13.1590  -48.2870   85.3940 P.3       1 NDP601      0.0000 
     46 O1X        13.6400  -46.8630   85.0500 O.co2     1 NDP601      0.0000 
     47 O2X        13.8350  -48.7920   86.6000 O.co2     1 NDP601      0.0000 
     48 O3X        13.4560  -49.2190   84.2630 O.co2     1 NDP601      0.0000 
@<TRIPOS>BOND
     1    1    2 ar   
     2    1    3 ar   
     3    1    4 1    
     4    1   23 1    
     5    4    5 1    
     6    5    6 1    
     7    6    7 1    
     8    6    8 1    
     9    7   12 1    
    10    8    9 1    
    11    8   10 1    
    12   10   11 1    
    13   10   12 1    
    14   11   45 1    
    15   12   13 1    
    16   13   14 1    
    17   13   22 1    
    18   14   15 2    
    19   15   16 1    
    20   16   17 ar   
    21   16   22 ar   
    22   17   18 1    
    23   17   19 ar   
    24   19   20 ar   
    25   20   21 ar   
    26   21   22 ar   
    27   23   24 1    
    28   24   25 ar   
    29   24   26 ar   
    30   24   27 1    
    31   27   28 1    
    32   28   29 1    
    33   29   30 1    
    34   29   31 1    
    35   30   35 1    
    36   31   32 1    
    37   31   33 1    
    38   33   34 1    
    39   33   35 1    
    40   35   36 1    
    41   36   37 1    
    42   36   44 1    
    43   37   38 2    
    44   38   39 1    
    45   38   42 1    
    46   39   40 2    
    47   39   41 am   
    48   42   43 1    
    49   43   44 2    
    50   45   46 ar   
    51   45   47 ar   
    52   45   48 ar   
@<TRIPOS>SUBSTRUCTURE
     1 NDP601      1 GROUP   
@<TRIPOS>SET
ATOM$ORANGE STATIC     ATOMS   COLORGROUP SYSTEM 
42 5 5 6 6 8 8 10 10 12 12 14 14 16 16 17 17 20 \
20 22 22 28 28 29 29 31 31 33 33 35 35 37 37 38 38 39 \
39 42 42 43 43 44 44 

