#    Name: 6gvs_4_NAP
#    Modification time : Fri May 22 19:24:34 2020

@<TRIPOS>MOLECULE
6gvs_4_NAP
   38    40     1     0     1
SMALL
NO_CHARGES


@<TRIPOS>ATOM
      1 PA          1.7750  121.9530  102.8220 P.3       1 NAP601      0.0000 
      2 O1A         2.5340  121.9560  101.5540 O.co2     1 NAP601      0.0000 
      3 O2A         0.6280  122.8680  102.7280 O.co2     1 NAP601      0.0000 
      4 O5B         2.7140  122.5040  103.9990 O.3       1 NAP601      0.0000 
      5 C5B         3.7950  121.7470  104.4030 C.3       1 NAP601      0.0000 
      6 C4B         3.9040  121.9780  105.9210 C.3       1 NAP601      0.0000 
      7 O4B         4.2110  123.2170  106.1750 O.3       1 NAP601      0.0000 
      8 C3B         2.5130  121.8430  106.5430 C.3       1 NAP601      0.0000 
      9 O3B         2.1910  120.5490  106.7300 O.3       1 NAP601      0.0000 
     10 C2B         2.7290  122.5500  107.8740 C.3       1 NAP601      0.0000 
     11 O2B         3.4490  121.6290  108.7730 O.3       1 NAP601      0.0000 
     12 C1B         3.4930  123.5610  107.5710 C.3       1 NAP601      0.0000 
     13 O3          1.1230  120.5640  103.1920 O.3       1 NAP601      0.0000 
     14 PN          1.7680  119.3120  102.5380 P.3       1 NAP601      0.0000 
     15 O1N         1.7290  118.2300  103.5150 O.co2     1 NAP601      0.0000 
     16 O2N         3.1700  119.6050  102.2360 O.co2     1 NAP601      0.0000 
     17 O5D         0.9370  118.9690  101.2180 O.3       1 NAP601      0.0000 
     18 C5D         0.8350  120.0080  100.3260 C.3       1 NAP601      0.0000 
     19 C4D         1.4060  119.6960   98.9320 C.3       1 NAP601      0.0000 
     20 O4D         1.7310  118.4630   98.7680 O.3       1 NAP601      0.0000 
     21 C3D         0.3270  119.9280   97.8830 C.3       1 NAP601      0.0000 
     22 O3D         0.7080  120.9720   97.1410 O.3       1 NAP601      0.0000 
     23 C2D         0.3390  118.6340   97.0810 C.3       1 NAP601      0.0000 
     24 O2D         0.0160  118.9060   95.6740 O.3       1 NAP601      0.0000 
     25 C1D         1.5490  118.2380   97.2110 C.3       1 NAP601      0.0000 
     26 N1N         1.6070  116.8420   97.0480 N.pl3     1 NAP601      0.0000 
     27 C2N         2.2860  116.2690   96.0660 C.ar      1 NAP601      0.0000 
     28 C3N         2.2870  114.9000   95.9690 C.ar      1 NAP601      0.0000 
     29 C7N         3.0470  114.2310   94.8580 C.2       1 NAP601      0.0000 
     30 O7N         3.2610  113.0990   94.8900 O.2       1 NAP601      0.0000 
     31 N7N         3.4860  115.0300   93.7680 N.am      1 NAP601      0.0000 
     32 C4N         1.6180  114.1390   96.8440 C.ar      1 NAP601      0.0000 
     33 C5N         0.9540  114.7200   97.8300 C.ar      1 NAP601      0.0000 
     34 C6N         0.9570  116.0870   97.9190 C.ar      1 NAP601      0.0000 
     35 P2B         4.1500  122.2480  110.0900 P.3       1 NAP601      0.0000 
     36 O1X         3.6600  121.4840  111.2470 O.co2     1 NAP601      0.0000 
     37 O2X         3.8010  123.6870  110.2550 O.co2     1 NAP601      0.0000 
     38 O3X         5.6220  122.0520  110.0130 O.co2     1 NAP601      0.0000 
@<TRIPOS>BOND
     1    1    2 ar   
     2    1    3 ar   
     3    1    4 1    
     4    1   13 1    
     5    4    5 1    
     6    5    6 1    
     7    6    7 1    
     8    6    8 1    
     9    7   12 1    
    10    8    9 1    
    11    8   10 1    
    12   10   11 1    
    13   10   12 1    
    14   11   35 1    
    15   13   14 1    
    16   14   15 ar   
    17   14   16 ar   
    18   14   17 1    
    19   17   18 1    
    20   18   19 1    
    21   19   20 1    
    22   19   21 1    
    23   20   25 1    
    24   21   22 1    
    25   21   23 1    
    26   23   24 1    
    27   23   25 1    
    28   25   26 1    
    29   26   27 ar   
    30   26   34 ar   
    31   27   28 ar   
    32   28   29 1    
    33   28   32 ar   
    34   29   30 2    
    35   29   31 am   
    36   32   33 ar   
    37   33   34 ar   
    38   35   36 ar   
    39   35   37 ar   
    40   35   38 ar   
@<TRIPOS>SUBSTRUCTURE
     1 NAP601      1 GROUP   
@<TRIPOS>SET
ATOM$ORANGE STATIC     ATOMS   COLORGROUP SYSTEM 
32 5 5 6 6 8 8 10 10 12 12 18 18 19 19 21 21 23 \
23 25 25 27 27 28 28 29 29 32 32 33 33 34 34 

