#    Name: 6gvs_3_NAP
#    Modification time : Fri May 22 19:24:25 2020

@<TRIPOS>MOLECULE
6gvs_3_NAP
   48    52     1     0     1
SMALL
NO_CHARGES


@<TRIPOS>ATOM
      1 PA         38.0600  120.3120   84.9830 P.3       1 NAP601      0.0000 
      2 O1A        36.9700  120.0960   85.9770 O.co2     1 NAP601      0.0000 
      3 O2A        39.2750  119.4640   85.1150 O.co2     1 NAP601      0.0000 
      4 O5B        38.6080  121.7890   85.2030 O.3       1 NAP601      0.0000 
      5 C5B        39.2800  122.2600   84.1140 C.3       1 NAP601      0.0000 
      6 C4B        38.4540  123.4510   83.6000 C.3       1 NAP601      0.0000 
      7 O4B        38.1120  124.2950   84.5420 O.3       1 NAP601      0.0000 
      8 C3B        39.4070  124.1810   82.6810 C.3       1 NAP601      0.0000 
      9 O3B        38.8590  124.1060   81.4490 O.3       1 NAP601      0.0000 
     10 C2B        39.4870  125.5910   83.2810 C.3       1 NAP601      0.0000 
     11 O2B        38.4020  126.3790   82.6890 O.3       1 NAP601      0.0000 
     12 C1B        39.2070  125.4640   84.5400 C.3       1 NAP601      0.0000 
     13 N9A        40.3200  125.0530   85.3530 N.pl3     1 NAP601      0.0000 
     14 C8A        40.3920  124.3170   86.4460 C.2       1 NAP601      0.0000 
     15 N7A        41.6540  124.2140   86.8130 N.2       1 NAP601      0.0000 
     16 C5A        42.3710  124.9030   85.9450 C.ar      1 NAP601      0.0000 
     17 C6A        43.7140  125.1250   85.8740 C.ar      1 NAP601      0.0000 
     18 N6A        44.7340  124.6450   86.7760 N.pl3     1 NAP601      0.0000 
     19 N1A        44.2190  125.8520   84.9100 N.ar      1 NAP601      0.0000 
     20 C2A        43.4010  126.3860   83.9830 C.ar      1 NAP601      0.0000 
     21 N3A        42.0700  126.1640   84.0650 N.ar      1 NAP601      0.0000 
     22 C4A        41.5580  125.4200   85.0470 C.ar      1 NAP601      0.0000 
     23 O3         37.4700  120.1540   83.4920 O.3       1 NAP601      0.0000 
     24 PN         37.6990  118.7880   82.7390 P.3       1 NAP601      0.0000 
     25 O1N        37.1620  118.8780   81.3900 O.co2     1 NAP601      0.0000 
     26 O2N        39.1200  118.6240   82.7110 O.co2     1 NAP601      0.0000 
     27 O5D        37.1130  117.6120   83.5940 O.3       1 NAP601      0.0000 
     28 C5D        37.9550  116.6030   83.9400 C.3       1 NAP601      0.0000 
     29 C4D        37.3390  115.9470   85.1780 C.3       1 NAP601      0.0000 
     30 O4D        36.1710  115.5180   84.8640 O.3       1 NAP601      0.0000 
     31 C3D        38.1070  114.7080   85.5870 C.3       1 NAP601      0.0000 
     32 O3D        38.1460  114.6990   86.9210 O.3       1 NAP601      0.0000 
     33 C2D        37.2660  113.5590   85.0650 C.3       1 NAP601      0.0000 
     34 O2D        37.5140  112.3660   85.8910 O.3       1 NAP601      0.0000 
     35 C1D        36.0630  113.9760   85.1970 C.3       1 NAP601      0.0000 
     36 N1N        35.2790  113.4940   84.1280 N.pl3     1 NAP601      0.0000 
     37 C2N        34.2210  112.7180   84.3180 C.ar      1 NAP601      0.0000 
     38 C3N        33.5210  112.2720   83.2310 C.ar      1 NAP601      0.0000 
     39 C7N        32.3030  111.4080   83.3860 C.2       1 NAP601      0.0000 
     40 O7N        31.6500  111.1980   82.4580 O.2       1 NAP601      0.0000 
     41 N7N        31.9560  110.8800   84.6580 N.am      1 NAP601      0.0000 
     42 C4N        33.8790  112.6060   81.9990 C.ar      1 NAP601      0.0000 
     43 C5N        34.9370  113.3900   81.8210 C.ar      1 NAP601      0.0000 
     44 C6N        35.6320  113.8380   82.9040 C.ar      1 NAP601      0.0000 
     45 P2B        38.8550  127.3660   81.5070 P.3       1 NAP601      0.0000 
     46 O1X        40.1760  127.8870   81.9340 O.co2     1 NAP601      0.0000 
     47 O2X        37.8130  128.4270   81.4580 O.co2     1 NAP601      0.0000 
     48 O3X        38.9430  126.6850   80.1880 O.co2     1 NAP601      0.0000 
@<TRIPOS>BOND
     1    1    2 ar   
     2    1    3 ar   
     3    1    4 1    
     4    1   23 1    
     5    4    5 1    
     6    5    6 1    
     7    6    7 1    
     8    6    8 1    
     9    7   12 1    
    10    8    9 1    
    11    8   10 1    
    12   10   11 1    
    13   10   12 1    
    14   11   45 1    
    15   12   13 1    
    16   13   14 1    
    17   13   22 1    
    18   14   15 2    
    19   15   16 1    
    20   16   17 ar   
    21   16   22 ar   
    22   17   18 1    
    23   17   19 ar   
    24   19   20 ar   
    25   20   21 ar   
    26   21   22 ar   
    27   23   24 1    
    28   24   25 ar   
    29   24   26 ar   
    30   24   27 1    
    31   27   28 1    
    32   28   29 1    
    33   29   30 1    
    34   29   31 1    
    35   30   35 1    
    36   31   32 1    
    37   31   33 1    
    38   33   34 1    
    39   33   35 1    
    40   35   36 1    
    41   36   37 ar   
    42   36   44 ar   
    43   37   38 ar   
    44   38   39 1    
    45   38   42 ar   
    46   39   40 2    
    47   39   41 am   
    48   42   43 ar   
    49   43   44 ar   
    50   45   46 ar   
    51   45   47 ar   
    52   45   48 ar   
@<TRIPOS>SUBSTRUCTURE
     1 NAP601      1 GROUP   
@<TRIPOS>SET
ATOM$ORANGE STATIC     ATOMS   COLORGROUP SYSTEM 
42 5 5 6 6 8 8 10 10 12 12 14 14 16 16 17 17 20 \
20 22 22 28 28 29 29 31 31 33 33 35 35 37 37 38 38 39 \
39 42 42 43 43 44 44 

