#    Name: 6gvs_9_NAP
#    Modification time : Fri May 22 19:25:22 2020

@<TRIPOS>MOLECULE
6gvs_9_NAP
   48    52     1     0     1
SMALL
NO_CHARGES


@<TRIPOS>ATOM
      1 PA         10.6980   62.9900   32.2350 P.3       1 NAP601      0.0000 
      2 O1A        11.7290   63.0410   33.2470 O.co2     1 NAP601      0.0000 
      3 O2A        10.3040   61.6030   32.1960 O.co2     1 NAP601      0.0000 
      4 O5B         9.4490   63.8650   32.6570 O.3       1 NAP601      0.0000 
      5 C5B         8.4990   64.2370   31.7280 C.3       1 NAP601      0.0000 
      6 C4B         7.1000   64.2110   32.3850 C.3       1 NAP601      0.0000 
      7 O4B         6.9490   63.0800   32.9670 O.3       1 NAP601      0.0000 
      8 C3B         6.9630   65.2070   33.5240 C.3       1 NAP601      0.0000 
      9 O3B         5.7130   65.6980   33.5850 O.3       1 NAP601      0.0000 
     10 C2B         7.1770   64.3080   34.7210 C.3       1 NAP601      0.0000 
     11 O2B         6.7800   65.0650   35.9040 O.3       1 NAP601      0.0000 
     12 C1B         6.4430   63.3010   34.4500 C.3       1 NAP601      0.0000 
     13 N9A         6.9340   62.1270   35.0850 N.pl3     1 NAP601      0.0000 
     14 C8A         8.1370   61.6180   35.2260 C.2       1 NAP601      0.0000 
     15 N7A         8.0590   60.4800   35.9000 N.2       1 NAP601      0.0000 
     16 C5A         6.7910   60.2740   36.1730 C.ar      1 NAP601      0.0000 
     17 C6A         6.1510   59.2710   36.8310 C.ar      1 NAP601      0.0000 
     18 N6A         6.6890   58.0910   37.4530 N.pl3     1 NAP601      0.0000 
     19 N1A         4.8630   59.3020   36.9720 N.ar      1 NAP601      0.0000 
     20 C2A         4.1780   60.3110   36.4700 C.ar      1 NAP601      0.0000 
     21 N3A         4.8020   61.2970   35.8260 N.ar      1 NAP601      0.0000 
     22 C4A         6.1020   61.2820   35.6740 C.ar      1 NAP601      0.0000 
     23 O3         11.3190   63.4930   30.8590 O.3       1 NAP601      0.0000 
     24 PN         11.9410   64.9040   30.4890 P.3       1 NAP601      0.0000 
     25 O1N        12.9890   65.2180   31.4220 O.co2     1 NAP601      0.0000 
     26 O2N        10.9830   65.9650   30.3960 O.co2     1 NAP601      0.0000 
     27 O5D        12.6480   64.7640   29.0950 O.3       1 NAP601      0.0000 
     28 C5D        13.7840   64.0020   29.0280 C.3       1 NAP601      0.0000 
     29 C4D        13.4620   62.5770   28.5960 C.3       1 NAP601      0.0000 
     30 O4D        12.6000   62.5660   27.6490 O.3       1 NAP601      0.0000 
     31 C3D        14.7180   62.0360   27.9610 C.3       1 NAP601      0.0000 
     32 O3D        14.9840   60.8590   28.4980 O.3       1 NAP601      0.0000 
     33 C2D        14.3040   61.8440   26.5150 C.3       1 NAP601      0.0000 
     34 O2D        15.1770   60.8530   25.8700 O.3       1 NAP601      0.0000 
     35 C1D        13.0850   61.4570   26.6300 C.3       1 NAP601      0.0000 
     36 N1N        12.4410   61.6880   25.3960 N.pl3     1 NAP601      0.0000 
     37 C2N        12.0620   60.7160   24.5920 C.ar      1 NAP601      0.0000 
     38 C3N        11.4690   61.0430   23.4130 C.ar      1 NAP601      0.0000 
     39 C7N        10.9840   60.0070   22.4240 C.2       1 NAP601      0.0000 
     40 O7N        10.4000   60.3860   21.5250 O.2       1 NAP601      0.0000 
     41 N7N        11.2230   58.6040   22.5300 N.am      1 NAP601      0.0000 
     42 C4N        11.2930   62.3190   23.0750 C.ar      1 NAP601      0.0000 
     43 C5N        11.6890   63.2840   23.8820 C.ar      1 NAP601      0.0000 
     44 C6N        12.2740   62.9460   25.0560 C.ar      1 NAP601      0.0000 
     45 P2B         8.0370   65.4220   36.7980 P.3       1 NAP601      0.0000 
     46 O1X         9.1430   64.5190   36.4690 O.co2     1 NAP601      0.0000 
     47 O2X         8.4250   66.8050   36.5310 O.co2     1 NAP601      0.0000 
     48 O3X         7.7210   65.2480   38.2120 O.co2     1 NAP601      0.0000 
@<TRIPOS>BOND
     1    1    2 ar   
     2    1    3 ar   
     3    1    4 1    
     4    1   23 1    
     5    4    5 1    
     6    5    6 1    
     7    6    7 1    
     8    6    8 1    
     9    7   12 1    
    10    8    9 1    
    11    8   10 1    
    12   10   11 1    
    13   10   12 1    
    14   11   45 1    
    15   12   13 1    
    16   13   14 1    
    17   13   22 1    
    18   14   15 2    
    19   15   16 1    
    20   16   17 ar   
    21   16   22 ar   
    22   17   18 1    
    23   17   19 ar   
    24   19   20 ar   
    25   20   21 ar   
    26   21   22 ar   
    27   23   24 1    
    28   24   25 ar   
    29   24   26 ar   
    30   24   27 1    
    31   27   28 1    
    32   28   29 1    
    33   29   30 1    
    34   29   31 1    
    35   30   35 1    
    36   31   32 1    
    37   31   33 1    
    38   33   34 1    
    39   33   35 1    
    40   35   36 1    
    41   36   37 ar   
    42   36   44 ar   
    43   37   38 ar   
    44   38   39 1    
    45   38   42 ar   
    46   39   40 2    
    47   39   41 am   
    48   42   43 ar   
    49   43   44 ar   
    50   45   46 ar   
    51   45   47 ar   
    52   45   48 ar   
@<TRIPOS>SUBSTRUCTURE
     1 NAP601      1 GROUP   
@<TRIPOS>SET
ATOM$ORANGE STATIC     ATOMS   COLORGROUP SYSTEM 
42 5 5 6 6 8 8 10 10 12 12 14 14 16 16 17 17 20 \
20 22 22 28 28 29 29 31 31 33 33 35 35 37 37 38 38 39 \
39 42 42 43 43 44 44 

