#    Name: 6gvs_1_NAP
#    Modification time : Fri May 22 19:24:12 2020

@<TRIPOS>MOLECULE
6gvs_1_NAP
   48    52     1     0     1
SMALL
NO_CHARGES


@<TRIPOS>ATOM
      1 PA         -0.4390   77.0210   48.5440 P.3       1 NAP601      0.0000 
      2 O1A        -1.5160   76.7170   47.6130 O.co2     1 NAP601      0.0000 
      3 O2A        -0.7600   76.3950   49.8010 O.co2     1 NAP601      0.0000 
      4 O5B         0.9330   76.4030   48.0080 O.3       1 NAP601      0.0000 
      5 C5B         2.1530   76.6380   48.6230 C.3       1 NAP601      0.0000 
      6 C4B         3.0360   75.3620   48.6900 C.3       1 NAP601      0.0000 
      7 O4B         2.4340   74.4750   49.4030 O.3       1 NAP601      0.0000 
      8 C3B         3.2620   74.6530   47.3510 C.3       1 NAP601      0.0000 
      9 O3B         4.4870   74.1120   47.2570 O.3       1 NAP601      0.0000 
     10 C2B         2.2560   73.5280   47.4430 C.3       1 NAP601      0.0000 
     11 O2B         2.5310   72.6140   46.3310 O.3       1 NAP601      0.0000 
     12 C1B         2.4770   73.0810   48.6420 C.3       1 NAP601      0.0000 
     13 N9A         1.3950   72.3300   49.2090 N.pl3     1 NAP601      0.0000 
     14 C8A         0.1190   72.5980   49.3330 C.2       1 NAP601      0.0000 
     15 N7A        -0.4670   71.5890   49.9240 N.2       1 NAP601      0.0000 
     16 C5A         0.4410   70.6890   50.1910 C.ar      1 NAP601      0.0000 
     17 C6A         0.3570   69.4800   50.7810 C.ar      1 NAP601      0.0000 
     18 N6A        -0.7930   68.8330   51.3080 N.pl3     1 NAP601      0.0000 
     19 N1A         1.4050   68.7460   50.9240 N.ar      1 NAP601      0.0000 
     20 C2A         2.5740   69.1790   50.4960 C.ar      1 NAP601      0.0000 
     21 N3A         2.6660   70.3670   49.9020 N.ar      1 NAP601      0.0000 
     22 C4A         1.5930   71.1290   49.7490 C.ar      1 NAP601      0.0000 
     23 O3         -0.3800   78.5940   48.6710 O.3       1 NAP601      0.0000 
     24 PN         -0.2620   79.5330   47.4020 P.3       1 NAP601      0.0000 
     25 O1N        -0.9690   78.9430   46.2910 O.co2     1 NAP601      0.0000 
     26 O2N         1.0830   79.7260   46.9430 O.co2     1 NAP601      0.0000 
     27 O5D        -0.9820   80.9220   47.6720 O.3       1 NAP601      0.0000 
     28 C5D        -0.9330   81.6360   48.8360 C.3       1 NAP601      0.0000 
     29 C4D        -1.8510   81.0150   49.8800 C.3       1 NAP601      0.0000 
     30 O4D        -1.1920   81.0710   50.9710 O.3       1 NAP601      0.0000 
     31 C3D        -3.0690   81.8550   50.1580 C.3       1 NAP601      0.0000 
     32 O3D        -3.9910   81.0940   50.7200 O.3       1 NAP601      0.0000 
     33 C2D        -2.5730   82.8900   51.1470 C.3       1 NAP601      0.0000 
     34 O2D        -3.6840   83.4110   51.9470 O.3       1 NAP601      0.0000 
     35 C1D        -1.7570   82.2280   51.8950 C.3       1 NAP601      0.0000 
     36 N1N        -0.6850   83.0370   52.3690 N.pl3     1 NAP601      0.0000 
     37 C2N        -0.4970   83.1920   53.6660 C.ar      1 NAP601      0.0000 
     38 C3N         0.5040   83.9860   54.1400 C.ar      1 NAP601      0.0000 
     39 C7N         0.7360   84.1730   55.6300 C.2       1 NAP601      0.0000 
     40 O7N         1.7230   84.6120   56.0170 O.2       1 NAP601      0.0000 
     41 N7N        -0.2340   83.8350   56.6120 N.am      1 NAP601      0.0000 
     42 C4N         1.3140   84.6030   53.2950 C.ar      1 NAP601      0.0000 
     43 C5N         1.1350   84.4480   51.9920 C.ar      1 NAP601      0.0000 
     44 C6N         0.1240   83.6580   51.5300 C.ar      1 NAP601      0.0000 
     45 P2B         1.6080   72.8600   45.0640 P.3       1 NAP601      0.0000 
     46 O1X         0.3620   73.5520   45.4450 O.co2     1 NAP601      0.0000 
     47 O2X         2.4010   73.6090   44.1070 O.co2     1 NAP601      0.0000 
     48 O3X         1.2260   71.5790   44.4670 O.co2     1 NAP601      0.0000 
@<TRIPOS>BOND
     1    1    2 ar   
     2    1    3 ar   
     3    1    4 1    
     4    1   23 1    
     5    4    5 1    
     6    5    6 1    
     7    6    7 1    
     8    6    8 1    
     9    7   12 1    
    10    8    9 1    
    11    8   10 1    
    12   10   11 1    
    13   10   12 1    
    14   11   45 1    
    15   12   13 1    
    16   13   14 1    
    17   13   22 1    
    18   14   15 2    
    19   15   16 1    
    20   16   17 ar   
    21   16   22 ar   
    22   17   18 1    
    23   17   19 ar   
    24   19   20 ar   
    25   20   21 ar   
    26   21   22 ar   
    27   23   24 1    
    28   24   25 ar   
    29   24   26 ar   
    30   24   27 1    
    31   27   28 1    
    32   28   29 1    
    33   29   30 1    
    34   29   31 1    
    35   30   35 1    
    36   31   32 1    
    37   31   33 1    
    38   33   34 1    
    39   33   35 1    
    40   35   36 1    
    41   36   37 ar   
    42   36   44 ar   
    43   37   38 ar   
    44   38   39 1    
    45   38   42 ar   
    46   39   40 2    
    47   39   41 am   
    48   42   43 ar   
    49   43   44 ar   
    50   45   46 ar   
    51   45   47 ar   
    52   45   48 ar   
@<TRIPOS>SUBSTRUCTURE
     1 NAP601      1 GROUP   
@<TRIPOS>SET
ATOM$ORANGE STATIC     ATOMS   COLORGROUP SYSTEM 
42 5 5 6 6 8 8 10 10 12 12 14 14 16 16 17 17 20 \
20 22 22 28 28 29 29 31 31 33 33 35 35 37 37 38 38 39 \
39 42 42 43 43 44 44 

