#    Name: 6gvs_2_NAP
#    Modification time : Fri May 22 19:24:18 2020

@<TRIPOS>MOLECULE
6gvs_2_NAP
   48    52     1     0     1
SMALL
NO_CHARGES


@<TRIPOS>ATOM
      1 PA          6.2820   57.9690   78.9050 P.3       1 NAP601      0.0000 
      2 O1A         7.6110   57.3150   78.9430 O.co2     1 NAP601      0.0000 
      3 O2A         6.1510   58.9290   77.7970 O.co2     1 NAP601      0.0000 
      4 O5B         5.1800   56.8050   78.7060 O.3       1 NAP601      0.0000 
      5 C5B         5.3200   55.6440   79.4680 C.3       1 NAP601      0.0000 
      6 C4B         3.9520   54.9120   79.5690 C.3       1 NAP601      0.0000 
      7 O4B         3.8780   53.9810   78.6630 O.3       1 NAP601      0.0000 
      8 C3B         3.7970   54.2050   80.9280 C.3       1 NAP601      0.0000 
      9 O3B         3.1560   54.9860   81.8130 O.3       1 NAP601      0.0000 
     10 C2B         2.9260   53.0180   80.5450 C.3       1 NAP601      0.0000 
     11 O2B         1.5480   53.4850   80.2390 O.3       1 NAP601      0.0000 
     12 C1B         3.4730   52.6440   79.4400 C.3       1 NAP601      0.0000 
     13 N9A         4.6600   51.9130   79.7020 N.pl3     1 NAP601      0.0000 
     14 C8A         5.9440   52.2120   79.8180 C.2       1 NAP601      0.0000 
     15 N7A         6.6070   51.0820   80.0630 N.2       1 NAP601      0.0000 
     16 C5A         5.7220   50.0840   80.1030 C.ar      1 NAP601      0.0000 
     17 C6A         5.8410   48.7320   80.3260 C.ar      1 NAP601      0.0000 
     18 N6A         7.0350   47.9600   80.5820 N.pl3     1 NAP601      0.0000 
     19 N1A         4.7850   47.9460   80.3050 N.ar      1 NAP601      0.0000 
     20 C2A         3.5700   48.4740   80.0660 C.ar      1 NAP601      0.0000 
     21 N3A         3.4470   49.7990   79.8560 N.ar      1 NAP601      0.0000 
     22 C4A         4.5240   50.6010   79.8750 C.ar      1 NAP601      0.0000 
     23 O3          6.0900   58.6600   80.3460 O.3       1 NAP601      0.0000 
     24 PN          7.0200   58.0560   81.4690 P.3       1 NAP601      0.0000 
     25 O1N         7.0350   56.5970   81.3230 O.co2     1 NAP601      0.0000 
     26 O2N         6.6380   58.5890   82.7530 O.co2     1 NAP601      0.0000 
     27 O5D         8.5140   58.4710   81.1770 O.3       1 NAP601      0.0000 
     28 C5D         8.9060   59.7250   81.5540 C.3       1 NAP601      0.0000 
     29 C4D         9.6710   60.3720   80.4010 C.3       1 NAP601      0.0000 
     30 O4D         9.2760   61.5750   80.4150 O.3       1 NAP601      0.0000 
     31 C3D        11.1530   60.4160   80.7340 C.3       1 NAP601      0.0000 
     32 O3D        11.8960   60.0880   79.6810 O.3       1 NAP601      0.0000 
     33 C2D        11.3500   61.8620   81.1080 C.3       1 NAP601      0.0000 
     34 O2D        12.7610   62.2230   80.9270 O.3       1 NAP601      0.0000 
     35 C1D        10.5680   62.4600   80.3060 C.3       1 NAP601      0.0000 
     36 N1N        10.1800   63.6610   80.9120 N.pl3     1 NAP601      0.0000 
     37 C2N        10.3870   64.8270   80.3280 C.ar      1 NAP601      0.0000 
     38 C3N         9.9990   65.9590   80.9680 C.ar      1 NAP601      0.0000 
     39 C7N        10.2430   67.2940   80.3190 C.2       1 NAP601      0.0000 
     40 O7N         9.7680   68.2670   80.7060 O.2       1 NAP601      0.0000 
     41 N7N        11.1110   67.3530   79.2110 N.am      1 NAP601      0.0000 
     42 C4N         9.4300   65.8890   82.1710 C.ar      1 NAP601      0.0000 
     43 C5N         9.2120   64.7130   82.7490 C.ar      1 NAP601      0.0000 
     44 C6N         9.5970   63.5870   82.0950 C.ar      1 NAP601      0.0000 
     45 P2B         0.2850   52.6850   80.8750 P.3       1 NAP601      0.0000 
     46 O1X        -0.7730   52.4930   79.8540 O.co2     1 NAP601      0.0000 
     47 O2X        -0.2160   53.4320   82.0700 O.co2     1 NAP601      0.0000 
     48 O3X         0.7160   51.3400   81.3120 O.co2     1 NAP601      0.0000 
@<TRIPOS>BOND
     1    1    2 ar   
     2    1    3 ar   
     3    1    4 1    
     4    1   23 1    
     5    4    5 1    
     6    5    6 1    
     7    6    7 1    
     8    6    8 1    
     9    7   12 1    
    10    8    9 1    
    11    8   10 1    
    12   10   11 1    
    13   10   12 1    
    14   11   45 1    
    15   12   13 1    
    16   13   14 1    
    17   13   22 1    
    18   14   15 2    
    19   15   16 1    
    20   16   17 ar   
    21   16   22 ar   
    22   17   18 1    
    23   17   19 ar   
    24   19   20 ar   
    25   20   21 ar   
    26   21   22 ar   
    27   23   24 1    
    28   24   25 ar   
    29   24   26 ar   
    30   24   27 1    
    31   27   28 1    
    32   28   29 1    
    33   29   30 1    
    34   29   31 1    
    35   30   35 1    
    36   31   32 1    
    37   31   33 1    
    38   33   34 1    
    39   33   35 1    
    40   35   36 1    
    41   36   37 ar   
    42   36   44 ar   
    43   37   38 ar   
    44   38   39 1    
    45   38   42 ar   
    46   39   40 2    
    47   39   41 am   
    48   42   43 ar   
    49   43   44 ar   
    50   45   46 ar   
    51   45   47 ar   
    52   45   48 ar   
@<TRIPOS>SUBSTRUCTURE
     1 NAP601      1 GROUP   
@<TRIPOS>SET
ATOM$ORANGE STATIC     ATOMS   COLORGROUP SYSTEM 
42 5 5 6 6 8 8 10 10 12 12 14 14 16 16 17 17 20 \
20 22 22 28 28 29 29 31 31 33 33 35 35 37 37 38 38 39 \
39 42 42 43 43 44 44 

