#    Name: 6gvs_8_NAP
#    Modification time : Fri May 22 19:25:05 2020

@<TRIPOS>MOLECULE
6gvs_8_NAP
   48    52     1     0     1
SMALL
NO_CHARGES


@<TRIPOS>ATOM
      1 PA        102.4980   16.7280    9.9850 P.3       1 NAP601      0.0000 
      2 O1A       103.1160   16.9830   11.2920 O.co2     1 NAP601      0.0000 
      3 O2A       101.4000   17.7000    9.7580 O.co2     1 NAP601      0.0000 
      4 O5B       103.6490   16.9100    8.8910 O.3       1 NAP601      0.0000 
      5 C5B       103.9250   15.8410    8.0610 C.3       1 NAP601      0.0000 
      6 C4B       103.6850   16.2560    6.5960 C.3       1 NAP601      0.0000 
      7 O4B       104.1550   17.4450    6.3670 O.3       1 NAP601      0.0000 
      8 C3B       104.4670   15.3030    5.6810 C.3       1 NAP601      0.0000 
      9 O3B       103.6180   14.6550    4.8520 O.3       1 NAP601      0.0000 
     10 C2B       105.4090   16.2080    4.8840 C.3       1 NAP601      0.0000 
     11 O2B       104.6790   16.8000    3.7490 O.3       1 NAP601      0.0000 
     12 C1B       105.5780   17.2180    5.6540 C.3       1 NAP601      0.0000 
     13 N9A       106.6540   17.0840    6.5930 N.pl3     1 NAP601      0.0000 
     14 C8A       106.7810   16.8850    7.8930 C.2       1 NAP601      0.0000 
     15 N7A       108.0710   16.9150    8.1840 N.2       1 NAP601      0.0000 
     16 C5A       108.7450   17.1520    7.0630 C.ar      1 NAP601      0.0000 
     17 C6A       110.0810   17.2870    6.7680 C.ar      1 NAP601      0.0000 
     18 N6A       111.2310   17.2120    7.6330 N.pl3     1 NAP601      0.0000 
     19 N1A       110.4690   17.5070    5.5410 N.ar      1 NAP601      0.0000 
     20 C2A       109.5760   17.6150    4.5480 C.ar      1 NAP601      0.0000 
     21 N3A       108.2690   17.4960    4.8270 N.ar      1 NAP601      0.0000 
     22 C4A       107.8620   17.2640    6.0860 C.ar      1 NAP601      0.0000 
     23 O3        102.1460   15.1750    9.8880 O.3       1 NAP601      0.0000 
     24 PN        100.6510   14.6970    9.8300 P.3       1 NAP601      0.0000 
     25 O1N       100.5190   13.5350    8.9880 O.co2     1 NAP601      0.0000 
     26 O2N        99.8530   15.7570    9.2330 O.co2     1 NAP601      0.0000 
     27 O5D       100.1400   14.2110   11.2380 O.3       1 NAP601      0.0000 
     28 C5D       100.6830   14.7740   12.3490 C.3       1 NAP601      0.0000 
     29 C4D        99.6990   15.6710   13.1040 C.3       1 NAP601      0.0000 
     30 O4D        98.4670   15.4110   12.8480 O.3       1 NAP601      0.0000 
     31 C3D        99.8260   15.3650   14.5740 C.3       1 NAP601      0.0000 
     32 O3D       100.0780   16.5090   15.1860 O.3       1 NAP601      0.0000 
     33 C2D        98.4570   14.8480   14.9500 C.3       1 NAP601      0.0000 
     34 O2D        98.2270   15.0670   16.3830 O.3       1 NAP601      0.0000 
     35 C1D        97.6770   15.5370   14.2030 C.3       1 NAP601      0.0000 
     36 N1N        96.4990   14.7850   14.0160 N.pl3     1 NAP601      0.0000 
     37 C2N        95.3480   15.1830   14.5300 C.ar      1 NAP601      0.0000 
     38 C3N        94.2390   14.4120   14.3700 C.ar      1 NAP601      0.0000 
     39 C7N        92.9200   14.8670   14.9450 C.2       1 NAP601      0.0000 
     40 O7N        91.9270   14.3810   14.6130 O.2       1 NAP601      0.0000 
     41 N7N        92.9160   15.9150   15.9080 N.am      1 NAP601      0.0000 
     42 C4N        94.3170   13.2650   13.7040 C.ar      1 NAP601      0.0000 
     43 C5N        95.4750   12.8720   13.1920 C.ar      1 NAP601      0.0000 
     44 C6N        96.5770   13.6430   13.3560 C.ar      1 NAP601      0.0000 
     45 P2B       104.8600   16.1530    2.2870 P.3       1 NAP601      0.0000 
     46 O1X       104.1460   17.0700    1.3630 O.co2     1 NAP601      0.0000 
     47 O2X       106.2850   16.1110    1.9010 O.co2     1 NAP601      0.0000 
     48 O3X       104.3280   14.7760    2.2740 O.co2     1 NAP601      0.0000 
@<TRIPOS>BOND
     1    1    2 ar   
     2    1    3 ar   
     3    1    4 1    
     4    1   23 1    
     5    4    5 1    
     6    5    6 1    
     7    6    7 1    
     8    6    8 1    
     9    7   12 1    
    10    8    9 1    
    11    8   10 1    
    12   10   11 1    
    13   10   12 1    
    14   11   45 1    
    15   12   13 1    
    16   13   14 1    
    17   13   22 1    
    18   14   15 2    
    19   15   16 1    
    20   16   17 ar   
    21   16   22 ar   
    22   17   18 1    
    23   17   19 ar   
    24   19   20 ar   
    25   20   21 ar   
    26   21   22 ar   
    27   23   24 1    
    28   24   25 ar   
    29   24   26 ar   
    30   24   27 1    
    31   27   28 1    
    32   28   29 1    
    33   29   30 1    
    34   29   31 1    
    35   30   35 1    
    36   31   32 1    
    37   31   33 1    
    38   33   34 1    
    39   33   35 1    
    40   35   36 1    
    41   36   37 ar   
    42   36   44 ar   
    43   37   38 ar   
    44   38   39 1    
    45   38   42 ar   
    46   39   40 2    
    47   39   41 am   
    48   42   43 ar   
    49   43   44 ar   
    50   45   46 ar   
    51   45   47 ar   
    52   45   48 ar   
@<TRIPOS>SUBSTRUCTURE
     1 NAP601      1 GROUP   
@<TRIPOS>SET
ATOM$ORANGE STATIC     ATOMS   COLORGROUP SYSTEM 
42 5 5 6 6 8 8 10 10 12 12 14 14 16 16 17 17 20 \
20 22 22 28 28 29 29 31 31 33 33 35 35 37 37 38 38 39 \
39 42 42 43 43 44 44 

