#    Name: 6gvs_6_NAP
#    Modification time : Fri May 22 19:24:49 2020

@<TRIPOS>MOLECULE
6gvs_6_NAP
   38    40     1     0     1
SMALL
NO_CHARGES


@<TRIPOS>ATOM
      1 PA         38.8110  -11.8560   15.6930 P.3       1 NAP601      0.0000 
      2 O1A        37.8030  -11.3010   14.7610 O.co2     1 NAP601      0.0000 
      3 O2A        38.8750  -10.9710   16.8940 O.co2     1 NAP601      0.0000 
      4 O5B        38.4310  -13.3860   16.1320 O.3       1 NAP601      0.0000 
      5 C5B        38.4660  -13.8040   17.4690 C.3       1 NAP601      0.0000 
      6 C4B        37.8760  -15.2340   17.7140 C.3       1 NAP601      0.0000 
      7 O4B        37.3630  -15.7460   16.6320 O.3       1 NAP601      0.0000 
      8 C3B        38.9540  -16.2590   18.1110 C.3       1 NAP601      0.0000 
      9 O3B        38.3680  -17.3440   18.6550 O.3       1 NAP601      0.0000 
     10 C2B        39.5180  -16.6360   16.7400 C.3       1 NAP601      0.0000 
     11 O2B        40.3670  -17.8730   16.7330 O.3       1 NAP601      0.0000 
     12 C1B        38.4380  -16.7960   16.0440 C.3       1 NAP601      0.0000 
     13 O3         40.1300  -11.8640   14.7960 O.3       1 NAP601      0.0000 
     14 PN         41.4340  -11.0440   15.1660 P.3       1 NAP601      0.0000 
     15 O1N        42.5300  -11.9650   15.0310 O.co2     1 NAP601      0.0000 
     16 O2N        41.3640  -10.6290   16.5600 O.co2     1 NAP601      0.0000 
     17 O5D        41.6940   -9.8170   14.1870 O.3       1 NAP601      0.0000 
     18 C5D        40.6560   -8.9420   14.0800 C.3       1 NAP601      0.0000 
     19 C4D        40.8010   -7.7130   14.9880 C.3       1 NAP601      0.0000 
     20 O4D        42.0270   -7.4440   15.2690 O.3       1 NAP601      0.0000 
     21 C3D        40.3470   -6.5100   14.1860 C.3       1 NAP601      0.0000 
     22 O3D        39.5600   -5.8200   14.9980 O.3       1 NAP601      0.0000 
     23 C2D        41.6130   -5.7180   13.9170 C.3       1 NAP601      0.0000 
     24 O2D        41.2700   -4.3030   13.6840 O.3       1 NAP601      0.0000 
     25 C1D        42.2200   -5.8760   15.0410 C.3       1 NAP601      0.0000 
     26 N1N        43.6120   -5.5930   14.8930 N.pl3     1 NAP601      0.0000 
     27 C2N        44.1790   -4.5550   15.4850 C.ar      1 NAP601      0.0000 
     28 C3N        45.5110   -4.3110   15.3000 C.ar      1 NAP601      0.0000 
     29 C7N        46.1850   -3.1400   15.9660 C.2       1 NAP601      0.0000 
     30 O7N        47.3380   -3.1190   15.9910 O.2       1 NAP601      0.0000 
     31 N7N        45.4170   -2.0880   16.5590 N.am      1 NAP601      0.0000 
     32 C4N        46.2500   -5.0900   14.5260 C.ar      1 NAP601      0.0000 
     33 C5N        45.6730   -6.1200   13.9390 C.ar      1 NAP601      0.0000 
     34 C6N        44.3480   -6.3720   14.1370 C.ar      1 NAP601      0.0000 
     35 P2B        39.9990  -19.2770   17.4870 P.3       1 NAP601      0.0000 
     36 O1X        40.3280  -19.1200   18.9280 O.co2     1 NAP601      0.0000 
     37 O2X        38.5440  -19.5820   17.3390 O.co2     1 NAP601      0.0000 
     38 O3X        40.8100  -20.3960   16.9380 O.co2     1 NAP601      0.0000 
@<TRIPOS>BOND
     1    1    2 ar   
     2    1    3 ar   
     3    1    4 1    
     4    1   13 1    
     5    4    5 1    
     6    5    6 1    
     7    6    7 1    
     8    6    8 1    
     9    7   12 1    
    10    8    9 1    
    11    8   10 1    
    12   10   11 1    
    13   10   12 1    
    14   11   35 1    
    15   13   14 1    
    16   14   15 ar   
    17   14   16 ar   
    18   14   17 1    
    19   17   18 1    
    20   18   19 1    
    21   19   20 1    
    22   19   21 1    
    23   20   25 1    
    24   21   22 1    
    25   21   23 1    
    26   23   24 1    
    27   23   25 1    
    28   25   26 1    
    29   26   27 ar   
    30   26   34 ar   
    31   27   28 ar   
    32   28   29 1    
    33   28   32 ar   
    34   29   30 2    
    35   29   31 am   
    36   32   33 ar   
    37   33   34 ar   
    38   35   36 ar   
    39   35   37 ar   
    40   35   38 ar   
@<TRIPOS>SUBSTRUCTURE
     1 NAP601      1 GROUP   
@<TRIPOS>SET
ATOM$ORANGE STATIC     ATOMS   COLORGROUP SYSTEM 
32 5 5 6 6 8 8 10 10 12 12 18 18 19 19 21 21 23 \
23 25 25 27 27 28 28 29 29 32 32 33 33 34 34 

