#    Name: 6gvs_7_NAP
#    Modification time : Fri May 22 19:24:56 2020

@<TRIPOS>MOLECULE
6gvs_7_NAP
   48    52     1     0     1
SMALL
NO_CHARGES


@<TRIPOS>ATOM
      1 PA         78.6470   46.4690    9.0100 P.3       1 NAP601      0.0000 
      2 O1A        78.4430   47.4090    7.9180 O.co2     1 NAP601      0.0000 
      3 O2A        79.2630   45.2140    8.5970 O.co2     1 NAP601      0.0000 
      4 O5B        79.5940   47.0970   10.1130 O.3       1 NAP601      0.0000 
      5 C5B        79.1920   46.7580   11.4000 C.3       1 NAP601      0.0000 
      6 C4B        80.4230   46.4970   12.2810 C.3       1 NAP601      0.0000 
      7 O4B        81.3480   45.8440   11.6280 O.3       1 NAP601      0.0000 
      8 C3B        81.0180   47.8460   12.5890 C.3       1 NAP601      0.0000 
      9 O3B        81.3150   47.8280   13.8920 O.3       1 NAP601      0.0000 
     10 C2B        82.2700   47.8620   11.6910 C.3       1 NAP601      0.0000 
     11 O2B        83.2060   48.7920   12.3240 O.3       1 NAP601      0.0000 
     12 C1B        82.7250   46.6530   11.6490 C.3       1 NAP601      0.0000 
     13 N9A        83.3070   46.2750   10.3860 N.pl3     1 NAP601      0.0000 
     14 C8A        82.8170   46.2670    9.1580 C.2       1 NAP601      0.0000 
     15 N7A        83.7360   45.7990    8.3280 N.2       1 NAP601      0.0000 
     16 C5A        84.8110   45.4940    9.0410 C.ar      1 NAP601      0.0000 
     17 C6A        86.0170   44.9790    8.6720 C.ar      1 NAP601      0.0000 
     18 N6A        86.4510   44.6260    7.3410 N.pl3     1 NAP601      0.0000 
     19 N1A        86.9510   44.7550    9.5590 N.ar      1 NAP601      0.0000 
     20 C2A        86.7030   45.0400   10.8280 C.ar      1 NAP601      0.0000 
     21 N3A        85.5170   45.5520   11.1920 N.ar      1 NAP601      0.0000 
     22 C4A        84.5580   45.7800   10.3020 C.ar      1 NAP601      0.0000 
     23 O3         77.2230   46.2180    9.7300 O.3       1 NAP601      0.0000 
     24 PN         75.9830   47.2290    9.8670 P.3       1 NAP601      0.0000 
     25 O1N        75.9500   47.6770   11.2240 O.co2     1 NAP601      0.0000 
     26 O2N        76.1190   48.3020    8.8720 O.co2     1 NAP601      0.0000 
     27 O5D        74.6560   46.3880    9.6930 O.3       1 NAP601      0.0000 
     28 C5D        74.3590   46.0440    8.4100 C.3       1 NAP601      0.0000 
     29 C4D        74.6610   44.5890    8.0580 C.3       1 NAP601      0.0000 
     30 O4D        74.4630   43.8350    9.0510 O.3       1 NAP601      0.0000 
     31 C3D        73.5970   44.1340    7.0880 C.3       1 NAP601      0.0000 
     32 O3D        74.1780   43.5810    6.0440 O.3       1 NAP601      0.0000 
     33 C2D        72.8650   43.0730    7.8660 C.3       1 NAP601      0.0000 
     34 O2D        72.1360   42.1880    6.9660 O.3       1 NAP601      0.0000 
     35 C1D        73.8230   42.4990    8.4630 C.3       1 NAP601      0.0000 
     36 N1N        73.2820   41.7590    9.5380 N.pl3     1 NAP601      0.0000 
     37 C2N        73.2690   40.4410    9.6080 C.ar      1 NAP601      0.0000 
     38 C3N        72.7060   39.8380   10.6950 C.ar      1 NAP601      0.0000 
     39 C7N        72.6170   38.3500   10.9100 C.2       1 NAP601      0.0000 
     40 O7N        72.2720   37.9390   11.9140 O.2       1 NAP601      0.0000 
     41 N7N        72.9220   37.4020    9.9140 N.am      1 NAP601      0.0000 
     42 C4N        72.1720   40.5600   11.6500 C.ar      1 NAP601      0.0000 
     43 C5N        72.1850   41.8680   11.5760 C.ar      1 NAP601      0.0000 
     44 C6N        72.7460   42.4670   10.5050 C.ar      1 NAP601      0.0000 
     45 P2B        83.0400   50.3400   11.8610 P.3       1 NAP601      0.0000 
     46 O1X        83.0380   51.1980   13.0880 O.co2     1 NAP601      0.0000 
     47 O2X        84.1930   50.5870   10.9460 O.co2     1 NAP601      0.0000 
     48 O3X        81.8080   50.6270   11.0570 O.co2     1 NAP601      0.0000 
@<TRIPOS>BOND
     1    1    2 ar   
     2    1    3 ar   
     3    1    4 1    
     4    1   23 1    
     5    4    5 1    
     6    5    6 1    
     7    6    7 1    
     8    6    8 1    
     9    7   12 1    
    10    8    9 1    
    11    8   10 1    
    12   10   11 1    
    13   10   12 1    
    14   11   45 1    
    15   12   13 1    
    16   13   14 1    
    17   13   22 1    
    18   14   15 2    
    19   15   16 1    
    20   16   17 ar   
    21   16   22 ar   
    22   17   18 1    
    23   17   19 ar   
    24   19   20 ar   
    25   20   21 ar   
    26   21   22 ar   
    27   23   24 1    
    28   24   25 ar   
    29   24   26 ar   
    30   24   27 1    
    31   27   28 1    
    32   28   29 1    
    33   29   30 1    
    34   29   31 1    
    35   30   35 1    
    36   31   32 1    
    37   31   33 1    
    38   33   34 1    
    39   33   35 1    
    40   35   36 1    
    41   36   37 ar   
    42   36   44 ar   
    43   37   38 ar   
    44   38   39 1    
    45   38   42 ar   
    46   39   40 2    
    47   39   41 am   
    48   42   43 ar   
    49   43   44 ar   
    50   45   46 ar   
    51   45   47 ar   
    52   45   48 ar   
@<TRIPOS>SUBSTRUCTURE
     1 NAP601      1 GROUP   
@<TRIPOS>SET
ATOM$ORANGE STATIC     ATOMS   COLORGROUP SYSTEM 
42 5 5 6 6 8 8 10 10 12 12 14 14 16 16 17 17 20 \
20 22 22 28 28 29 29 31 31 33 33 35 35 37 37 38 38 39 \
39 42 42 43 43 44 44 

