#    Name: 6gvs_5_NAP
#    Modification time : Fri May 22 19:24:41 2020

@<TRIPOS>MOLECULE
6gvs_5_NAP
   48    52     1     0     1
SMALL
NO_CHARGES


@<TRIPOS>ATOM
      1 PA         46.6850    3.6020   50.7260 P.3       1 NAP601      0.0000 
      2 O1A        47.5330    2.9250   51.7290 O.co2     1 NAP601      0.0000 
      3 O2A        46.5950    2.8100   49.4790 O.co2     1 NAP601      0.0000 
      4 O5B        45.2170    3.7240   51.3900 O.3       1 NAP601      0.0000 
      5 C5B        45.1030    3.7870   52.7830 C.3       1 NAP601      0.0000 
      6 C4B        43.8020    3.0720   53.2750 C.3       1 NAP601      0.0000 
      7 O4B        42.8690    3.9070   53.6520 O.3       1 NAP601      0.0000 
      8 C3B        43.1720    2.2440   52.1510 C.3       1 NAP601      0.0000 
      9 O3B        43.6990    1.0060   52.2110 O.3       1 NAP601      0.0000 
     10 C2B        41.6750    2.2200   52.4860 C.3       1 NAP601      0.0000 
     11 O2B        41.3190    1.0410   53.3400 O.3       1 NAP601      0.0000 
     12 C1B        41.4500    3.3230   53.1370 C.3       1 NAP601      0.0000 
     13 N9A        40.8000    4.3030   52.3200 N.pl3     1 NAP601      0.0000 
     14 C8A        40.5560    4.4950   51.0360 C.2       1 NAP601      0.0000 
     15 N7A        39.9020    5.6470   50.9200 N.2       1 NAP601      0.0000 
     16 C5A        39.7490    6.1460   52.1360 C.ar      1 NAP601      0.0000 
     17 C6A        39.1650    7.2790   52.6100 C.ar      1 NAP601      0.0000 
     18 N6A        38.5120    8.3150   51.8750 N.pl3     1 NAP601      0.0000 
     19 N1A        39.1510    7.5540   53.8870 N.ar      1 NAP601      0.0000 
     20 C2A        39.7270    6.7100   54.7500 C.ar      1 NAP601      0.0000 
     21 N3A        40.3080    5.5920   54.2870 N.ar      1 NAP601      0.0000 
     22 C4A        40.3090    5.3220   52.9880 C.ar      1 NAP601      0.0000 
     23 O3         47.2930    5.0830   50.4450 O.3       1 NAP601      0.0000 
     24 PN         48.0210    5.9810   51.5640 P.3       1 NAP601      0.0000 
     25 O1N        47.4010    7.3000   51.5770 O.co2     1 NAP601      0.0000 
     26 O2N        47.8540    5.2630   52.8500 O.co2     1 NAP601      0.0000 
     27 O5D        49.5580    6.2070   51.2480 O.3       1 NAP601      0.0000 
     28 C5D        50.3690    5.1610   51.5760 C.3       1 NAP601      0.0000 
     29 C4D        50.9310    4.4300   50.3520 C.3       1 NAP601      0.0000 
     30 O4D        51.1210    5.2420   49.3770 O.3       1 NAP601      0.0000 
     31 C3D        52.3240    3.9150   50.6800 C.3       1 NAP601      0.0000 
     32 O3D        52.3570    2.6210   50.4000 O.3       1 NAP601      0.0000 
     33 C2D        53.2160    4.7100   49.7440 C.3       1 NAP601      0.0000 
     34 O2D        54.4290    3.9460   49.4540 O.3       1 NAP601      0.0000 
     35 C1D        52.4870    4.8230   48.7000 C.3       1 NAP601      0.0000 
     36 N1N        52.8780    5.9350   47.9170 N.pl3     1 NAP601      0.0000 
     37 C2N        53.4540    5.7980   46.7380 C.ar      1 NAP601      0.0000 
     38 C3N        53.8220    6.9000   46.0280 C.ar      1 NAP601      0.0000 
     39 C7N        54.4840    6.7840   44.6870 C.2       1 NAP601      0.0000 
     40 O7N        54.5880    7.7140   44.0350 O.2       1 NAP601      0.0000 
     41 N7N        54.9800    5.5520   44.2040 N.am      1 NAP601      0.0000 
     42 C4N        53.5960    8.1090   46.5000 C.ar      1 NAP601      0.0000 
     43 C5N        53.0120    8.2470   47.6720 C.ar      1 NAP601      0.0000 
     44 C6N        52.6530    7.1430   48.3830 C.ar      1 NAP601      0.0000 
     45 P2B        41.0760   -0.3900   52.5680 P.3       1 NAP601      0.0000 
     46 O1X        42.1610   -1.3660   52.8900 O.co2     1 NAP601      0.0000 
     47 O2X        41.1390   -0.1350   51.0860 O.co2     1 NAP601      0.0000 
     48 O3X        39.7570   -0.9970   52.9460 O.co2     1 NAP601      0.0000 
@<TRIPOS>BOND
     1    1    2 ar   
     2    1    3 ar   
     3    1    4 1    
     4    1   23 1    
     5    4    5 1    
     6    5    6 1    
     7    6    7 1    
     8    6    8 1    
     9    7   12 1    
    10    8    9 1    
    11    8   10 1    
    12   10   11 1    
    13   10   12 1    
    14   11   45 1    
    15   12   13 1    
    16   13   14 1    
    17   13   22 1    
    18   14   15 2    
    19   15   16 1    
    20   16   17 ar   
    21   16   22 ar   
    22   17   18 1    
    23   17   19 ar   
    24   19   20 ar   
    25   20   21 ar   
    26   21   22 ar   
    27   23   24 1    
    28   24   25 ar   
    29   24   26 ar   
    30   24   27 1    
    31   27   28 1    
    32   28   29 1    
    33   29   30 1    
    34   29   31 1    
    35   30   35 1    
    36   31   32 1    
    37   31   33 1    
    38   33   34 1    
    39   33   35 1    
    40   35   36 1    
    41   36   37 ar   
    42   36   44 ar   
    43   37   38 ar   
    44   38   39 1    
    45   38   42 ar   
    46   39   40 2    
    47   39   41 am   
    48   42   43 ar   
    49   43   44 ar   
    50   45   46 ar   
    51   45   47 ar   
    52   45   48 ar   
@<TRIPOS>SUBSTRUCTURE
     1 NAP601      1 GROUP   
@<TRIPOS>SET
ATOM$ORANGE STATIC     ATOMS   COLORGROUP SYSTEM 
42 5 5 6 6 8 8 10 10 12 12 14 14 16 16 17 17 20 \
20 22 22 28 28 29 29 31 31 33 33 35 35 37 37 38 38 39 \
39 42 42 43 43 44 44 

