#    Name: 6gvs_10_NAP
#    Modification time : Fri May 22 19:25:31 2020

@<TRIPOS>MOLECULE
6gvs_10_NAP
   48    52     1     0     1
SMALL
NO_CHARGES


@<TRIPOS>ATOM
      1 PA         14.0080   33.7070  -31.8220 P.3       1 NAP601      0.0000 
      2 O1A        13.1200   34.7970  -31.3540 O.co2     1 NAP601      0.0000 
      3 O2A        15.4010   34.1340  -31.9960 O.co2     1 NAP601      0.0000 
      4 O5B        13.4540   33.1770  -33.2220 O.3       1 NAP601      0.0000 
      5 C5B        13.1420   31.8330  -33.2370 C.3       1 NAP601      0.0000 
      6 C4B        11.9660   31.5340  -34.1860 C.3       1 NAP601      0.0000 
      7 O4B        11.9970   32.3000  -35.2360 O.3       1 NAP601      0.0000 
      8 C3B        12.1770   30.1060  -34.6750 C.3       1 NAP601      0.0000 
      9 O3B        11.2920   29.2670  -34.0850 O.3       1 NAP601      0.0000 
     10 C2B        11.9260   30.2150  -36.1720 C.3       1 NAP601      0.0000 
     11 O2B        10.4570   30.1320  -36.4300 O.3       1 NAP601      0.0000 
     12 C1B        12.4270   31.3720  -36.4600 C.3       1 NAP601      0.0000 
     13 N9A        13.8620   31.2780  -36.5300 N.pl3     1 NAP601      0.0000 
     14 C8A        14.8330   30.9560  -35.6810 C.2       1 NAP601      0.0000 
     15 N7A        16.0010   31.0430  -36.3200 N.2       1 NAP601      0.0000 
     16 C5A        15.7680   31.4210  -37.5770 C.ar      1 NAP601      0.0000 
     17 C6A        16.5890   31.6680  -38.6640 C.ar      1 NAP601      0.0000 
     18 N6A        18.0350   31.5950  -38.8240 N.pl3     1 NAP601      0.0000 
     19 N1A        16.0560   32.0470  -39.8010 N.ar      1 NAP601      0.0000 
     20 C2A        14.7260   32.1940  -39.9160 C.ar      1 NAP601      0.0000 
     21 N3A        13.9310   31.9510  -38.8610 N.ar      1 NAP601      0.0000 
     22 C4A        14.4490   31.5670  -37.6940 C.ar      1 NAP601      0.0000 
     23 O3         13.9780   32.4650  -30.8160 O.3       1 NAP601      0.0000 
     24 PN         13.1220   32.5540  -29.4760 P.3       1 NAP601      0.0000 
     25 O1N        13.6150   31.5830  -28.5160 O.co2     1 NAP601      0.0000 
     26 O2N        11.7290   32.2870  -29.7610 O.co2     1 NAP601      0.0000 
     27 O5D        13.2710   34.0250  -28.9050 O.3       1 NAP601      0.0000 
     28 C5D        14.4390   34.3000  -28.2650 C.3       1 NAP601      0.0000 
     29 C4D        14.3570   35.8020  -28.0500 C.3       1 NAP601      0.0000 
     30 O4D        13.4620   35.9790  -27.1440 O.3       1 NAP601      0.0000 
     31 C3D        15.6540   36.3350  -27.4610 C.3       1 NAP601      0.0000 
     32 O3D        15.8380   37.5790  -27.9060 O.3       1 NAP601      0.0000 
     33 C2D        15.3400   36.3470  -25.9800 C.3       1 NAP601      0.0000 
     34 O2D        16.2810   37.2530  -25.3330 O.3       1 NAP601      0.0000 
     35 C1D        14.1560   36.8420  -26.0100 C.3       1 NAP601      0.0000 
     36 N1N        13.4880   36.5330  -24.8130 N.pl3     1 NAP601      0.0000 
     37 C2N        12.9210   37.4830  -24.1000 C.ar      1 NAP601      0.0000 
     38 C3N        12.3090   37.1340  -22.9470 C.ar      1 NAP601      0.0000 
     39 C7N        11.6600   38.1540  -22.0750 C.2       1 NAP601      0.0000 
     40 O7N        10.9440   37.7720  -21.2610 O.2       1 NAP601      0.0000 
     41 N7N        11.9430   39.5420  -22.2090 N.am      1 NAP601      0.0000 
     42 C4N        12.2850   35.8780  -22.5340 C.ar      1 NAP601      0.0000 
     43 C5N        12.8560   34.9350  -23.2580 C.ar      1 NAP601      0.0000 
     44 C6N        13.4720   35.2790  -24.4160 C.ar      1 NAP601      0.0000 
     45 P2B         9.7760   28.6380  -36.3820 P.3       1 NAP601      0.0000 
     46 O1X        10.1010   27.9320  -37.6400 O.co2     1 NAP601      0.0000 
     47 O2X        10.3150   27.8560  -35.2380 O.co2     1 NAP601      0.0000 
     48 O3X         8.2960   28.7510  -36.2550 O.co2     1 NAP601      0.0000 
@<TRIPOS>BOND
     1    1    2 ar   
     2    1    3 ar   
     3    1    4 1    
     4    1   23 1    
     5    4    5 1    
     6    5    6 1    
     7    6    7 1    
     8    6    8 1    
     9    7   12 1    
    10    8    9 1    
    11    8   10 1    
    12   10   11 1    
    13   10   12 1    
    14   11   45 1    
    15   12   13 1    
    16   13   14 1    
    17   13   22 1    
    18   14   15 2    
    19   15   16 1    
    20   16   17 ar   
    21   16   22 ar   
    22   17   18 1    
    23   17   19 ar   
    24   19   20 ar   
    25   20   21 ar   
    26   21   22 ar   
    27   23   24 1    
    28   24   25 ar   
    29   24   26 ar   
    30   24   27 1    
    31   27   28 1    
    32   28   29 1    
    33   29   30 1    
    34   29   31 1    
    35   30   35 1    
    36   31   32 1    
    37   31   33 1    
    38   33   34 1    
    39   33   35 1    
    40   35   36 1    
    41   36   37 ar   
    42   36   44 ar   
    43   37   38 ar   
    44   38   39 1    
    45   38   42 ar   
    46   39   40 2    
    47   39   41 am   
    48   42   43 ar   
    49   43   44 ar   
    50   45   46 ar   
    51   45   47 ar   
    52   45   48 ar   
@<TRIPOS>SUBSTRUCTURE
     1 NAP601      1 GROUP   
@<TRIPOS>SET
ATOM$ORANGE STATIC     ATOMS   COLORGROUP SYSTEM 
42 5 5 6 6 8 8 10 10 12 12 14 14 16 16 17 17 20 \
20 22 22 28 28 29 29 31 31 33 33 35 35 37 37 38 38 39 \
39 42 42 43 43 44 44 

