#    Name: 6a03_1_2BA
#    Modification time : Fri May 22 19:24:06 2020

@<TRIPOS>MOLECULE
6a03_1_2BA
   44    50     1     0     0
SMALL
NO_CHARGES


@<TRIPOS>ATOM
      1 P          -8.1630    4.8930   15.2630 P.3       1 2BA401      0.0000 
      2 O1P        -8.6610    5.9000   16.2750 O.co2     1 2BA401      0.0000 
      3 O2P        -6.6710    4.7400   15.0600 O.co2     1 2BA401      0.0000 
      4 O5'        -8.8320    5.1870   13.8270 O.3       1 2BA401      0.0000 
      5 C5'       -10.1730    5.6670   13.7460 C.3       1 2BA401      0.0000 
      6 C4'       -10.6340    5.7230   12.2950 C.3       1 2BA401      0.0000 
      7 O4'        -9.8510    6.6970   11.5980 O.3       1 2BA401      0.0000 
      8 C3'       -10.4270    4.4270   11.5300 C.3       1 2BA401      0.0000 
      9 O3'       -11.5790    3.5990   11.4710 O.3       1 2BA401      0.0000 
     10 C2'       -10.1470    4.8770   10.1200 C.3       1 2BA401      0.0000 
     11 O2'       -11.3910    4.9880    9.4260 O.3       1 2BA401      0.0000 
     12 C1'        -9.5450    6.2510   10.2740 C.3       1 2BA401      0.0000 
     13 N9         -8.0860    6.0400   10.1430 N.pl3     1 2BA401      0.0000 
     14 C8         -7.1780    6.0860   11.1360 C.2       1 2BA401      0.0000 
     15 N7         -5.9300    5.8290   10.6650 N.2       1 2BA401      0.0000 
     16 C5         -6.0350    5.6080    9.3410 C.ar      1 2BA401      0.0000 
     17 C6         -5.1080    5.2810    8.2310 C.ar      1 2BA401      0.0000 
     18 N6         -3.7790    5.1360    8.4430 N.pl3     1 2BA401      0.0000 
     19 N1         -5.6360    5.1290    6.9980 N.ar      1 2BA401      0.0000 
     20 C2         -6.9540    5.2700    6.7670 C.ar      1 2BA401      0.0000 
     21 N3         -7.8500    5.5660    7.7220 N.ar      1 2BA401      0.0000 
     22 C4         -7.4600    5.7410    9.0050 C.ar      1 2BA401      0.0000 
     23 P1        -11.3640    2.0100   11.5470 P.3       1 2BA401      0.0000 
     24 O1P1      -12.6540    1.3180   11.2040 O.co2     1 2BA401      0.0000 
     25 O2P1      -10.1230    1.6480   10.7620 O.co2     1 2BA401      0.0000 
     26 O5'1      -11.0360    1.7740   13.1040 O.3       1 2BA401      0.0000 
     27 C5'1       -9.8650    1.0260   13.3800 C.3       1 2BA401      0.0000 
     28 C4'1       -9.3010    1.1710   14.7830 C.3       1 2BA401      0.0000 
     29 O4'1       -8.5620   -0.0350   15.0000 O.3       1 2BA401      0.0000 
     30 C3'1       -8.2870    2.3020   14.9090 C.3       1 2BA401      0.0000 
     31 O3'1       -8.7780    3.4430   15.6070 O.3       1 2BA401      0.0000 
     32 C2'1       -7.1220    1.6820   15.6450 C.3       1 2BA401      0.0000 
     33 O2'1       -7.3590    1.7690   17.0530 O.3       1 2BA401      0.0000 
     34 C1'1       -7.1760    0.2390   15.2080 C.3       1 2BA401      0.0000 
     35 N91        -6.4140    0.1780   13.9270 N.pl3     1 2BA401      0.0000 
     36 C81        -6.9060    0.1340   12.6700 C.2       1 2BA401      0.0000 
     37 N71        -5.9280    0.1040   11.7360 N.2       1 2BA401      0.0000 
     38 C51        -4.7580    0.1270   12.3960 C.ar      1 2BA401      0.0000 
     39 C61        -3.3230    0.1120   12.0270 C.ar      1 2BA401      0.0000 
     40 N61        -2.9220    0.0650   10.7370 N.pl3     1 2BA401      0.0000 
     41 N11        -2.4230    0.1490   13.0330 N.ar      1 2BA401      0.0000 
     42 C21        -2.8030    0.1980   14.3240 C.ar      1 2BA401      0.0000 
     43 N31        -4.0800    0.2110   14.7300 N.ar      1 2BA401      0.0000 
     44 C41        -5.0850    0.1790   13.8320 C.ar      1 2BA401      0.0000 
@<TRIPOS>BOND
     1    1    2 ar   
     2    1    3 ar   
     3    1    4 1    
     4    1   31 1    
     5    4    5 1    
     6    5    6 1    
     7    6    7 1    
     8    6    8 1    
     9    7   12 1    
    10    8    9 1    
    11    8   10 1    
    12    9   23 1    
    13   10   11 1    
    14   10   12 1    
    15   12   13 1    
    16   13   14 1    
    17   13   22 1    
    18   14   15 2    
    19   15   16 1    
    20   16   17 ar   
    21   16   22 ar   
    22   17   18 1    
    23   17   19 ar   
    24   19   20 ar   
    25   20   21 ar   
    26   21   22 ar   
    27   23   24 ar   
    28   23   25 ar   
    29   23   26 1    
    30   26   27 1    
    31   27   28 1    
    32   28   29 1    
    33   28   30 1    
    34   29   34 1    
    35   30   31 1    
    36   30   32 1    
    37   32   33 1    
    38   32   34 1    
    39   34   35 1    
    40   35   36 1    
    41   35   44 1    
    42   36   37 2    
    43   37   38 1    
    44   38   39 ar   
    45   38   44 ar   
    46   39   40 1    
    47   39   41 ar   
    48   41   42 ar   
    49   42   43 ar   
    50   43   44 ar   
@<TRIPOS>SUBSTRUCTURE
     1 2BA401      1 GROUP   
@<TRIPOS>SET

