#    Name: 6a03_1_2BA_CAVITY_N1_8
#    Modification time : Fri May 22 19:24:08 2020

@<TRIPOS>MOLECULE
6a03_1_2BA_CAVITY_N1_8
   82     0     6     0     0
SMALL
NO_CHARGES


@<TRIPOS>ATOM
      1 OG        -12.4200    1.8800   12.4500 O.3       1 SER1        0.0000 
      2 OG        -12.0300    3.9100   12.9300 O.3       1 SER1        0.0000 
      3 OG        -10.4200    2.5500   12.6800 O.3       1 SER1        0.0000 
      4 OG        -10.0500    1.2300   13.2800 O.3       1 SER1        0.0000 
      5 OG        -11.2700    4.6200   14.0000 O.3       1 SER1        0.0000 
      6 OG        -10.8900    3.3000   14.6100 O.3       1 SER1        0.0000 
      7 OG        -10.5100    1.9700   15.2100 O.3       1 SER1        0.0000 
      8 OG        -10.1200    4.0100   15.6800 O.3       1 SER1        0.0000 
      9 OG         -9.7500    2.6800   16.2900 O.3       1 SER1        0.0000 
     10 OG         -9.2700    5.2900   14.2300 O.3       1 SER1        0.0000 
     11 OG         -8.8900    3.9700   14.8300 O.3       1 SER1        0.0000 
     12 OG         -8.1200    4.6800   15.9000 O.3       1 SER1        0.0000 
     13 OG         -6.1400    2.0000   16.2600 O.3       1 SER1        0.0000 
     14 N         -10.8100    0.5200   12.2000 N.am      2 ALA2        0.0000 
     15 N          -9.5800    0.4800   11.3500 N.am      2 ALA2        0.0000 
     16 N          -9.6700   -0.0900   13.8800 N.am      2 ALA2        0.0000 
     17 N          -8.4400   -0.1300   13.0300 N.am      2 ALA2        0.0000 
     18 N          -7.2000   -0.1700   12.1800 N.am      2 ALA2        0.0000 
     19 N         -10.4100    5.9000   12.5500 N.am      2 ALA2        0.0000 
     20 N          -9.6400    6.6100   13.6200 N.am      2 ALA2        0.0000 
     21 N          -8.4100    6.5700   12.7700 N.am      2 ALA2        0.0000 
     22 N          -8.0300    5.2500   13.3700 N.am      2 ALA2        0.0000 
     23 N          -7.1800    6.5300   11.9200 N.am      2 ALA2        0.0000 
     24 N          -5.9400    6.5000   11.0600 N.am      2 ALA2        0.0000 
     25 N          -7.2700    5.9600   14.4500 N.am      2 ALA2        0.0000 
     26 N          -6.0300    5.9200   13.5900 N.am      2 ALA2        0.0000 
     27 OD1        -9.9600    1.8000   10.7500 O.co2     3 ASP3        0.0000 
     28 OD1        -9.4800    4.4000    8.6900 O.co2     3 ASP3        0.0000 
     29 OD1        -9.5700    3.8300   11.2200 O.co2     3 ASP3        0.0000 
     30 OD1        -9.1900    2.5100   11.8200 O.co2     3 ASP3        0.0000 
     31 OD1        -8.8100    1.1900   12.4300 O.co2     3 ASP3        0.0000 
     32 OD1        -8.7100    5.1100    9.7600 O.co2     3 ASP3        0.0000 
     33 OD1        -7.4800    5.0800    8.9100 O.co2     3 ASP3        0.0000 
     34 OD1        -6.2500    5.0400    8.0600 O.co2     3 ASP3        0.0000 
     35 OD1        -8.4200    3.2200   12.9000 O.co2     3 ASP3        0.0000 
     36 OD1        -8.0500    1.9000   13.5000 O.co2     3 ASP3        0.0000 
     37 OD1        -7.5700    4.5000   11.4400 O.co2     3 ASP3        0.0000 
     38 OD1        -7.1900    3.1800   12.0500 O.co2     3 ASP3        0.0000 
     39 OD1        -6.8100    1.8600   12.6500 O.co2     3 ASP3        0.0000 
     40 OD1        -6.4400    0.5400   13.2500 O.co2     3 ASP3        0.0000 
     41 OD1        -6.3400    4.4600   10.5900 O.co2     3 ASP3        0.0000 
     42 OD1        -7.6600    3.9300   13.9700 O.co2     3 ASP3        0.0000 
     43 OD1        -7.2800    2.6100   14.5800 O.co2     3 ASP3        0.0000 
     44 OD1        -6.9000    1.2900   15.1800 O.co2     3 ASP3        0.0000 
     45 OD1        -6.8000    5.2100   12.5200 O.co2     3 ASP3        0.0000 
     46 OD1        -5.6700    1.2500   14.3300 O.co2     3 ASP3        0.0000 
     47 OD1        -6.8900    4.6400   15.0500 O.co2     3 ASP3        0.0000 
     48 OD1        -6.5100    3.3200   15.6500 O.co2     3 ASP3        0.0000 
     49 CZ        -10.3200    6.4700   10.0100 C.ar      4 PHE5        0.0000 
     50 CZ         -9.0900    6.4300    9.1600 C.ar      4 PHE5        0.0000 
     51 CZ         -7.9400    5.8200   10.8400 C.ar      4 PHE5        0.0000 
     52 CZ         -6.7100    5.7900    9.9900 C.ar      4 PHE5        0.0000 
     53 CZ         -5.4800    5.7500    9.1300 C.ar      4 PHE5        0.0000 
     54 CZ         -9.3700    1.3600   16.8900 C.ar      4 PHE5        0.0000 
     55 CZ         -8.1400    1.3300   16.0300 C.ar      4 PHE5        0.0000 
     56 CZ         -6.5300   -0.0300   15.7800 C.ar      4 PHE5        0.0000 
     57 CA        -12.3300    2.4500    9.9200 C.3       5 GLY6        0.0000 
     58 CA        -11.9600    1.1300   10.5300 C.3       5 GLY6        0.0000 
     59 CA        -12.8000    3.2000   11.8500 C.3       5 GLY6        0.0000 
     60 CA        -11.9400    4.4800   10.4000 C.3       5 GLY6        0.0000 
     61 CA        -11.5700    3.1600   11.0000 C.3       5 GLY6        0.0000 
     62 CA        -10.7100    4.4400    9.5400 C.3       5 GLY6        0.0000 
     63 CA        -12.4100    5.2300   12.3200 C.3       5 GLY6        0.0000 
     64 CA        -11.1800    5.1900   11.4700 C.3       5 GLY6        0.0000 
     65 CA        -10.1400    0.6500   15.8100 C.3       5 GLY6        0.0000 
     66 CA        -10.7900    7.2200   11.9400 C.3       5 GLY6        0.0000 
     67 CA         -8.9000    0.6200   14.9600 C.3       5 GLY6        0.0000 
     68 CA         -8.5300   -0.7000   15.5600 C.3       5 GLY6        0.0000 
     69 CA         -9.5500    7.1800   11.0900 C.3       5 GLY6        0.0000 
     70 CA         -9.1800    5.8600   11.6900 C.3       5 GLY6        0.0000 
     71 CA         -7.6700    0.5800   14.1000 C.3       5 GLY6        0.0000 
     72 CA         -8.5000    6.0000   15.3000 C.3       5 GLY6        0.0000 
     73 CA         -7.7500    3.3600   16.5100 C.3       5 GLY6        0.0000 
     74 CA         -7.3700    2.0400   17.1100 C.3       5 GLY6        0.0000 
     75 DU        -11.1900    1.8400   11.6000 H         6 CUB7        0.0000 
     76 DU        -10.8000    3.8700   12.0700 H         6 CUB7        0.0000 
     77 DU         -9.9400    5.1500   10.6200 H         6 CUB7        0.0000 
     78 DU        -10.0300    4.5800   13.1500 H         6 CUB7        0.0000 
     79 DU         -9.6600    3.2600   13.7500 H         6 CUB7        0.0000 
     80 DU         -9.2800    1.9400   14.3600 H         6 CUB7        0.0000 
     81 DU         -8.8000    4.5400   12.3000 H         6 CUB7        0.0000 
     82 DU         -8.5100    2.6500   15.4300 H         6 CUB7        0.0000 
@<TRIPOS>BOND
@<TRIPOS>SUBSTRUCTURE
     1 SER1        1 GROUP   
     2 ALA2       14 GROUP   
     3 ASP3       27 GROUP   
     4 PHE5       49 GROUP   
     5 GLY6       57 GROUP   
     6 CUB7       75 GROUP   
@<TRIPOS>SET

