#    Name: 6cnj_1_NCT
#    Modification time : Fri May 22 19:33:00 2020

@<TRIPOS>MOLECULE
6cnj_1_NCT
   12    13     1     0     0
SMALL
NO_CHARGES


@<TRIPOS>ATOM
      1 N1        156.8880  123.4800  170.6510 N.ar      1 NCT402      0.0000 
      2 C1        157.1490  122.9840  169.4150 C.ar      1 NCT402      0.0000 
      3 C2        158.4420  122.6000  168.9990 C.ar      1 NCT402      0.0000 
      4 C3        159.4730  122.7480  169.9200 C.ar      1 NCT402      0.0000 
      5 C4        159.2280  123.2520  171.1940 C.ar      1 NCT402      0.0000 
      6 C5        157.9180  123.6060  171.5220 C.ar      1 NCT402      0.0000 
      7 N2        157.8440  120.8290  167.4430 N.4       1 NCT402      0.0000 
      8 C6        158.6930  122.0530  167.6300 C.3       1 NCT402      0.0000 
      9 C7        158.2260  122.8660  166.4680 C.3       1 NCT402      0.0000 
     10 C8        157.9760  121.9170  165.3200 C.3       1 NCT402      0.0000 
     11 C9        157.6940  120.5920  165.9850 C.3       1 NCT402      0.0000 
     12 C10       158.7150  119.7830  167.9800 C.3       1 NCT402      0.0000 
@<TRIPOS>BOND
     1    1    2 ar   
     2    1    6 ar   
     3    2    3 ar   
     4    3    4 ar   
     5    3    8 1    
     6    4    5 ar   
     7    5    6 ar   
     8    7    8 1    
     9    7   11 1    
    10    7   12 1    
    11    8    9 1    
    12    9   10 1    
    13   10   11 1    
@<TRIPOS>SUBSTRUCTURE
     1 NCT402      1 GROUP   
@<TRIPOS>SET

