#    Name: 6cnj_1_NCT_CAVITY_N1_8
#    Modification time : Fri May 22 19:33:01 2020

@<TRIPOS>MOLECULE
6cnj_1_NCT_CAVITY_N1_8
   91     0     7     0     0
SMALL
NO_CHARGES


@<TRIPOS>ATOM
      1 OG        157.5300  119.4800  166.6200 O.3       1 SER1        0.0000 
      2 OG        156.9600  121.1600  165.4600 O.3       1 SER1        0.0000 
      3 OG        157.8800  119.9900  165.2600 O.3       1 SER1        0.0000 
      4 OG        158.9800  121.4900  172.6800 O.3       1 SER1        0.0000 
      5 OG        159.3300  122.0000  171.3100 O.3       1 SER1        0.0000 
      6 OG        161.0300  121.1000  173.0500 O.3       1 SER1        0.0000 
      7 OG        163.4100  126.0800  177.1500 O.3       1 SER1        0.0000 
      8 OG        164.3200  124.9100  176.9500 O.3       1 SER1        0.0000 
      9 N         156.6100  120.6500  166.8300 N.am      2 ALA2        0.0000 
     10 N         157.7500  121.4400  167.4100 N.am      2 ALA2        0.0000 
     11 N         155.4500  124.7200  171.3400 N.am      2 ALA2        0.0000 
     12 N         157.2800  122.3800  170.9300 N.am      2 ALA2        0.0000 
     13 N         158.1900  121.2100  170.7300 N.am      2 ALA2        0.0000 
     14 O         156.7100  124.0600  169.7600 O.2       2 ALA2        0.0000 
     15 N         157.6300  122.8900  169.5600 N.am      2 ALA2        0.0000 
     16 N         158.8900  122.2300  167.9900 N.am      2 ALA2        0.0000 
     17 N         159.8000  121.0500  167.7900 N.am      2 ALA2        0.0000 
     18 N         159.2400  122.7300  166.6200 N.am      2 ALA2        0.0000 
     19 N         160.1500  121.5600  166.4200 N.am      2 ALA2        0.0000 
     20 N         156.5900  125.5100  171.9200 N.am      2 ALA2        0.0000 
     21 N         159.6800  122.5000  169.9400 N.am      2 ALA2        0.0000 
     22 N         160.0300  123.0100  168.5700 N.am      2 ALA2        0.0000 
     23 N         160.3700  123.5200  167.2000 N.am      2 ALA2        0.0000 
     24 N         161.6400  122.8600  165.6300 N.am      2 ALA2        0.0000 
     25 N         160.4700  122.7800  171.8900 N.am      2 ALA2        0.0000 
     26 N         162.1700  121.8900  173.6400 N.am      2 ALA2        0.0000 
     27 N         163.6600  123.1800  172.8500 N.am      2 ALA2        0.0000 
     28 N         165.1400  124.4800  172.0600 N.am      2 ALA2        0.0000 
     29 N         166.0600  123.3100  171.8600 N.am      2 ALA2        0.0000 
     30 OD1       160.6900  120.5900  174.4200 O.co2     3 ASP3        0.0000 
     31 OD1       161.8200  121.3800  175.0000 O.co2     3 ASP3        0.0000 
     32 OD1       163.3100  122.6700  174.2200 O.co2     3 ASP3        0.0000 
     33 OD1       164.2200  121.5000  174.0100 O.co2     3 ASP3        0.0000 
     34 OD1       164.4500  123.4600  174.8000 O.co2     3 ASP3        0.0000 
     35 OD1       165.3600  122.2900  174.6000 O.co2     3 ASP3        0.0000 
     36 OD1       165.5800  124.2500  175.3800 O.co2     3 ASP3        0.0000 
     37 NZ        163.0900  120.7200  173.4300 N.4       4 LYS4        0.0000 
     38 CZ        156.0500  122.3300  165.6600 C.ar      5 PHE5        0.0000 
     39 CZ        157.3100  121.6700  164.0900 C.ar      5 PHE5        0.0000 
     40 CZ        158.3200  119.7600  168.5700 C.ar      5 PHE5        0.0000 
     41 CZ        156.8400  122.6100  167.6100 C.ar      5 PHE5        0.0000 
     42 CZ        158.6700  120.2700  167.2100 C.ar      5 PHE5        0.0000 
     43 CZ        159.5800  119.1000  167.0000 C.ar      5 PHE5        0.0000 
     44 CZ        159.0100  120.7800  165.8400 C.ar      5 PHE5        0.0000 
     45 CZ        157.5300  123.6300  164.8800 C.ar      5 PHE5        0.0000 
     46 CZ        158.4500  122.4600  164.6700 C.ar      5 PHE5        0.0000 
     47 CZ        159.3600  121.2800  164.4700 C.ar      5 PHE5        0.0000 
     48 CZ        159.4600  120.5500  169.1600 C.ar      5 PHE5        0.0000 
     49 CZ        159.5800  123.2400  165.2600 C.ar      5 PHE5        0.0000 
     50 CZ        158.6400  125.1300  172.3000 C.ar      5 PHE5        0.0000 
     51 CZ        159.5500  123.9500  172.0900 C.ar      5 PHE5        0.0000 
     52 CZ        158.9900  125.6300  170.9300 C.ar      5 PHE5        0.0000 
     53 CZ        161.6000  123.5700  172.4700 C.ar      5 PHE5        0.0000 
     54 CZ        161.4800  125.0200  174.6200 C.ar      5 PHE5        0.0000 
     55 CZ        162.3900  123.8500  174.4200 C.ar      5 PHE5        0.0000 
     56 CZ        162.7400  124.3500  173.0500 C.ar      5 PHE5        0.0000 
     57 CZ        163.5300  124.6300  175.0000 C.ar      5 PHE5        0.0000 
     58 CZ        163.8800  125.1400  173.6300 C.ar      5 PHE5        0.0000 
     59 CZ        165.0200  125.9300  174.2200 C.ar      5 PHE5        0.0000 
     60 CZ        165.3600  126.4400  172.8500 C.ar      5 PHE5        0.0000 
     61 CA        157.1900  123.1200  166.2400 C.3       6 GLY6        0.0000 
     62 CA        156.0200  123.0400  172.5000 C.3       6 GLY6        0.0000 
     63 CA        156.9300  121.8700  172.3000 C.3       6 GLY6        0.0000 
     64 CA        156.3600  123.5500  171.1300 C.3       6 GLY6        0.0000 
     65 CA        157.9700  123.4000  168.1900 C.3       6 GLY6        0.0000 
     66 CA        158.6700  124.4100  165.4600 C.3       6 GLY6        0.0000 
     67 CA        160.5000  122.0700  165.0500 C.3       6 GLY6        0.0000 
     68 CA        160.8500  122.5800  163.6800 C.3       6 GLY6        0.0000 
     69 CA        157.1500  123.8300  173.0800 C.3       6 GLY6        0.0000 
     70 CA        158.0700  122.6600  172.8800 C.3       6 GLY6        0.0000 
     71 CA        156.9400  126.0200  170.5500 C.3       6 GLY6        0.0000 
     72 CA        157.8500  124.8500  170.3500 C.3       6 GLY6        0.0000 
     73 CA        158.7600  123.6800  170.1400 C.3       6 GLY6        0.0000 
     74 CA        159.8100  125.2000  166.0400 C.3       6 GLY6        0.0000 
     75 CA        160.7200  124.0300  165.8400 C.3       6 GLY6        0.0000 
     76 CA        161.9800  123.3700  164.2700 C.3       6 GLY6        0.0000 
     77 CA        160.1200  122.2700  173.2600 C.3       6 GLY6        0.0000 
     78 CA        160.9100  122.5500  175.2100 C.3       6 GLY6        0.0000 
     79 CA        160.3400  124.2300  174.0400 C.3       6 GLY6        0.0000 
     80 CA        161.2600  123.0600  173.8400 C.3       6 GLY6        0.0000 
     81 CA        162.0500  123.3400  175.7900 C.3       6 GLY6        0.0000 
     82 CA        164.5700  122.0100  172.6500 C.3       6 GLY6        0.0000 
     83 CA        163.1800  124.1200  176.3700 C.3       6 GLY6        0.0000 
     84 CA        162.6200  125.8000  175.2000 C.3       6 GLY6        0.0000 
     85 CA        165.7100  122.8000  173.2300 C.3       6 GLY6        0.0000 
     86 DU        158.1000  121.9500  166.0400 H         7 CUB7        0.0000 
     87 DU        157.5000  124.3400  171.7100 H         7 CUB7        0.0000 
     88 DU        158.4200  123.1700  171.5100 H         7 CUB7        0.0000 
     89 DU        164.7900  123.9700  173.4300 H         7 CUB7        0.0000 
     90 DU        164.6700  125.4200  175.5800 H         7 CUB7        0.0000 
     91 DU        165.9300  124.7600  174.0100 H         7 CUB7        0.0000 
@<TRIPOS>BOND
@<TRIPOS>SUBSTRUCTURE
     1 SER1        1 GROUP   
     2 ALA2        9 GROUP   
     3 ASP3       30 GROUP   
     4 LYS4       37 GROUP   
     5 PHE5       38 GROUP   
     6 GLY6       61 GROUP   
     7 CUB7       86 GROUP   
@<TRIPOS>SET

