#    Name: 6cnj_7_NCT
#    Modification time : Fri May 22 19:33:10 2020

@<TRIPOS>MOLECULE
6cnj_7_NCT
   12    13     1     0     0
SMALL
NO_CHARGES


@<TRIPOS>ATOM
      1 N1        108.0250  125.3400  171.0630 N.ar      1 NCT402      0.0000 
      2 C1        107.5010  125.5990  169.8390 C.ar      1 NCT402      0.0000 
      3 C2        106.2340  125.1280  169.4310 C.ar      1 NCT402      0.0000 
      4 C3        105.5160  124.3680  170.3470 C.ar      1 NCT402      0.0000 
      5 C4        106.0330  124.0910  171.6090 C.ar      1 NCT402      0.0000 
      6 C5        107.2940  124.5980  171.9300 C.ar      1 NCT402      0.0000 
      7 N2        105.6170  126.9280  167.9160 N.4       1 NCT402      0.0000 
      8 C6        105.6860  125.4370  168.0730 C.3       1 NCT402      0.0000 
      9 C7        106.5350  125.0950  166.8940 C.3       1 NCT402      0.0000 
     10 C8        106.1430  126.0240  165.7680 C.3       1 NCT402      0.0000 
     11 C9        105.5730  127.2350  166.4650 C.3       1 NCT402      0.0000 
     12 C10       104.2960  127.2210  168.4760 C.3       1 NCT402      0.0000 
@<TRIPOS>BOND
     1    1    2 ar   
     2    1    6 ar   
     3    2    3 ar   
     4    3    4 ar   
     5    3    8 1    
     6    4    5 ar   
     7    5    6 ar   
     8    7    8 1    
     9    7   11 1    
    10    7   12 1    
    11    8    9 1    
    12    9   10 1    
    13   10   11 1    
@<TRIPOS>SUBSTRUCTURE
     1 NCT402      1 GROUP   
@<TRIPOS>SET

