#    Name: 6cnj_7_NCT_CAVITY_N1_8
#    Modification time : Fri May 22 19:33:11 2020

@<TRIPOS>MOLECULE
6cnj_7_NCT_CAVITY_N1_8
   77     0     7     0     0
SMALL
NO_CHARGES


@<TRIPOS>ATOM
      1 OG        103.5500  124.3000  172.7900 O.3       1 SER1        0.0000 
      2 OG        104.6900  125.0900  173.3700 O.3       1 SER1        0.0000 
      3 OG        105.0400  125.6000  172.0000 O.3       1 SER1        0.0000 
      4 OG        105.9500  124.4300  171.8000 O.3       1 SER1        0.0000 
      5 OG        105.3900  126.1100  170.6300 O.3       1 SER1        0.0000 
      6 OG        105.5200  128.8000  166.7300 O.3       1 SER1        0.0000 
      7 OG        106.4300  127.6300  166.5300 O.3       1 SER1        0.0000 
      8 OG        106.7800  128.1400  165.1600 O.3       1 SER1        0.0000 
      9 N         102.0700  123.0100  173.5700 N.am      2 ALA2        0.0000 
     10 N         102.9800  121.8400  173.3700 N.am      2 ALA2        0.0000 
     11 N         104.7200  124.3800  166.5300 N.am      2 ALA2        0.0000 
     12 N         103.2100  123.7900  174.1500 N.am      2 ALA2        0.0000 
     13 N         104.1200  122.6200  173.9500 N.am      2 ALA2        0.0000 
     14 N         104.4700  123.1300  172.5800 N.am      2 ALA2        0.0000 
     15 N         104.8200  123.6400  171.2200 N.am      2 ALA2        0.0000 
     16 N         105.1600  124.1500  169.8500 N.am      2 ALA2        0.0000 
     17 N         105.5100  124.6600  168.4800 N.am      2 ALA2        0.0000 
     18 N         106.3000  124.9300  170.4300 N.am      2 ALA2        0.0000 
     19 N         105.7400  126.6100  169.2700 N.am      2 ALA2        0.0000 
     20 N         106.6500  125.4400  169.0600 N.am      2 ALA2        0.0000 
     21 N         105.1700  128.2900  168.1000 N.am      2 ALA2        0.0000 
     22 N         106.0800  127.1200  167.9000 N.am      2 ALA2        0.0000 
     23 N         108.9200  122.8700  171.9700 N.am      2 ALA2        0.0000 
     24 N         107.4400  125.7200  171.0100 N.am      2 ALA2        0.0000 
     25 N         107.7900  126.2300  169.6400 N.am      2 ALA2        0.0000 
     26 O         108.7000  125.0600  169.4400 O.2       2 ALA2        0.0000 
     27 N         109.1400  124.8300  172.7600 N.am      2 ALA2        0.0000 
     28 OD1       101.5000  120.5400  174.1600 O.co2     3 ASP3        0.0000 
     29 OD1       102.6400  121.3300  174.7400 O.co2     3 ASP3        0.0000 
     30 OD1       103.4300  121.6100  176.6900 O.co2     3 ASP3        0.0000 
     31 NZ        101.1600  124.1800  173.7800 N.4       4 LYS4        0.0000 
     32 CZ        103.5500  120.1600  174.5300 C.ar      5 PHE5        0.0000 
     33 CZ        103.9000  120.6600  173.1700 C.ar      5 PHE5        0.0000 
     34 CZ        103.8100  125.5500  166.7300 C.ar      5 PHE5        0.0000 
     35 CZ        104.1600  126.0600  165.3700 C.ar      5 PHE5        0.0000 
     36 CZ        105.0700  124.8900  165.1600 C.ar      5 PHE5        0.0000 
     37 CZ        105.9800  123.7100  164.9600 C.ar      5 PHE5        0.0000 
     38 CZ        104.5000  126.5700  164.0000 C.ar      5 PHE5        0.0000 
     39 CZ        104.6900  120.9400  175.1200 C.ar      5 PHE5        0.0000 
     40 CZ        104.6000  125.8300  168.6800 C.ar      5 PHE5        0.0000 
     41 CZ        104.0300  127.5100  167.5200 C.ar      5 PHE5        0.0000 
     42 CZ        104.3800  128.0200  166.1500 C.ar      5 PHE5        0.0000 
     43 CZ        105.2900  126.8400  165.9500 C.ar      5 PHE5        0.0000 
     44 CZ        106.2100  125.6700  165.7500 C.ar      5 PHE5        0.0000 
     45 CZ        104.7300  128.5200  164.7800 C.ar      5 PHE5        0.0000 
     46 CZ        105.6400  127.3500  164.5800 C.ar      5 PHE5        0.0000 
     47 CZ        106.5600  126.1800  164.3800 C.ar      5 PHE5        0.0000 
     48 CZ        106.5200  122.7500  172.9600 C.ar      5 PHE5        0.0000 
     49 CZ        106.8700  123.2500  171.5900 C.ar      5 PHE5        0.0000 
     50 CZ        107.0000  125.9500  167.6900 C.ar      5 PHE5        0.0000 
     51 CZ        107.3400  126.4600  166.3300 C.ar      5 PHE5        0.0000 
     52 CZ        108.2600  125.2900  166.1200 C.ar      5 PHE5        0.0000 
     53 CZ        107.6900  126.9700  164.9600 C.ar      5 PHE5        0.0000 
     54 CZ        108.0100  124.0400  172.1800 C.ar      5 PHE5        0.0000 
     55 CA        103.5900  123.5900  165.9500 C.3       6 GLY6        0.0000 
     56 CA        103.9300  124.1000  164.5800 C.3       6 GLY6        0.0000 
     57 CA        105.6400  123.2100  166.3300 C.3       6 GLY6        0.0000 
     58 CA        103.7700  122.1100  175.3200 C.3       6 GLY6        0.0000 
     59 CA        106.0800  122.9800  169.6500 C.3       6 GLY6        0.0000 
     60 CA        106.4300  123.4800  168.2800 C.3       6 GLY6        0.0000 
     61 CA        106.7700  123.9900  166.9100 C.3       6 GLY6        0.0000 
     62 CA        107.1200  124.5000  165.5400 C.3       6 GLY6        0.0000 
     63 CA        104.3400  124.5800  174.7400 C.3       6 GLY6        0.0000 
     64 CA        105.6100  123.9200  173.1700 C.3       6 GLY6        0.0000 
     65 CA        107.2200  123.7600  170.2300 C.3       6 GLY6        0.0000 
     66 CA        107.5600  124.2700  168.8600 C.3       6 GLY6        0.0000 
     67 CA        105.8300  125.8800  173.9500 C.3       6 GLY6        0.0000 
     68 CA        107.6600  123.5300  173.5400 C.3       6 GLY6        0.0000 
     69 CA        106.1800  126.3800  172.5800 C.3       6 GLY6        0.0000 
     70 CA        107.0900  125.2100  172.3800 C.3       6 GLY6        0.0000 
     71 CA        108.3500  124.5500  170.8100 C.3       6 GLY6        0.0000 
     72 CA        107.8800  125.4900  174.3300 C.3       6 GLY6        0.0000 
     73 CA        108.7900  124.3200  174.1300 C.3       6 GLY6        0.0000 
     74 CA        108.2300  126.0000  172.9600 C.3       6 GLY6        0.0000 
     75 CA        109.4900  125.3400  171.3900 C.3       6 GLY6        0.0000 
     76 DU        104.9500  126.3400  167.3200 H         7 CUB7        0.0000 
     77 DU        105.8600  125.1600  167.1100 H         7 CUB7        0.0000 
@<TRIPOS>BOND
@<TRIPOS>SUBSTRUCTURE
     1 SER1        1 GROUP   
     2 ALA2        9 GROUP   
     3 ASP3       28 GROUP   
     4 LYS4       31 GROUP   
     5 PHE5       32 GROUP   
     6 GLY6       55 GROUP   
     7 CUB7       76 GROUP   
@<TRIPOS>SET

