#    Name: 6a6s_1_FSA_CAVITY_N1_4
#    Modification time : Fri May 22 19:25:02 2020

@<TRIPOS>MOLECULE
6a6s_1_FSA_CAVITY_N1_4
   52     0     7     0     0
SMALL
NO_CHARGES


@<TRIPOS>ATOM
      1 OG         26.6300    1.3000  -17.0500 O.3       1 SER1        0.0000 
      2 OG         27.8700    0.8900  -13.9600 O.3       1 SER1        0.0000 
      3 OG         27.9100   -0.5200  -13.4300 O.3       1 SER1        0.0000 
      4 OG         28.5100   -0.0200  -12.1500 O.3       1 SER1        0.0000 
      5 N          24.5600   -0.6600  -13.5700 N.am      2 ALA2        0.0000 
      6 N          24.6000   -2.0600  -13.0400 N.am      2 ALA2        0.0000 
      7 N          25.9700   -2.2400  -13.6100 N.am      2 ALA2        0.0000 
      8 O          29.9800    1.4400  -16.9200 O.2       2 ALA2        0.0000 
      9 N          26.5300   -0.3400  -12.8600 N.am      2 ALA2        0.0000 
     10 N          26.5700   -1.7400  -12.3300 N.am      2 ALA2        0.0000 
     11 N          27.9500   -1.9200  -12.9100 N.am      2 ALA2        0.0000 
     12 N          29.2800   -0.6900  -14.0100 N.am      2 ALA2        0.0000 
     13 O          31.9500    1.7600  -16.2100 O.2       2 ALA2        0.0000 
     14 N          29.8800   -0.2000  -12.7300 N.am      2 ALA2        0.0000 
     15 N          32.5200    3.6600  -15.4600 N.am      2 ALA2        0.0000 
     16 N          32.5500    2.2500  -14.9300 N.am      2 ALA2        0.0000 
     17 OD1        23.1900   -0.4800  -12.9900 O.co2     3 ASP3        0.0000 
     18 OD1        27.2300    1.7900  -15.7700 O.co2     3 ASP3        0.0000 
     19 OD1        27.8300    2.2900  -14.4900 O.co2     3 ASP3        0.0000 
     20 OD1        29.1700    3.5200  -15.5900 O.co2     3 ASP3        0.0000 
     21 OD1        29.2100    2.1100  -15.0600 O.co2     3 ASP3        0.0000 
     22 OD1        29.8400    1.2100  -13.2600 O.co2     3 ASP3        0.0000 
     23 OD1        31.1800    2.4300  -14.3600 O.co2     3 ASP3        0.0000 
     24 OD1        31.2200    1.0300  -13.8300 O.co2     3 ASP3        0.0000 
     25 NZ         23.9600   -1.1500  -14.8500 N.4       4 LYS4        0.0000 
     26 NZ         25.3300   -1.3300  -15.4200 N.4       4 LYS4        0.0000 
     27 NZ         26.6700   -0.1100  -16.5200 N.4       4 LYS4        0.0000 
     28 NZ         27.2700    0.3900  -15.2400 N.4       4 LYS4        0.0000 
     29 CZ         25.3700   -2.7400  -14.8900 C.ar      5 PHE5        0.0000 
     30 CZ         26.7100   -1.5100  -16.0000 C.ar      5 PHE5        0.0000 
     31 CZ         23.2200   -1.8800  -12.4600 C.ar      5 PHE5        0.0000 
     32 CZ         24.5200    0.7500  -14.0900 C.ar      5 PHE5        0.0000 
     33 CZ         25.8600    1.9700  -15.2000 C.ar      5 PHE5        0.0000 
     34 CZ         25.8900    0.5700  -14.6700 C.ar      5 PHE5        0.0000 
     35 CZ         27.3100   -1.0100  -14.7200 C.ar      5 PHE5        0.0000 
     36 CZ         27.3500   -2.4200  -14.1900 C.ar      5 PHE5        0.0000 
     37 CZ         28.6000    1.6100  -16.3500 C.ar      5 PHE5        0.0000 
     38 CZ         28.6400    0.2100  -15.8200 C.ar      5 PHE5        0.0000 
     39 CZ         28.7200   -2.6000  -14.7600 C.ar      5 PHE5        0.0000 
     40 CA         28.6800   -1.1900  -15.2900 C.3       6 GLY6        0.0000 
     41 CA         30.0200    0.0300  -16.3900 C.3       6 GLY6        0.0000 
     42 CA         30.6200    0.5300  -15.1100 C.3       6 GLY6        0.0000 
     43 CA         30.6600   -0.8700  -14.5800 C.3       6 GLY6        0.0000 
     44 CA         31.9900    0.3500  -15.6900 C.3       6 GLY6        0.0000 
     45 CA         29.8100    2.6100  -13.7800 C.3       6 GLY6        0.0000 
     46 CA         31.1400    3.8400  -14.8900 C.3       6 GLY6        0.0000 
     47 CA         31.2600   -0.3700  -13.3000 C.3       6 GLY6        0.0000 
     48 CA         32.5900    0.8500  -14.4000 C.3       6 GLY6        0.0000 
     49 DU         25.9300   -0.8400  -14.1400 H         7 CUB7        0.0000 
     50 DU         29.2400    0.7100  -14.5400 H         7 CUB7        0.0000 
     51 DU         30.5400    3.3400  -16.1700 H         7 CUB7        0.0000 
     52 DU         30.5800    1.9300  -15.6400 H         7 CUB7        0.0000 
@<TRIPOS>BOND
@<TRIPOS>SUBSTRUCTURE
     1 SER1        1 GROUP   
     2 ALA2        5 GROUP   
     3 ASP3       17 GROUP   
     4 LYS4       25 GROUP   
     5 PHE5       29 GROUP   
     6 GLY6       40 GROUP   
     7 CUB7       49 GROUP   
@<TRIPOS>SET

