#    Name: 6a6s_1_FSA_CAVITY_N1_12
#    Modification time : Fri May 22 19:25:02 2020

@<TRIPOS>MOLECULE
6a6s_1_FSA_CAVITY_N1_12
   88     0     7     0     0
SMALL
NO_CHARGES


@<TRIPOS>ATOM
      1 OG         25.9100    5.0100  -19.9200 O.3       1 SER1        0.0000 
      2 OG         26.5500    4.1000  -18.1100 O.3       1 SER1        0.0000 
      3 OG         26.6300    1.3000  -17.0500 O.3       1 SER1        0.0000 
      4 OG         27.8700    0.8900  -13.9600 O.3       1 SER1        0.0000 
      5 OG         27.9100   -0.5200  -13.4300 O.3       1 SER1        0.0000 
      6 OG         28.5100   -0.0200  -12.1500 O.3       1 SER1        0.0000 
      7 N          24.5600   -0.6600  -13.5700 N.am      2 ALA2        0.0000 
      8 N          24.6000   -2.0600  -13.0400 N.am      2 ALA2        0.0000 
      9 N          25.9700   -2.2400  -13.6100 N.am      2 ALA2        0.0000 
     10 O          29.9800    1.4400  -16.9200 O.2       2 ALA2        0.0000 
     11 O          31.3100    2.6600  -18.0200 O.2       2 ALA2        0.0000 
     12 N          26.5300   -0.3400  -12.8600 N.am      2 ALA2        0.0000 
     13 N          26.5700   -1.7400  -12.3300 N.am      2 ALA2        0.0000 
     14 N          27.9500   -1.9200  -12.9100 N.am      2 ALA2        0.0000 
     15 N          29.2800   -0.6900  -14.0100 N.am      2 ALA2        0.0000 
     16 O          31.9100    3.1600  -16.7400 O.2       2 ALA2        0.0000 
     17 O          31.9500    1.7600  -16.2100 O.2       2 ALA2        0.0000 
     18 O          33.2900    2.9800  -17.3200 O.2       2 ALA2        0.0000 
     19 N          29.8800   -0.2000  -12.7300 N.am      2 ALA2        0.0000 
     20 N          32.4000    7.8700  -17.0400 N.am      2 ALA2        0.0000 
     21 N          32.5200    3.6600  -15.4600 N.am      2 ALA2        0.0000 
     22 N          32.5500    2.2500  -14.9300 N.am      2 ALA2        0.0000 
     23 N          33.7700    7.6900  -17.6200 N.am      2 ALA2        0.0000 
     24 N          33.8900    3.4800  -16.0300 N.am      2 ALA2        0.0000 
     25 OD1        27.2900    4.8300  -20.4900 O.co2     3 ASP3        0.0000 
     26 OD1        26.4800    6.9100  -19.1600 O.co2     3 ASP3        0.0000 
     27 OD1        26.5200    5.5100  -18.6400 O.co2     3 ASP3        0.0000 
     28 OD1        27.8900    5.3300  -19.2100 O.co2     3 ASP3        0.0000 
     29 OD1        23.1900   -0.4800  -12.9900 O.co2     3 ASP3        0.0000 
     30 OD1        27.2300    1.7900  -15.7700 O.co2     3 ASP3        0.0000 
     31 OD1        28.5300    4.4200  -17.4000 O.co2     3 ASP3        0.0000 
     32 OD1        28.5700    3.0200  -16.8700 O.co2     3 ASP3        0.0000 
     33 OD1        29.8600    5.6500  -18.5000 O.co2     3 ASP3        0.0000 
     34 OD1        27.8300    2.2900  -14.4900 O.co2     3 ASP3        0.0000 
     35 OD1        29.1300    4.9200  -16.1200 O.co2     3 ASP3        0.0000 
     36 OD1        29.1700    3.5200  -15.5900 O.co2     3 ASP3        0.0000 
     37 OD1        29.2100    2.1100  -15.0600 O.co2     3 ASP3        0.0000 
     38 OD1        30.4600    6.1400  -17.2200 O.co2     3 ASP3        0.0000 
     39 OD1        29.8400    1.2100  -13.2600 O.co2     3 ASP3        0.0000 
     40 OD1        31.1800    2.4300  -14.3600 O.co2     3 ASP3        0.0000 
     41 OD1        31.2200    1.0300  -13.8300 O.co2     3 ASP3        0.0000 
     42 NZ         23.9600   -1.1500  -14.8500 N.4       4 LYS4        0.0000 
     43 NZ         25.2200    2.8800  -17.0100 N.4       4 LYS4        0.0000 
     44 NZ         25.3300   -1.3300  -15.4200 N.4       4 LYS4        0.0000 
     45 NZ         26.6700   -0.1100  -16.5200 N.4       4 LYS4        0.0000 
     46 NZ         27.2700    0.3900  -15.2400 N.4       4 LYS4        0.0000 
     47 NZ         29.9000    4.2400  -17.9800 N.4       4 LYS4        0.0000 
     48 NZ         31.2800    4.0600  -18.5500 N.4       4 LYS4        0.0000 
     49 NZ         31.8400    5.9700  -17.8000 N.4       4 LYS4        0.0000 
     50 NZ         31.8800    4.5600  -17.2700 N.4       4 LYS4        0.0000 
     51 NZ         33.1700    7.1900  -18.9000 N.4       4 LYS4        0.0000 
     52 NZ         33.2100    5.7900  -18.3700 N.4       4 LYS4        0.0000 
     53 NZ         33.2500    4.3800  -17.8400 N.4       4 LYS4        0.0000 
     54 CZ         25.3700   -2.7400  -14.8900 C.ar      5 PHE5        0.0000 
     55 CZ         26.7100   -1.5100  -16.0000 C.ar      5 PHE5        0.0000 
     56 CZ         27.9300    3.9200  -18.6800 C.ar      5 PHE5        0.0000 
     57 CZ         27.9700    2.5200  -18.1500 C.ar      5 PHE5        0.0000 
     58 CZ         29.3000    3.7400  -19.2600 C.ar      5 PHE5        0.0000 
     59 CZ         29.3400    2.3400  -18.7300 C.ar      5 PHE5        0.0000 
     60 CZ         29.3800    0.9400  -18.2000 C.ar      5 PHE5        0.0000 
     61 CZ         23.2200   -1.8800  -12.4600 C.ar      5 PHE5        0.0000 
     62 CZ         24.5200    0.7500  -14.0900 C.ar      5 PHE5        0.0000 
     63 CZ         25.8600    1.9700  -15.2000 C.ar      5 PHE5        0.0000 
     64 CZ         25.8900    0.5700  -14.6700 C.ar      5 PHE5        0.0000 
     65 CZ         27.3100   -1.0100  -14.7200 C.ar      5 PHE5        0.0000 
     66 CZ         27.3500   -2.4200  -14.1900 C.ar      5 PHE5        0.0000 
     67 CZ         28.6000    1.6100  -16.3500 C.ar      5 PHE5        0.0000 
     68 CZ         28.6400    0.2100  -15.8200 C.ar      5 PHE5        0.0000 
     69 CZ         28.7200   -2.6000  -14.7600 C.ar      5 PHE5        0.0000 
     70 CA         28.6800   -1.1900  -15.2900 C.3       6 GLY6        0.0000 
     71 CA         30.0200    0.0300  -16.3900 C.3       6 GLY6        0.0000 
     72 CA         30.5000    4.7400  -16.6900 C.3       6 GLY6        0.0000 
     73 CA         30.6200    0.5300  -15.1100 C.3       6 GLY6        0.0000 
     74 CA         30.6600   -0.8700  -14.5800 C.3       6 GLY6        0.0000 
     75 CA         31.8000    7.3700  -18.3200 C.3       6 GLY6        0.0000 
     76 CA         31.9900    0.3500  -15.6900 C.3       6 GLY6        0.0000 
     77 CA         33.1400    8.5900  -19.4300 C.3       6 GLY6        0.0000 
     78 CA         29.8100    2.6100  -13.7800 C.3       6 GLY6        0.0000 
     79 CA         31.1000    5.2400  -15.4100 C.3       6 GLY6        0.0000 
     80 CA         31.1400    3.8400  -14.8900 C.3       6 GLY6        0.0000 
     81 CA         31.2600   -0.3700  -13.3000 C.3       6 GLY6        0.0000 
     82 CA         32.5900    0.8500  -14.4000 C.3       6 GLY6        0.0000 
     83 CA         33.7400    9.0900  -18.1500 C.3       6 GLY6        0.0000 
     84 DU         25.9300   -0.8400  -14.1400 H         7 CUB7        0.0000 
     85 DU         29.9400    2.8400  -17.4500 H         7 CUB7        0.0000 
     86 DU         29.2400    0.7100  -14.5400 H         7 CUB7        0.0000 
     87 DU         30.5400    3.3400  -16.1700 H         7 CUB7        0.0000 
     88 DU         30.5800    1.9300  -15.6400 H         7 CUB7        0.0000 
@<TRIPOS>BOND
@<TRIPOS>SUBSTRUCTURE
     1 SER1        1 GROUP   
     2 ALA2        7 GROUP   
     3 ASP3       25 GROUP   
     4 LYS4       42 GROUP   
     5 PHE5       54 GROUP   
     6 GLY6       70 GROUP   
     7 CUB7       84 GROUP   
@<TRIPOS>SET

