#    Name: 6a6s_1_FSA
#    Modification time : Fri May 22 19:25:00 2020

@<TRIPOS>MOLECULE
6a6s_1_FSA
   16    16     1     0     0
SMALL
NO_CHARGES


@<TRIPOS>ATOM
      1 OAB        29.4340    1.8120  -11.7080 O.co2     1 FSA502      0.0000 
      2 CAL        30.0490    1.2910  -12.6610 C.2       1 FSA502      0.0000 
      3 OAA        31.2350    1.5950  -12.9220 O.co2     1 FSA502      0.0000 
      4 CAH        29.3940    0.1590  -13.4370 C.3       1 FSA502      0.0000 
      5 SAK        27.9430   -0.4520  -12.6250 S.3       1 FSA502      0.0000 
      6 CAI        27.3630   -1.7850  -13.6400 C.3       1 FSA502      0.0000 
      7 CAP        25.8470   -2.0140  -13.5040 C.3       1 FSA502      0.0000 
      8 OAF        25.4870   -3.3330  -13.9510 O.3       1 FSA502      0.0000 
      9 CAO        25.1060   -0.9760  -14.3550 C.3       1 FSA502      0.0000 
     10 OAE        25.4280   -1.1430  -15.7420 O.3       1 FSA502      0.0000 
     11 CAN        23.5950   -1.0490  -14.1690 C.3       1 FSA502      0.0000 
     12 OAD        23.0190    0.1000  -14.7980 O.3       1 FSA502      0.0000 
     13 CAM        23.2370   -1.0470  -12.6820 C.3       1 FSA502      0.0000 
     14 OAC        23.5230    0.2450  -12.1410 O.3       1 FSA502      0.0000 
     15 CAG        24.0370   -2.1040  -11.9320 C.3       1 FSA502      0.0000 
     16 OAJ        25.4340   -1.8550  -12.1330 O.3       1 FSA502      0.0000 
@<TRIPOS>BOND
     1    1    2 ar   
     2    2    3 ar   
     3    2    4 1    
     4    4    5 1    
     5    5    6 1    
     6    6    7 1    
     7    7    8 1    
     8    7    9 1    
     9    7   16 1    
    10    9   10 1    
    11    9   11 1    
    12   11   12 1    
    13   11   13 1    
    14   13   14 1    
    15   13   15 1    
    16   15   16 1    
@<TRIPOS>SUBSTRUCTURE
     1 FSA502      1 GROUP   
@<TRIPOS>SET

