#    Name: 6owe_6_NDP
#    Modification time : Fri May 22 19:33:16 2020

@<TRIPOS>MOLECULE
6owe_6_NDP
   48    52     1     0     1
SMALL
NO_CHARGES


@<TRIPOS>ATOM
      1 PA        -13.9780  -21.3380   -9.1440 P.3       1 NDP501      0.0000 
      2 O1A       -13.3290  -21.4160   -7.8820 O.co2     1 NDP501      0.0000 
      3 O2A       -14.9490  -22.3510   -9.4070 O.co2     1 NDP501      0.0000 
      4 O5B       -12.8830  -21.4110  -10.3440 O.3       1 NDP501      0.0000 
      5 C5B       -11.8290  -20.6250  -10.1120 C.3       1 NDP501      0.0000 
      6 C4B       -10.4850  -21.2840  -10.6630 C.3       1 NDP501      0.0000 
      7 O4B        -9.4240  -20.4540  -10.5700 O.3       1 NDP501      0.0000 
      8 C3B       -10.1940  -22.5410   -9.8370 C.3       1 NDP501      0.0000 
      9 O3B       -10.8430  -23.5450  -10.4010 O.3       1 NDP501      0.0000 
     10 C2B        -8.6010  -22.6640   -9.9810 C.3       1 NDP501      0.0000 
     11 O2B        -8.2750  -23.4500  -10.8890 O.3       1 NDP501      0.0000 
     12 C1B        -8.2470  -21.1560  -10.4030 C.3       1 NDP501      0.0000 
     13 N9A        -7.4730  -20.4290   -9.4760 N.pl3     1 NDP501      0.0000 
     14 C8A        -7.7910  -20.0730   -8.2300 C.2       1 NDP501      0.0000 
     15 N7A        -6.8680  -19.3470   -7.6200 N.2       1 NDP501      0.0000 
     16 C5A        -5.9000  -19.2520   -8.5300 C.ar      1 NDP501      0.0000 
     17 C6A        -4.6450  -18.6620   -8.5210 C.ar      1 NDP501      0.0000 
     18 N6A        -4.2340  -17.9960   -7.4330 N.pl3     1 NDP501      0.0000 
     19 N1A        -3.8580  -18.7210   -9.6070 N.ar      1 NDP501      0.0000 
     20 C2A        -4.3320  -19.3680  -10.6270 C.ar      1 NDP501      0.0000 
     21 N3A        -5.4580  -19.9590  -10.7680 N.ar      1 NDP501      0.0000 
     22 C4A        -6.2460  -19.9110   -9.7070 C.ar      1 NDP501      0.0000 
     23 O3        -14.6460  -19.8520   -9.0540 O.3       1 NDP501      0.0000 
     24 PN        -15.4630  -19.2720  -10.2890 P.3       1 NDP501      0.0000 
     25 O1N       -14.8880  -19.6860  -11.5520 O.co2     1 NDP501      0.0000 
     26 O2N       -16.9290  -19.2780  -10.0550 O.co2     1 NDP501      0.0000 
     27 O5D       -15.1360  -17.6150  -10.1020 O.3       1 NDP501      0.0000 
     28 C5D       -13.8780  -17.3200  -10.1280 C.3       1 NDP501      0.0000 
     29 C4D       -13.6720  -15.7970   -9.8500 C.3       1 NDP501      0.0000 
     30 O4D       -14.4960  -15.0160  -10.7100 O.3       1 NDP501      0.0000 
     31 C3D       -14.1020  -15.4500   -8.3900 C.3       1 NDP501      0.0000 
     32 O3D       -13.3310  -14.4990   -7.9360 O.3       1 NDP501      0.0000 
     33 C2D       -15.5340  -14.9690   -8.6080 C.3       1 NDP501      0.0000 
     34 O2D       -15.9870  -14.1000   -7.6730 O.3       1 NDP501      0.0000 
     35 C1D       -15.3290  -14.2060  -10.0000 C.3       1 NDP501      0.0000 
     36 N1N       -16.6010  -14.0630  -10.7210 N.pl3     1 NDP501      0.0000 
     37 C2N       -17.0150  -12.8630  -11.1970 C.2       1 NDP501      0.0000 
     38 C3N       -18.1390  -12.7700  -11.9370 C.2       1 NDP501      0.0000 
     39 C7N       -18.6090  -11.4480  -12.4240 C.2       1 NDP501      0.0000 
     40 O7N       -19.7000  -11.2690  -12.8030 O.2       1 NDP501      0.0000 
     41 N7N       -17.7500  -10.4200  -12.4440 N.am      1 NDP501      0.0000 
     42 C4N       -18.9900  -13.9090  -12.1010 C.3       1 NDP501      0.0000 
     43 C5N       -18.3520  -15.1540  -11.7060 C.2       1 NDP501      0.0000 
     44 C6N       -17.2830  -15.1510  -10.9770 C.2       1 NDP501      0.0000 
     45 P2B        -6.8870  -24.5000  -10.7640 P.3       1 NDP501      0.0000 
     46 O1X        -7.4140  -25.7240  -11.3580 O.co2     1 NDP501      0.0000 
     47 O2X        -5.8560  -23.7610  -11.5750 O.co2     1 NDP501      0.0000 
     48 O3X        -6.6240  -24.5320   -9.3470 O.co2     1 NDP501      0.0000 
@<TRIPOS>BOND
     1    1    2 ar   
     2    1    3 ar   
     3    1    4 1    
     4    1   23 1    
     5    4    5 1    
     6    5    6 1    
     7    6    7 1    
     8    6    8 1    
     9    7   12 1    
    10    8    9 1    
    11    8   10 1    
    12   10   11 1    
    13   10   12 1    
    14   11   45 1    
    15   12   13 1    
    16   13   14 1    
    17   13   22 1    
    18   14   15 2    
    19   15   16 1    
    20   16   17 ar   
    21   16   22 ar   
    22   17   18 1    
    23   17   19 ar   
    24   19   20 ar   
    25   20   21 ar   
    26   21   22 ar   
    27   23   24 1    
    28   24   25 ar   
    29   24   26 ar   
    30   24   27 1    
    31   27   28 1    
    32   28   29 1    
    33   29   30 1    
    34   29   31 1    
    35   30   35 1    
    36   31   32 1    
    37   31   33 1    
    38   33   34 1    
    39   33   35 1    
    40   35   36 1    
    41   36   37 1    
    42   36   44 1    
    43   37   38 2    
    44   38   39 1    
    45   38   42 1    
    46   39   40 2    
    47   39   41 am   
    48   42   43 1    
    49   43   44 2    
    50   45   46 ar   
    51   45   47 ar   
    52   45   48 ar   
@<TRIPOS>SUBSTRUCTURE
     1 NDP501      1 GROUP   
@<TRIPOS>SET
ATOM$ORANGE STATIC     ATOMS   COLORGROUP SYSTEM 
42 5 5 6 6 8 8 10 10 12 12 14 14 16 16 17 17 20 \
20 22 22 28 28 29 29 31 31 33 33 35 35 37 37 38 38 39 \
39 42 42 43 43 44 44 

