#    Name: 6f6n_1_SRE
#    Modification time : Fri May 22 19:29:38 2020

@<TRIPOS>MOLECULE
6f6n_1_SRE
   20    22     1     0     0
SMALL
NO_CHARGES


@<TRIPOS>ATOM
      1 CL19      -49.1420   10.8700   -2.5260 Cl        1 SRE508      0.0000 
      2 C16       -48.1960   11.2930   -3.9760 C.ar      1 SRE508      0.0000 
      3 C15       -48.2360   10.4690   -5.0880 C.ar      1 SRE508      0.0000 
      4 CL20      -49.2340    8.9870   -5.0560 Cl        1 SRE508      0.0000 
      5 C17       -47.4240   12.4420   -3.9880 C.ar      1 SRE508      0.0000 
      6 C18       -46.6890   12.7770   -5.1110 C.ar      1 SRE508      0.0000 
      7 C13       -46.7320   11.9570   -6.2270 C.ar      1 SRE508      0.0000 
      8 C14       -47.4990   10.8010   -6.2160 C.ar      1 SRE508      0.0000 
      9 C4        -45.8920   12.3290   -7.4950 C.3       1 SRE508      0.0000 
     10 C5        -46.2800   13.8220   -7.9430 C.ar      1 SRE508      0.0000 
     11 C6        -47.6110   14.2080   -8.0500 C.ar      1 SRE508      0.0000 
     12 C7        -47.9270   15.5090   -8.4420 C.ar      1 SRE508      0.0000 
     13 C8        -46.9090   16.4310   -8.7300 C.ar      1 SRE508      0.0000 
     14 C9        -45.5760   16.0440   -8.6230 C.ar      1 SRE508      0.0000 
     15 C10       -45.2590   14.7470   -8.2340 C.ar      1 SRE508      0.0000 
     16 C1        -43.7380   14.3060   -8.1110 C.3       1 SRE508      0.0000 
     17 N11       -43.1070   15.2080   -7.1070 N.4       1 SRE508      0.0000 
     18 C12       -41.7250   15.4570   -7.4800 C.3       1 SRE508      0.0000 
     19 C2        -43.3890   12.8860   -7.7220 C.3       1 SRE508      0.0000 
     20 C3        -44.4770   12.0170   -7.1170 C.3       1 SRE508      0.0000 
@<TRIPOS>BOND
     1    1    2 1    
     2    2    3 ar   
     3    2    5 ar   
     4    3    4 1    
     5    3    8 ar   
     6    5    6 ar   
     7    6    7 ar   
     8    7    8 ar   
     9    7    9 1    
    10    9   10 1    
    11    9   20 1    
    12   10   11 ar   
    13   10   15 ar   
    14   11   12 ar   
    15   12   13 ar   
    16   13   14 ar   
    17   14   15 ar   
    18   15   16 1    
    19   16   17 1    
    20   16   19 1    
    21   17   18 1    
    22   19   20 1    
@<TRIPOS>SUBSTRUCTURE
     1 SRE508      1 GROUP   
@<TRIPOS>SET

