#    Name: 6gqy_5_GNP
#    Modification time : Fri May 22 19:26:39 2020

@<TRIPOS>MOLECULE
6gqy_5_GNP
   32    34     1     0     1
SMALL
NO_CHARGES


@<TRIPOS>ATOM
      1 PG         36.9640   98.6810   58.7960 P.3       1 GNP202      0.0000 
      2 O1G        36.4650   99.2450   57.4830 O.co2     1 GNP202      0.0000 
      3 O2G        37.0750   97.1640   58.6320 O.co2     1 GNP202      0.0000 
      4 O3G        35.9040   99.1100   59.8090 O.co2     1 GNP202      0.0000 
      5 N3B        38.4150   99.2490   59.2950 N.3       1 GNP202      0.0000 
      6 PB         39.7180   99.4430   58.3500 P.3       1 GNP202      0.0000 
      7 O1B        39.2700  100.0750   57.0640 O.co2     1 GNP202      0.0000 
      8 O2B        40.6460   98.2650   58.2720 O.co2     1 GNP202      0.0000 
      9 O3A        40.5360  100.6400   59.0520 O.3       1 GNP202      0.0000 
     10 PA         40.5340  102.1980   58.6330 P.3       1 GNP202      0.0000 
     11 O1A        41.0690  102.3170   57.2510 O.co2     1 GNP202      0.0000 
     12 O2A        39.1960  102.7820   58.9420 O.co2     1 GNP202      0.0000 
     13 O5'        41.5830  102.8190   59.6640 O.3       1 GNP202      0.0000 
     14 C5'        41.3020  102.5390   61.0560 C.3       1 GNP202      0.0000 
     15 C4'        41.9470  103.6000   61.9040 C.3       1 GNP202      0.0000 
     16 O4'        43.3710  103.3490   61.9340 O.3       1 GNP202      0.0000 
     17 C3'        41.7730  105.0450   61.4160 C.3       1 GNP202      0.0000 
     18 O3'        41.5920  105.9260   62.5160 O.3       1 GNP202      0.0000 
     19 C2'        43.0940  105.3540   60.7180 C.3       1 GNP202      0.0000 
     20 O2'        43.4890  106.6980   60.8630 O.3       1 GNP202      0.0000 
     21 C1'        44.0760  104.4850   61.4960 C.3       1 GNP202      0.0000 
     22 N9         45.1870  104.0230   60.6820 N.pl3     1 GNP202      0.0000 
     23 C8         45.0860  103.2880   59.5300 C.2       1 GNP202      0.0000 
     24 N7         46.2470  102.9950   59.0080 N.2       1 GNP202      0.0000 
     25 C5         47.1600  103.5730   59.8720 C.2       1 GNP202      0.0000 
     26 C6         48.5650  103.5840   59.8090 C.2       1 GNP202      0.0000 
     27 O6         49.2770  103.0610   58.9500 O.2       1 GNP202      0.0000 
     28 N1         49.1180  104.2880   60.8820 N.am      1 GNP202      0.0000 
     29 C2         48.4050  104.8680   61.9040 C.2       1 GNP202      0.0000 
     30 N2         49.1090  105.4920   62.8550 N.pl3     1 GNP202      0.0000 
     31 N3         47.0740  104.8730   61.9590 N.2       1 GNP202      0.0000 
     32 C4         46.5240  104.2110   60.9110 C.2       1 GNP202      0.0000 
@<TRIPOS>BOND
     1    1    2 ar   
     2    1    3 ar   
     3    1    4 ar   
     4    1    5 1    
     5    5    6 1    
     6    6    7 ar   
     7    6    8 ar   
     8    6    9 1    
     9    9   10 1    
    10   10   11 ar   
    11   10   12 ar   
    12   10   13 1    
    13   13   14 1    
    14   14   15 1    
    15   15   16 1    
    16   15   17 1    
    17   16   21 1    
    18   17   18 1    
    19   17   19 1    
    20   19   20 1    
    21   19   21 1    
    22   21   22 1    
    23   22   23 1    
    24   22   32 1    
    25   23   24 2    
    26   24   25 1    
    27   25   26 1    
    28   25   32 2    
    29   26   27 2    
    30   26   28 am   
    31   28   29 1    
    32   29   30 1    
    33   29   31 2    
    34   31   32 1    
@<TRIPOS>SUBSTRUCTURE
     1 GNP202      1 GROUP   
@<TRIPOS>SET
ATOM$ORANGE STATIC     ATOMS   COLORGROUP SYSTEM 
20 14 14 15 15 17 17 19 19 21 21 23 23 25 25 26 26 29 \
29 32 32 

