#    Name: 6gqy_6_GNP
#    Modification time : Fri May 22 19:26:44 2020

@<TRIPOS>MOLECULE
6gqy_6_GNP
   32    34     1     0     1
SMALL
NO_CHARGES


@<TRIPOS>ATOM
      1 PG         61.4380  131.6820   56.0820 P.3       1 GNP202      0.0000 
      2 O1G        61.5810  131.6200   54.5740 O.co2     1 GNP202      0.0000 
      3 O2G        60.1230  132.4120   56.3670 O.co2     1 GNP202      0.0000 
      4 O3G        62.6150  132.4630   56.6430 O.co2     1 GNP202      0.0000 
      5 N3B        61.5750  130.1580   56.6510 N.3       1 GNP202      0.0000 
      6 PB         60.9820  128.8090   55.9890 P.3       1 GNP202      0.0000 
      7 O1B        61.1470  128.8340   54.5050 O.co2     1 GNP202      0.0000 
      8 O2B        59.6500  128.4020   56.5590 O.co2     1 GNP202      0.0000 
      9 O3A        62.0590  127.7330   56.4170 O.3       1 GNP202      0.0000 
     10 PA         62.9600  126.8120   55.4680 P.3       1 GNP202      0.0000 
     11 O1A        62.1260  126.2460   54.3620 O.co2     1 GNP202      0.0000 
     12 O2A        64.1090  127.7010   55.1430 O.co2     1 GNP202      0.0000 
     13 O5'        63.4620  125.6500   56.4570 O.3       1 GNP202      0.0000 
     14 C5'        64.0320  126.1790   57.6650 C.3       1 GNP202      0.0000 
     15 C4'        64.9630  125.1700   58.2740 C.3       1 GNP202      0.0000 
     16 O4'        64.1930  124.0290   58.7290 O.3       1 GNP202      0.0000 
     17 C3'        66.0260  124.5920   57.3450 C.3       1 GNP202      0.0000 
     18 O3'        67.1670  124.2810   58.1310 O.3       1 GNP202      0.0000 
     19 C2'        65.3610  123.3160   56.8450 C.3       1 GNP202      0.0000 
     20 O2'        66.3040  122.3700   56.4060 O.3       1 GNP202      0.0000 
     21 C1'        64.6400  122.8550   58.1060 C.3       1 GNP202      0.0000 
     22 N9         63.4690  122.0360   57.8510 N.pl3     1 GNP202      0.0000 
     23 C8         62.3860  122.3970   57.0920 C.2       1 GNP202      0.0000 
     24 N7         61.4700  121.4580   57.0160 N.2       1 GNP202      0.0000 
     25 C5         61.9850  120.4260   57.7830 C.2       1 GNP202      0.0000 
     26 C6         61.4240  119.1700   58.0810 C.2       1 GNP202      0.0000 
     27 O6         60.3400  118.7120   57.7060 O.2       1 GNP202      0.0000 
     28 N1         62.2560  118.4350   58.9180 N.am      1 GNP202      0.0000 
     29 C2         63.4800  118.8460   59.3860 C.2       1 GNP202      0.0000 
     30 N2         64.1440  117.9810   60.1680 N.pl3     1 GNP202      0.0000 
     31 N3         64.0120  120.0350   59.1070 N.2       1 GNP202      0.0000 
     32 C4         63.2100  120.7690   58.3080 C.2       1 GNP202      0.0000 
@<TRIPOS>BOND
     1    1    2 ar   
     2    1    3 ar   
     3    1    4 ar   
     4    1    5 1    
     5    5    6 1    
     6    6    7 ar   
     7    6    8 ar   
     8    6    9 1    
     9    9   10 1    
    10   10   11 ar   
    11   10   12 ar   
    12   10   13 1    
    13   13   14 1    
    14   14   15 1    
    15   15   16 1    
    16   15   17 1    
    17   16   21 1    
    18   17   18 1    
    19   17   19 1    
    20   19   20 1    
    21   19   21 1    
    22   21   22 1    
    23   22   23 1    
    24   22   32 1    
    25   23   24 2    
    26   24   25 1    
    27   25   26 1    
    28   25   32 2    
    29   26   27 2    
    30   26   28 am   
    31   28   29 1    
    32   29   30 1    
    33   29   31 2    
    34   31   32 1    
@<TRIPOS>SUBSTRUCTURE
     1 GNP202      1 GROUP   
@<TRIPOS>SET
ATOM$ORANGE STATIC     ATOMS   COLORGROUP SYSTEM 
20 14 14 15 15 17 17 19 19 21 21 23 23 25 25 26 26 29 \
29 32 32 

