#    Name: 6gqy_1_GNP
#    Modification time : Fri May 22 19:26:17 2020

@<TRIPOS>MOLECULE
6gqy_1_GNP
   32    34     1     0     1
SMALL
NO_CHARGES


@<TRIPOS>ATOM
      1 PG         69.7540  108.0290    2.1580 P.3       1 GNP202      0.0000 
      2 O1G        70.7560  108.5500    1.1180 O.co2     1 GNP202      0.0000 
      3 O2G        70.1960  108.2560    3.5980 O.co2     1 GNP202      0.0000 
      4 O3G        69.6090  106.5550    1.9250 O.co2     1 GNP202      0.0000 
      5 N3B        68.3010  108.6900    1.9200 N.3       1 GNP202      0.0000 
      6 PB         66.9910  108.3120    2.7950 P.3       1 GNP202      0.0000 
      7 O1B        66.4470  106.9750    2.3720 O.co2     1 GNP202      0.0000 
      8 O2B        67.2320  108.5040    4.2560 O.co2     1 GNP202      0.0000 
      9 O3A        66.0110  109.4670    2.2480 O.3       1 GNP202      0.0000 
     10 PA         65.7420  110.8540    3.0090 P.3       1 GNP202      0.0000 
     11 O1A        67.0290  111.6280    2.9870 O.co2     1 GNP202      0.0000 
     12 O2A        65.1120  110.5620    4.3360 O.co2     1 GNP202      0.0000 
     13 O5'        64.6610  111.5560    2.0680 O.3       1 GNP202      0.0000 
     14 C5'        65.0180  111.7640    0.6830 C.3       1 GNP202      0.0000 
     15 C4'        64.1720  112.8800    0.1140 C.3       1 GNP202      0.0000 
     16 O4'        62.8150  112.4020    0.0160 O.3       1 GNP202      0.0000 
     17 C3'        64.0850  114.1570    0.9540 C.3       1 GNP202      0.0000 
     18 O3'        63.8740  115.3350    0.2090 O.3       1 GNP202      0.0000 
     19 C2'        62.7810  114.0060    1.7300 C.3       1 GNP202      0.0000 
     20 O2'        62.2500  115.2820    2.0040 O.3       1 GNP202      0.0000 
     21 C1'        61.9300  113.2340    0.7350 C.3       1 GNP202      0.0000 
     22 N9         60.9190  112.3870    1.3670 N.pl3     1 GNP202      0.0000 
     23 C8         61.1510  111.4040    2.2880 C.2       1 GNP202      0.0000 
     24 N7         60.0620  110.7800    2.6700 N.2       1 GNP202      0.0000 
     25 C5         59.0540  111.4000    1.9630 C.2       1 GNP202      0.0000 
     26 C6         57.6690  111.1550    1.9980 C.2       1 GNP202      0.0000 
     27 O6         57.0600  110.3010    2.6690 O.2       1 GNP202      0.0000 
     28 N1         57.0030  112.0210    1.1250 N.am      1 GNP202      0.0000 
     29 C2         57.5890  112.9750    0.3300 C.2       1 GNP202      0.0000 
     30 N2         56.7760  113.7090   -0.4440 N.pl3     1 GNP202      0.0000 
     31 N3         58.8940  113.2100    0.3180 N.2       1 GNP202      0.0000 
     32 C4         59.5590  112.3880    1.1550 C.2       1 GNP202      0.0000 
@<TRIPOS>BOND
     1    1    2 ar   
     2    1    3 ar   
     3    1    4 ar   
     4    1    5 1    
     5    5    6 1    
     6    6    7 ar   
     7    6    8 ar   
     8    6    9 1    
     9    9   10 1    
    10   10   11 ar   
    11   10   12 ar   
    12   10   13 1    
    13   13   14 1    
    14   14   15 1    
    15   15   16 1    
    16   15   17 1    
    17   16   21 1    
    18   17   18 1    
    19   17   19 1    
    20   19   20 1    
    21   19   21 1    
    22   21   22 1    
    23   22   23 1    
    24   22   32 1    
    25   23   24 2    
    26   24   25 1    
    27   25   26 1    
    28   25   32 2    
    29   26   27 2    
    30   26   28 am   
    31   28   29 1    
    32   29   30 1    
    33   29   31 2    
    34   31   32 1    
@<TRIPOS>SUBSTRUCTURE
     1 GNP202      1 GROUP   
@<TRIPOS>SET
ATOM$ORANGE STATIC     ATOMS   COLORGROUP SYSTEM 
20 14 14 15 15 17 17 19 19 21 21 23 23 25 25 26 26 29 \
29 32 32 

