#    Name: 6gqy_4_GNP
#    Modification time : Fri May 22 19:26:33 2020

@<TRIPOS>MOLECULE
6gqy_4_GNP
   32    34     1     0     1
SMALL
NO_CHARGES


@<TRIPOS>ATOM
      1 PG         40.0250  134.8840   11.6870 P.3       1 GNP202      0.0000 
      2 O1G        41.0100  135.9310   11.1820 O.co2     1 GNP202      0.0000 
      3 O2G        40.5500  134.5860   13.0820 O.co2     1 GNP202      0.0000 
      4 O3G        38.5930  135.3970   11.8130 O.co2     1 GNP202      0.0000 
      5 N3B        40.0290  133.5280   10.7720 N.3       1 GNP202      0.0000 
      6 PB         41.0290  132.2940   11.0810 P.3       1 GNP202      0.0000 
      7 O1B        42.4170  132.5160   10.5520 O.co2     1 GNP202      0.0000 
      8 O2B        40.8650  131.8890   12.5150 O.co2     1 GNP202      0.0000 
      9 O3A        40.3420  131.0530   10.3240 O.3       1 GNP202      0.0000 
     10 PA         39.5040  129.8840   11.0260 P.3       1 GNP202      0.0000 
     11 O1A        38.3210  130.5140   11.6630 O.co2     1 GNP202      0.0000 
     12 O2A        40.3930  129.1440   11.9610 O.co2     1 GNP202      0.0000 
     13 O5'        39.0740  128.9410    9.8060 O.3       1 GNP202      0.0000 
     14 C5'        38.4160  129.4970    8.6420 C.3       1 GNP202      0.0000 
     15 C4'        37.7180  128.3910    7.8830 C.3       1 GNP202      0.0000 
     16 O4'        38.7300  127.5750    7.2320 O.3       1 GNP202      0.0000 
     17 C3'        36.8940  127.4110    8.7240 C.3       1 GNP202      0.0000 
     18 O3'        35.7610  126.8960    8.0460 O.3       1 GNP202      0.0000 
     19 C2'        37.8710  126.2510    8.9220 C.3       1 GNP202      0.0000 
     20 O2'        37.2840  124.9990    9.1800 O.3       1 GNP202      0.0000 
     21 C1'        38.5450  126.2200    7.5630 C.3       1 GNP202      0.0000 
     22 N9         39.8470  125.5840    7.6130 N.pl3     1 GNP202      0.0000 
     23 C8         40.8310  125.9810    8.4700 C.2       1 GNP202      0.0000 
     24 N7         41.9320  125.2880    8.3410 N.2       1 GNP202      0.0000 
     25 C5         41.6550  124.3790    7.3350 C.2       1 GNP202      0.0000 
     26 C6         42.4900  123.3820    6.7750 C.2       1 GNP202      0.0000 
     27 O6         43.6730  123.1090    7.0450 O.2       1 GNP202      0.0000 
     28 N1         41.8140  122.6740    5.7900 N.am      1 GNP202      0.0000 
     29 C2         40.5370  122.9090    5.3730 C.2       1 GNP202      0.0000 
     30 N2         40.1000  122.1080    4.3960 N.pl3     1 GNP202      0.0000 
     31 N3         39.7530  123.8510    5.8930 N.2       1 GNP202      0.0000 
     32 C4         40.3730  124.5460    6.8710 C.2       1 GNP202      0.0000 
@<TRIPOS>BOND
     1    1    2 ar   
     2    1    3 ar   
     3    1    4 ar   
     4    1    5 1    
     5    5    6 1    
     6    6    7 ar   
     7    6    8 ar   
     8    6    9 1    
     9    9   10 1    
    10   10   11 ar   
    11   10   12 ar   
    12   10   13 1    
    13   13   14 1    
    14   14   15 1    
    15   15   16 1    
    16   15   17 1    
    17   16   21 1    
    18   17   18 1    
    19   17   19 1    
    20   19   20 1    
    21   19   21 1    
    22   21   22 1    
    23   22   23 1    
    24   22   32 1    
    25   23   24 2    
    26   24   25 1    
    27   25   26 1    
    28   25   32 2    
    29   26   27 2    
    30   26   28 am   
    31   28   29 1    
    32   29   30 1    
    33   29   31 2    
    34   31   32 1    
@<TRIPOS>SUBSTRUCTURE
     1 GNP202      1 GROUP   
@<TRIPOS>SET
ATOM$ORANGE STATIC     ATOMS   COLORGROUP SYSTEM 
20 14 14 15 15 17 17 19 19 21 21 23 23 25 25 26 26 29 \
29 32 32 

