#    Name: 6gqy_2_GNP_CAVITY_N1_6
#    Modification time : Fri May 22 19:26:24 2020

@<TRIPOS>MOLECULE
6gqy_2_GNP_CAVITY_N1_6
   75     0     6     0     0
SMALL
NO_CHARGES


@<TRIPOS>ATOM
      1 N          38.7600   96.4100    3.2900 N.am      1 ALA2        0.0000 
      2 N          35.7700   97.2200    4.5600 N.am      1 ALA2        0.0000 
      3 N          39.4400   97.0300    4.4800 N.am      1 ALA2        0.0000 
      4 N          40.6600   97.2900    3.6500 N.am      1 ALA2        0.0000 
      5 N          35.2200   97.5800    6.5800 N.am      1 ALA2        0.0000 
      6 N          36.4400   97.8400    5.7500 N.am      1 ALA2        0.0000 
      7 N          38.2200   95.7800    7.7100 N.am      1 ALA2        0.0000 
      8 N          39.4400   96.0500    6.8800 N.am      1 ALA2        0.0000 
      9 N          38.8900   97.3900    6.4900 N.am      1 ALA2        0.0000 
     10 N          40.1100   97.6500    5.6600 N.am      1 ALA2        0.0000 
     11 O          37.1200   97.4800    9.3400 O.2       1 ALA2        0.0000 
     12 N          39.5600   98.0100    7.6800 N.am      1 ALA2        0.0000 
     13 O          37.9000  102.0300    6.5200 O.2       1 ALA2        0.0000 
     14 O          38.5800  102.6500    7.7100 O.2       1 ALA2        0.0000 
     15 O          41.0200  103.1700    6.0500 O.2       1 ALA2        0.0000 
     16 OD1        36.9900   97.4900    3.7300 O.co2     2 ASP3        0.0000 
     17 OD1        38.2100   97.7500    2.9000 O.co2     2 ASP3        0.0000 
     18 OD1        37.6600   98.1100    4.9200 O.co2     2 ASP3        0.0000 
     19 OD1        38.3300   99.7100    3.7000 O.co2     2 ASP3        0.0000 
     20 OD1        35.7700   95.2600    9.3700 O.co2     2 ASP3        0.0000 
     21 OD1        35.2200   96.6000    8.9800 O.co2     2 ASP3        0.0000 
     22 NZ         43.2200   99.7800    2.7900 N.4       3 LYS4        0.0000 
     23 NZ         40.9000  102.2000    2.8400 N.4       3 LYS4        0.0000 
     24 NZ         42.1200  102.4600    2.0100 N.4       3 LYS4        0.0000 
     25 NZ         40.3500  102.5500    4.8600 N.4       3 LYS4        0.0000 
     26 NZ         39.8000  103.8900    4.4700 N.4       3 LYS4        0.0000 
     27 CZ         35.1000   95.6200    5.7800 C.ar      4 PHE5        0.0000 
     28 CZ         36.3200   95.8800    4.9500 C.ar      4 PHE5        0.0000 
     29 CZ         37.5400   96.1500    4.1200 C.ar      4 PHE5        0.0000 
     30 CZ         35.7700   96.2400    6.9600 C.ar      4 PHE5        0.0000 
     31 CZ         36.9900   96.5000    6.1300 C.ar      4 PHE5        0.0000 
     32 CZ         37.0000   95.5200    8.5400 C.ar      4 PHE5        0.0000 
     33 CZ         39.5600   98.9900    5.2800 C.ar      4 PHE5        0.0000 
     34 CZ         40.7800   99.2500    4.4500 C.ar      4 PHE5        0.0000 
     35 CZ         42.0000   99.5200    3.6200 C.ar      4 PHE5        0.0000 
     36 CZ         40.2300  100.5900    4.0600 C.ar      4 PHE5        0.0000 
     37 CZ         41.4500  100.8600    3.2300 C.ar      4 PHE5        0.0000 
     38 CZ         40.2300   99.6100    6.4700 C.ar      4 PHE5        0.0000 
     39 CZ         39.6800  100.9500    6.0800 C.ar      4 PHE5        0.0000 
     40 CZ         40.9000  101.2100    5.2500 C.ar      4 PHE5        0.0000 
     41 CZ         40.3500  101.5700    7.2700 C.ar      4 PHE5        0.0000 
     42 CA         38.3300  100.6900    1.3000 C.3       5 GLY6        0.0000 
     43 CA         37.5400   95.1600    6.5200 C.3       5 GLY6        0.0000 
     44 CA         38.7700   95.4300    5.6900 C.3       5 GLY6        0.0000 
     45 CA         34.5500   95.9800    7.7900 C.3       5 GLY6        0.0000 
     46 CA         38.2100   96.7700    5.3100 C.3       5 GLY6        0.0000 
     47 CA         39.0000  101.3100    2.4900 C.3       5 GLY6        0.0000 
     48 CA         40.2200  101.5800    1.6600 C.3       5 GLY6        0.0000 
     49 CA         36.4400   96.8600    8.1500 C.3       5 GLY6        0.0000 
     50 CA         35.8900   98.2000    7.7700 C.3       5 GLY6        0.0000 
     51 CA         37.1100   98.4600    6.9400 C.3       5 GLY6        0.0000 
     52 CA         36.5600   99.8000    6.5500 C.3       5 GLY6        0.0000 
     53 CA         37.7800  100.0700    5.7200 C.3       5 GLY6        0.0000 
     54 CA         39.0000  100.3300    4.8900 C.3       5 GLY6        0.0000 
     55 CA         42.6700  101.1200    2.4000 C.3       5 GLY6        0.0000 
     56 CA         38.4500  101.6700    4.5000 C.3       5 GLY6        0.0000 
     57 CA         39.6700  101.9300    3.6700 C.3       5 GLY6        0.0000 
     58 CA         39.1200  103.2700    3.2900 C.3       5 GLY6        0.0000 
     59 CA         37.6700   96.1400    9.7300 C.3       5 GLY6        0.0000 
     60 CA         38.8900   96.4000    8.9000 C.3       5 GLY6        0.0000 
     61 CA         38.3400   97.7400    8.5100 C.3       5 GLY6        0.0000 
     62 CA         37.7900   99.0800    8.1200 C.3       5 GLY6        0.0000 
     63 CA         39.0100   99.3500    7.2900 C.3       5 GLY6        0.0000 
     64 CA         38.4600  100.6900    6.9100 C.3       5 GLY6        0.0000 
     65 CA         39.1300  102.2900    5.6900 C.3       5 GLY6        0.0000 
     66 CA         41.5700  102.8200    4.0300 C.3       5 GLY6        0.0000 
     67 CA         38.5700  103.6300    5.3000 C.3       5 GLY6        0.0000 
     68 CA         39.1300  101.3100    8.1000 C.3       5 GLY6        0.0000 
     69 CA         39.8000  102.9100    6.8800 C.3       5 GLY6        0.0000 
     70 DU         38.8800   98.3700    4.0900 H         6 CUB7        0.0000 
     71 DU         40.1000   98.6300    3.2600 H         6 CUB7        0.0000 
     72 DU         39.5500   99.9700    2.8700 H         6 CUB7        0.0000 
     73 DU         40.7700  100.2400    2.0400 H         6 CUB7        0.0000 
     74 DU         37.6700   97.1200    7.3200 H         6 CUB7        0.0000 
     75 DU         38.3300   98.7300    6.1100 H         6 CUB7        0.0000 
@<TRIPOS>BOND
@<TRIPOS>SUBSTRUCTURE
     1 ALA2        1 GROUP   
     2 ASP3       16 GROUP   
     3 LYS4       22 GROUP   
     4 PHE5       27 GROUP   
     5 GLY6       42 GROUP   
     6 CUB7       70 GROUP   
@<TRIPOS>SET

