#    Name: 6gqy_3_GNP
#    Modification time : Fri May 22 19:26:28 2020

@<TRIPOS>MOLECULE
6gqy_3_GNP
   32    34     1     0     1
SMALL
NO_CHARGES


@<TRIPOS>ATOM
      1 PG         76.9180   94.3100   49.0070 P.3       1 GNP202      0.0000 
      2 O1G        76.1230   93.9740   47.7620 O.co2     1 GNP202      0.0000 
      3 O2G        78.0040   95.3130   48.6210 O.co2     1 GNP202      0.0000 
      4 O3G        77.4940   93.0210   49.5820 O.co2     1 GNP202      0.0000 
      5 N3B        75.8790   94.8850   50.1130 N.3       1 GNP202      0.0000 
      6 PB         74.8120   96.0110   49.7280 P.3       1 GNP202      0.0000 
      7 O1B        74.1420   95.5390   48.4660 O.co2     1 GNP202      0.0000 
      8 O2B        75.3770   97.4040   49.8190 O.co2     1 GNP202      0.0000 
      9 O3A        73.6580   95.8410   50.8110 O.3       1 GNP202      0.0000 
     10 PA         72.2270   95.2090   50.5090 P.3       1 GNP202      0.0000 
     11 O1A        71.5260   96.1640   49.5990 O.co2     1 GNP202      0.0000 
     12 O2A        72.4390   93.7910   50.1040 O.co2     1 GNP202      0.0000 
     13 O5'        71.5120   95.2710   51.9340 O.3       1 GNP202      0.0000 
     14 C5'        72.1480   94.7000   53.1000 C.3       1 GNP202      0.0000 
     15 C4'        71.1020   94.4890   54.1640 C.3       1 GNP202      0.0000 
     16 O4'        70.7300   95.7860   54.6740 O.3       1 GNP202      0.0000 
     17 C3'        69.7840   93.8360   53.7170 C.3       1 GNP202      0.0000 
     18 O3'        69.1950   93.0090   54.7160 O.3       1 GNP202      0.0000 
     19 C2'        68.8600   95.0340   53.4900 C.3       1 GNP202      0.0000 
     20 O2'        67.4970   94.7220   53.6890 O.3       1 GNP202      0.0000 
     21 C1'        69.3380   95.9550   54.5900 C.3       1 GNP202      0.0000 
     22 N9         69.0600   97.3590   54.3470 N.pl3     1 GNP202      0.0000 
     23 C8         69.5240   98.1660   53.3410 C.2       1 GNP202      0.0000 
     24 N7         69.0780   99.3960   53.4250 N.2       1 GNP202      0.0000 
     25 C5         68.2850   99.3950   54.5660 C.2       1 GNP202      0.0000 
     26 C6         67.5360  100.4350   55.1690 C.2       1 GNP202      0.0000 
     27 O6         67.4450  101.6100   54.8060 O.2       1 GNP202      0.0000 
     28 N1         66.8710   99.9970   56.3140 N.am      1 GNP202      0.0000 
     29 C2         66.9180   98.7150   56.8140 C.2       1 GNP202      0.0000 
     30 N2         66.2130   98.4550   57.9250 N.pl3     1 GNP202      0.0000 
     31 N3         67.6090   97.7330   56.2420 N.2       1 GNP202      0.0000 
     32 C4         68.2670   98.1460   55.1370 C.2       1 GNP202      0.0000 
@<TRIPOS>BOND
     1    1    2 ar   
     2    1    3 ar   
     3    1    4 ar   
     4    1    5 1    
     5    5    6 1    
     6    6    7 ar   
     7    6    8 ar   
     8    6    9 1    
     9    9   10 1    
    10   10   11 ar   
    11   10   12 ar   
    12   10   13 1    
    13   13   14 1    
    14   14   15 1    
    15   15   16 1    
    16   15   17 1    
    17   16   21 1    
    18   17   18 1    
    19   17   19 1    
    20   19   20 1    
    21   19   21 1    
    22   21   22 1    
    23   22   23 1    
    24   22   32 1    
    25   23   24 2    
    26   24   25 1    
    27   25   26 1    
    28   25   32 2    
    29   26   27 2    
    30   26   28 am   
    31   28   29 1    
    32   29   30 1    
    33   29   31 2    
    34   31   32 1    
@<TRIPOS>SUBSTRUCTURE
     1 GNP202      1 GROUP   
@<TRIPOS>SET
ATOM$ORANGE STATIC     ATOMS   COLORGROUP SYSTEM 
20 14 14 15 15 17 17 19 19 21 21 23 23 25 25 26 26 29 \
29 32 32 

