#    Name: 6gqy_2_GNP
#    Modification time : Fri May 22 19:26:22 2020

@<TRIPOS>MOLECULE
6gqy_2_GNP
   32    34     1     0     1
SMALL
NO_CHARGES


@<TRIPOS>ATOM
      1 PG         31.9270   94.4550   10.3780 P.3       1 GNP202      0.0000 
      2 O1G        31.6880   93.0330    9.7950 O.co2     1 GNP202      0.0000 
      3 O2G        32.5410   94.2260   11.7830 O.co2     1 GNP202      0.0000 
      4 O3G        30.6440   95.2790   10.4120 O.co2     1 GNP202      0.0000 
      5 N3B        32.8500   95.4340    9.4510 N.3       1 GNP202      0.0000 
      6 PB         33.5140   96.8160    9.9990 P.3       1 GNP202      0.0000 
      7 O1B        32.5100   97.9270    9.9030 O.co2     1 GNP202      0.0000 
      8 O2B        34.1760   96.5670   11.3210 O.co2     1 GNP202      0.0000 
      9 O3A        34.7070   97.1710    8.9700 O.3       1 GNP202      0.0000 
     10 PA         36.2500   96.7370    9.1000 P.3       1 GNP202      0.0000 
     11 O1A        36.2410   95.2420    9.2220 O.co2     1 GNP202      0.0000 
     12 O2A        36.8480   97.5750   10.1880 O.co2     1 GNP202      0.0000 
     13 O5'        36.9080   97.1940    7.7340 O.3       1 GNP202      0.0000 
     14 C5'        36.2780   96.8030    6.5010 C.3       1 GNP202      0.0000 
     15 C4'        37.2730   96.9380    5.3700 C.3       1 GNP202      0.0000 
     16 O4'        37.4490   98.3410    5.0270 O.3       1 GNP202      0.0000 
     17 C3'        38.6880   96.4200    5.6500 C.3       1 GNP202      0.0000 
     18 O3'        39.2750   95.9940    4.4410 O.3       1 GNP202      0.0000 
     19 C2'        39.4510   97.6720    6.0780 C.3       1 GNP202      0.0000 
     20 O2'        40.8320   97.6580    5.7940 O.3       1 GNP202      0.0000 
     21 C1'        38.7980   98.7110    5.1850 C.3       1 GNP202      0.0000 
     22 N9         38.8470  100.0430    5.7560 N.pl3     1 GNP202      0.0000 
     23 C8         38.3710  100.4680    6.9720 C.2       1 GNP202      0.0000 
     24 N7         38.5530  101.7510    7.1790 N.2       1 GNP202      0.0000 
     25 C5         39.1720  102.1800    6.0120 C.2       1 GNP202      0.0000 
     26 C6         39.6180  103.4600    5.6470 C.2       1 GNP202      0.0000 
     27 O6         39.5610  104.4870    6.3130 O.2       1 GNP202      0.0000 
     28 N1         40.2060  103.4640    4.3920 N.am      1 GNP202      0.0000 
     29 C2         40.3490  102.3640    3.5810 C.2       1 GNP202      0.0000 
     30 N2         40.9680  102.5460    2.4000 N.pl3     1 GNP202      0.0000 
     31 N3         39.9260  101.1540    3.9200 N.2       1 GNP202      0.0000 
     32 C4         39.3670  101.1420    5.1420 C.2       1 GNP202      0.0000 
@<TRIPOS>BOND
     1    1    2 ar   
     2    1    3 ar   
     3    1    4 ar   
     4    1    5 1    
     5    5    6 1    
     6    6    7 ar   
     7    6    8 ar   
     8    6    9 1    
     9    9   10 1    
    10   10   11 ar   
    11   10   12 ar   
    12   10   13 1    
    13   13   14 1    
    14   14   15 1    
    15   15   16 1    
    16   15   17 1    
    17   16   21 1    
    18   17   18 1    
    19   17   19 1    
    20   19   20 1    
    21   19   21 1    
    22   21   22 1    
    23   22   23 1    
    24   22   32 1    
    25   23   24 2    
    26   24   25 1    
    27   25   26 1    
    28   25   32 2    
    29   26   27 2    
    30   26   28 am   
    31   28   29 1    
    32   29   30 1    
    33   29   31 2    
    34   31   32 1    
@<TRIPOS>SUBSTRUCTURE
     1 GNP202      1 GROUP   
@<TRIPOS>SET
ATOM$ORANGE STATIC     ATOMS   COLORGROUP SYSTEM 
20 14 14 15 15 17 17 19 19 21 21 23 23 25 25 26 26 29 \
29 32 32 

