#    Name: 6emv_1_SAH
#    Modification time : Fri May 22 19:24:39 2020

@<TRIPOS>MOLECULE
6emv_1_SAH
   26    28     1     0     0
SMALL
NO_CHARGES


@<TRIPOS>ATOM
      1 N           3.6910  -16.3660   -9.9980 N.4       1 SAH301      0.0000 
      2 CA          2.3400  -16.5550  -10.5100 C.3       1 SAH301      0.0000 
      3 CB          1.8150  -17.9400  -10.1230 C.3       1 SAH301      0.0000 
      4 CG          0.6870  -17.9940   -9.0970 C.3       1 SAH301      0.0000 
      5 SD          0.6680  -19.5120   -8.1020 S.3       1 SAH301      0.0000 
      6 C           1.4370  -15.4370   -9.9910 C.2       1 SAH301      0.0000 
      7 O           0.6580  -14.8590  -10.7450 O.co2     1 SAH301      0.0000 
      8 OXT         1.4750  -15.0630   -8.8170 O.co2     1 SAH301      0.0000 
      9 C5'        -0.9880  -19.9900   -8.6650 C.3       1 SAH301      0.0000 
     10 C4'        -2.1220  -19.6510   -7.6970 C.3       1 SAH301      0.0000 
     11 O4'        -1.7640  -19.8890   -6.3460 O.3       1 SAH301      0.0000 
     12 C3'        -2.5310  -18.1920   -7.8060 C.3       1 SAH301      0.0000 
     13 O3'        -3.7610  -18.0690   -8.4710 O.3       1 SAH301      0.0000 
     14 C2'        -2.6830  -17.6930   -6.3920 C.3       1 SAH301      0.0000 
     15 O2'        -4.0350  -17.3820   -6.1560 O.3       1 SAH301      0.0000 
     16 C1'        -2.2600  -18.8540   -5.5140 C.3       1 SAH301      0.0000 
     17 N9         -1.2090  -18.4020   -4.5860 N.pl3     1 SAH301      0.0000 
     18 C8          0.1280  -18.6770   -4.6920 C.2       1 SAH301      0.0000 
     19 N7          0.7730  -18.0870   -3.6620 N.2       1 SAH301      0.0000 
     20 C5         -0.1320  -17.4290   -2.9060 C.ar      1 SAH301      0.0000 
     21 C6         -0.0040  -16.6680   -1.7530 C.ar      1 SAH301      0.0000 
     22 N6          1.1920  -16.4860   -1.2020 N.pl3     1 SAH301      0.0000 
     23 N1         -1.1270  -16.1030   -1.1860 N.ar      1 SAH301      0.0000 
     24 C2         -2.3640  -16.2980   -1.7660 C.ar      1 SAH301      0.0000 
     25 N3         -2.4820  -17.0570   -2.9130 N.ar      1 SAH301      0.0000 
     26 C4         -1.3840  -17.6180   -3.4740 C.ar      1 SAH301      0.0000 
@<TRIPOS>BOND
     1    1    2 1    
     2    2    3 1    
     3    2    6 1    
     4    3    4 1    
     5    4    5 1    
     6    5    9 1    
     7    6    7 ar   
     8    6    8 ar   
     9    9   10 1    
    10   10   11 1    
    11   10   12 1    
    12   11   16 1    
    13   12   13 1    
    14   12   14 1    
    15   14   15 1    
    16   14   16 1    
    17   16   17 1    
    18   17   18 1    
    19   17   26 1    
    20   18   19 2    
    21   19   20 1    
    22   20   21 ar   
    23   20   26 ar   
    24   21   22 1    
    25   21   23 ar   
    26   23   24 ar   
    27   24   25 ar   
    28   25   26 ar   
@<TRIPOS>SUBSTRUCTURE
     1 SAH301      1 GROUP   
@<TRIPOS>SET

