#    Name: 6emv_2_SAH
#    Modification time : Fri May 22 19:24:42 2020

@<TRIPOS>MOLECULE
6emv_2_SAH
   26    28     1     0     0
SMALL
NO_CHARGES


@<TRIPOS>ATOM
      1 N          21.1440  -25.7780   -2.7430 N.4       1 SAH301      0.0000 
      2 CA         21.4450  -27.2000   -2.8520 C.3       1 SAH301      0.0000 
      3 CB         20.5880  -27.8490   -3.9310 C.3       1 SAH301      0.0000 
      4 CG         20.0220  -29.2150   -3.5620 C.3       1 SAH301      0.0000 
      5 SD         19.2550  -30.0100   -4.9950 S.3       1 SAH301      0.0000 
      6 C          22.9230  -27.4220   -3.1550 C.2       1 SAH301      0.0000 
      7 O          23.6620  -26.4770   -3.4280 O.co2     1 SAH301      0.0000 
      8 OXT        23.4140  -28.5510   -3.1380 O.co2     1 SAH301      0.0000 
      9 C5'        19.6730  -31.6660   -4.3930 C.3       1 SAH301      0.0000 
     10 C4'        20.7340  -32.3760   -5.2270 C.3       1 SAH301      0.0000 
     11 O4'        20.3740  -32.4090   -6.5960 O.3       1 SAH301      0.0000 
     12 C3'        22.0890  -31.6900   -5.1350 C.3       1 SAH301      0.0000 
     13 O3'        22.9280  -32.3710   -4.2370 O.3       1 SAH301      0.0000 
     14 C2'        22.6660  -31.7710   -6.5260 C.3       1 SAH301      0.0000 
     15 O2'        23.6640  -32.7650   -6.5610 O.3       1 SAH301      0.0000 
     16 C1'        21.5120  -32.1980   -7.4110 C.3       1 SAH301      0.0000 
     17 N9         21.2300  -31.1280   -8.3830 N.pl3     1 SAH301      0.0000 
     18 C8         20.2270  -30.1990   -8.2890 C.2       1 SAH301      0.0000 
     19 N7         20.2960  -29.3840   -9.3640 N.2       1 SAH301      0.0000 
     20 C5         21.3340  -29.7730  -10.1330 C.ar      1 SAH301      0.0000 
     21 C6         21.8390  -29.2850  -11.3280 C.ar      1 SAH301      0.0000 
     22 N6         21.2660  -28.2390  -11.9110 N.pl3     1 SAH301      0.0000 
     23 N1         22.9340  -29.8950  -11.9010 N.ar      1 SAH301      0.0000 
     24 C2         23.5210  -30.9830  -11.2880 C.ar      1 SAH301      0.0000 
     25 N3         23.0110  -31.4620  -10.0990 N.ar      1 SAH301      0.0000 
     26 C4         21.9320  -30.8700   -9.5320 C.ar      1 SAH301      0.0000 
@<TRIPOS>BOND
     1    6    8 ar   
     2    9   10 1    
     3   10   11 1    
     4   10   12 1    
     5   11   16 1    
     6   12   13 1    
     7   12   14 1    
     8   14   15 1    
     9   14   16 1    
    10   16   17 1    
    11   17   18 1    
    12   17   26 1    
    13   18   19 2    
    14   19   20 1    
    15   20   21 ar   
    16   20   26 ar   
    17   21   22 1    
    18   21   23 ar   
    19   23   24 ar   
    20   24   25 ar   
    21   25   26 ar   
    22    1    2 1    
    23    2    3 1    
    24    2    6 1    
    25    3    4 1    
    26    4    5 1    
    27    5    9 1    
    28    6    7 ar   
@<TRIPOS>SUBSTRUCTURE
     1 SAH301      1 GROUP   
@<TRIPOS>SET

