#    Name: 6emv_3_SAH
#    Modification time : Fri May 22 19:24:45 2020

@<TRIPOS>MOLECULE
6emv_3_SAH
   26    28     1     0     0
SMALL
NO_CHARGES


@<TRIPOS>ATOM
      1 N          21.5730  -11.1930  -34.3700 N.4       1 SAH301      0.0000 
      2 CA         21.6030  -12.6150  -34.6960 C.3       1 SAH301      0.0000 
      3 CB         20.6140  -12.9240  -35.8140 C.3       1 SAH301      0.0000 
      4 CG         19.3430  -12.0780  -35.8030 C.3       1 SAH301      0.0000 
      5 SD         18.5980  -11.9150  -37.4460 S.3       1 SAH301      0.0000 
      6 C          23.0010  -13.0810  -35.0870 C.2       1 SAH301      0.0000 
      7 O          23.2210  -14.2620  -35.3520 O.co2     1 SAH301      0.0000 
      8 OXT        23.9440  -12.2920  -35.1420 O.co2     1 SAH301      0.0000 
      9 C5'        17.1870  -12.9660  -37.0180 C.3       1 SAH301      0.0000 
     10 C4'        17.1620  -14.2790  -37.7950 C.3       1 SAH301      0.0000 
     11 O4'        17.1640  -14.0300  -39.1880 O.3       1 SAH301      0.0000 
     12 C3'        18.3750  -15.1420  -37.4880 C.3       1 SAH301      0.0000 
     13 O3'        18.0170  -16.2240  -36.6640 O.3       1 SAH301      0.0000 
     14 C2'        18.8590  -15.6560  -38.8220 C.3       1 SAH301      0.0000 
     15 O2'        18.5730  -17.0310  -38.9190 O.3       1 SAH301      0.0000 
     16 C1'        18.0470  -14.9090  -39.8600 C.3       1 SAH301      0.0000 
     17 N9         18.9430  -14.1340  -40.7390 N.pl3     1 SAH301      0.0000 
     18 C8         19.2150  -12.7940  -40.6380 C.2       1 SAH301      0.0000 
     19 N7         20.0810  -12.4520  -41.6180 N.2       1 SAH301      0.0000 
     20 C5         20.3710  -13.5560  -42.3380 C.ar      1 SAH301      0.0000 
     21 C6         21.1930  -13.7630  -43.4360 C.ar      1 SAH301      0.0000 
     22 N6         21.8760  -12.7530  -43.9670 N.pl3     1 SAH301      0.0000 
     23 N1         21.2960  -15.0270  -43.9730 N.ar      1 SAH301      0.0000 
     24 C2         20.5860  -16.0760  -43.4250 C.ar      1 SAH301      0.0000 
     25 N3         19.7710  -15.8620  -42.3330 N.ar      1 SAH301      0.0000 
     26 C4         19.6620  -14.6220  -41.8000 C.ar      1 SAH301      0.0000 
@<TRIPOS>BOND
     1    1    2 1    
     2    2    3 1    
     3    2    6 1    
     4    3    4 1    
     5    4    5 1    
     6    5    9 1    
     7    6    7 ar   
     8    6    8 ar   
     9    9   10 1    
    10   10   11 1    
    11   10   12 1    
    12   11   16 1    
    13   12   13 1    
    14   12   14 1    
    15   14   15 1    
    16   14   16 1    
    17   16   17 1    
    18   17   18 1    
    19   17   26 1    
    20   18   19 2    
    21   19   20 1    
    22   20   21 ar   
    23   20   26 ar   
    24   21   22 1    
    25   21   23 ar   
    26   23   24 ar   
    27   24   25 ar   
    28   25   26 ar   
@<TRIPOS>SUBSTRUCTURE
     1 SAH301      1 GROUP   
@<TRIPOS>SET

