#    Name: 6p1d_3_ANP
#    Modification time : Fri May 22 19:28:58 2020

@<TRIPOS>MOLECULE
6p1d_3_ANP
   31    33     1     0     1
SMALL
NO_CHARGES


@<TRIPOS>ATOM
      1 PG          9.2590   18.7510   -2.7510 P.3       1 ANP1102     0.0000 
      2 O1G        10.1460   18.4360   -1.5890 O.co2     1 ANP1102     0.0000 
      3 O2G         9.9580   18.2940   -4.0890 O.co2     1 ANP1102     0.0000 
      4 O3G         9.0250   20.3150   -2.8020 O.co2     1 ANP1102     0.0000 
      5 PB          7.2120   17.0730   -3.8160 P.3       1 ANP1102     0.0000 
      6 O1B         8.3260   16.3400   -4.4900 O.co2     1 ANP1102     0.0000 
      7 O2B         6.2020   16.0270   -3.2670 O.co2     1 ANP1102     0.0000 
      8 N3B         7.7760   17.9640   -2.5100 N.3       1 ANP1102     0.0000 
      9 PA          6.9190   18.2830   -6.3130 P.3       1 ANP1102     0.0000 
     10 O1A         6.4180   19.6020   -6.7630 O.co2     1 ANP1102     0.0000 
     11 O2A         8.4440   18.1640   -6.3720 O.co2     1 ANP1102     0.0000 
     12 O3A         6.4470   17.9900   -4.8190 O.3       1 ANP1102     0.0000 
     13 O5'         6.2110   17.1650   -7.1760 O.3       1 ANP1102     0.0000 
     14 C5'         4.8460   17.3070   -7.6220 C.3       1 ANP1102     0.0000 
     15 C4'         4.3210   15.9620   -8.0600 C.3       1 ANP1102     0.0000 
     16 O4'         4.7140   15.7050   -9.4280 O.3       1 ANP1102     0.0000 
     17 C3'         4.8090   14.7650   -7.2460 C.3       1 ANP1102     0.0000 
     18 O3'         3.7680   13.8060   -7.1040 O.3       1 ANP1102     0.0000 
     19 C2'         5.9690   14.2290   -8.0870 C.3       1 ANP1102     0.0000 
     20 O2'         6.1730   12.8360   -7.8790 O.3       1 ANP1102     0.0000 
     21 C1'         5.4750   14.5150   -9.5040 C.3       1 ANP1102     0.0000 
     22 N9          6.5460   14.7230  -10.4700 N.pl3     1 ANP1102     0.0000 
     23 C8          7.5990   15.5910  -10.3620 C.2       1 ANP1102     0.0000 
     24 N7          8.4190   15.5770  -11.3870 N.2       1 ANP1102     0.0000 
     25 C5          7.8570   14.6310  -12.2320 C.ar      1 ANP1102     0.0000 
     26 C6          8.2470   14.1450  -13.4990 C.ar      1 ANP1102     0.0000 
     27 N6          9.3320   14.5620  -14.1530 N.pl3     1 ANP1102     0.0000 
     28 N1          7.4660   13.2020  -14.0740 N.ar      1 ANP1102     0.0000 
     29 C2          6.3790   12.7810  -13.4220 C.ar      1 ANP1102     0.0000 
     30 N3          5.9150   13.1650  -12.2300 N.ar      1 ANP1102     0.0000 
     31 C4          6.7060   14.0980  -11.6860 C.ar      1 ANP1102     0.0000 
@<TRIPOS>BOND
     1    1    2 ar   
     2    1    3 ar   
     3    1    4 ar   
     4    1    8 1    
     5    5    6 ar   
     6    5    7 ar   
     7    5    8 1    
     8    5   12 1    
     9    9   10 ar   
    10    9   11 ar   
    11    9   12 1    
    12    9   13 1    
    13   13   14 1    
    14   14   15 1    
    15   15   16 1    
    16   15   17 1    
    17   16   21 1    
    18   17   18 1    
    19   17   19 1    
    20   19   20 1    
    21   19   21 1    
    22   21   22 1    
    23   22   23 1    
    24   22   31 1    
    25   23   24 2    
    26   24   25 1    
    27   25   26 ar   
    28   25   31 ar   
    29   26   27 1    
    30   26   28 ar   
    31   28   29 ar   
    32   29   30 ar   
    33   30   31 ar   
@<TRIPOS>SUBSTRUCTURE
     1 ANP1102     1 GROUP   
@<TRIPOS>SET
ATOM$ORANGE STATIC     ATOMS   COLORGROUP SYSTEM 
20 14 14 15 15 17 17 19 19 21 21 23 23 25 25 26 26 29 \
29 31 31 

