#    Name: 6p1d_4_ANP
#    Modification time : Fri May 22 19:29:05 2020

@<TRIPOS>MOLECULE
6p1d_4_ANP
   31    33     1     0     1
SMALL
NO_CHARGES


@<TRIPOS>ATOM
      1 PG        -28.4700   16.5430   -4.3630 P.3       1 ANP1102     0.0000 
      2 O1G       -27.7030   16.3880   -5.6380 O.co2     1 ANP1102     0.0000 
      3 O2G       -27.4770   16.4990   -3.1380 O.co2     1 ANP1102     0.0000 
      4 O3G       -29.2070   17.9420   -4.3750 O.co2     1 ANP1102     0.0000 
      5 PB        -29.8780   14.3800   -5.5240 P.3       1 ANP1102     0.0000 
      6 O1B       -28.5940   13.9720   -6.1650 O.co2     1 ANP1102     0.0000 
      7 O2B       -30.6100   13.0740   -5.1060 O.co2     1 ANP1102     0.0000 
      8 N3B       -29.6150   15.3090   -4.1520 N.3       1 ANP1102     0.0000 
      9 PA        -30.4190   15.4330   -8.0330 P.3       1 ANP1102     0.0000 
     10 O1A       -31.2040   16.5580   -8.5900 O.co2     1 ANP1102     0.0000 
     11 O2A       -28.9080   15.6570   -8.1370 O.co2     1 ANP1102     0.0000 
     12 O3A       -30.7900   15.1760   -6.5070 O.3       1 ANP1102     0.0000 
     13 O5'       -30.8620   14.1020   -8.7610 O.3       1 ANP1102     0.0000 
     14 C5'       -32.2200   13.9090   -9.2040 C.3       1 ANP1102     0.0000 
     15 C4'       -32.4150   12.4680   -9.6090 C.3       1 ANP1102     0.0000 
     16 O4'       -31.9440   12.2710  -10.9610 O.3       1 ANP1102     0.0000 
     17 C3'       -31.6910   11.4370   -8.7460 C.3       1 ANP1102     0.0000 
     18 O3'       -32.5010   10.2830   -8.5630 O.3       1 ANP1102     0.0000 
     19 C2'       -30.4310   11.1260   -9.5580 C.3       1 ANP1102     0.0000 
     20 O2'       -29.9740    9.8010   -9.3170 O.3       1 ANP1102     0.0000 
     21 C1'       -30.9390   11.2750  -10.9920 C.3       1 ANP1102     0.0000 
     22 N9        -29.9140   11.6920  -11.9390 N.pl3     1 ANP1102     0.0000 
     23 C8        -29.0860   12.7800  -11.8370 C.2       1 ANP1102     0.0000 
     24 N7        -28.2540   12.9230  -12.8410 N.2       1 ANP1102     0.0000 
     25 C5        -28.5610   11.8490  -13.6670 C.ar      1 ANP1102     0.0000 
     26 C6        -28.0310   11.4290  -14.9040 C.ar      1 ANP1102     0.0000 
     27 N6        -27.0490   12.0630  -15.5470 N.pl3     1 ANP1102     0.0000 
     28 N1        -28.5620   10.3180  -15.4650 N.ar      1 ANP1102     0.0000 
     29 C2        -29.5450    9.6790  -14.8240 C.ar      1 ANP1102     0.0000 
     30 N3        -30.1210    9.9820  -13.6570 N.ar      1 ANP1102     0.0000 
     31 C4        -29.5770   11.0870  -13.1270 C.ar      1 ANP1102     0.0000 
@<TRIPOS>BOND
     1    1    2 ar   
     2    1    3 ar   
     3    1    4 ar   
     4    1    8 1    
     5    5    6 ar   
     6    5    7 ar   
     7    5    8 1    
     8    5   12 1    
     9    9   10 ar   
    10    9   11 ar   
    11    9   12 1    
    12    9   13 1    
    13   13   14 1    
    14   14   15 1    
    15   15   16 1    
    16   15   17 1    
    17   16   21 1    
    18   17   18 1    
    19   17   19 1    
    20   19   20 1    
    21   19   21 1    
    22   21   22 1    
    23   22   23 1    
    24   22   31 1    
    25   23   24 2    
    26   24   25 1    
    27   25   26 ar   
    28   25   31 ar   
    29   26   27 1    
    30   26   28 ar   
    31   28   29 ar   
    32   29   30 ar   
    33   30   31 ar   
@<TRIPOS>SUBSTRUCTURE
     1 ANP1102     1 GROUP   
@<TRIPOS>SET
ATOM$ORANGE STATIC     ATOMS   COLORGROUP SYSTEM 
20 14 14 15 15 17 17 19 19 21 21 23 23 25 25 26 26 29 \
29 31 31 

