#    Name: 6p1d_1_ANP
#    Modification time : Fri May 22 19:28:45 2020

@<TRIPOS>MOLECULE
6p1d_1_ANP
   31    33     1     0     1
SMALL
NO_CHARGES


@<TRIPOS>ATOM
      1 PG        -10.6450   -1.0000   38.1470 P.3       1 ANP1101     0.0000 
      2 O1G        -9.8100   -1.0000   39.3870 O.co2     1 ANP1101     0.0000 
      3 O2G        -9.6920   -1.2160   36.9080 O.co2     1 ANP1101     0.0000 
      4 O3G       -11.6810   -2.1950   38.2200 O.co2     1 ANP1101     0.0000 
      5 PB        -11.6640    1.3970   39.3210 P.3       1 ANP1101     0.0000 
      6 O1B       -10.4130    1.4580   40.1320 O.co2     1 ANP1101     0.0000 
      7 O2B       -12.0090    2.8470   38.8790 O.co2     1 ANP1101     0.0000 
      8 N3B       -11.4770    0.4660   37.9340 N.3       1 ANP1101     0.0000 
      9 PA        -12.6380    0.3420   41.6780 P.3       1 ANP1101     0.0000 
     10 O1A       -13.7230   -0.5830   42.0750 O.co2     1 ANP1101     0.0000 
     11 O2A       -11.2370   -0.2730   41.7650 O.co2     1 ANP1101     0.0000 
     12 O3A       -12.8380    0.8390   40.1820 O.3       1 ANP1101     0.0000 
     13 O5'       -12.7750    1.6500   42.5630 O.3       1 ANP1101     0.0000 
     14 C5'       -14.0640    2.1490   42.9820 C.3       1 ANP1101     0.0000 
     15 C4'       -13.9110    3.5440   43.5410 C.3       1 ANP1101     0.0000 
     16 O4'       -13.4200    3.4770   44.8990 O.3       1 ANP1101     0.0000 
     17 C3'       -12.9560    4.4660   42.7810 C.3       1 ANP1101     0.0000 
     18 O3'       -13.4900    5.7830   42.7000 O.3       1 ANP1101     0.0000 
     19 C2'       -11.6830    4.4260   43.6300 C.3       1 ANP1101     0.0000 
     20 O2'       -10.9410    5.6350   43.5170 O.3       1 ANP1101     0.0000 
     21 C1'       -12.2630    4.2770   45.0340 C.3       1 ANP1101     0.0000 
     22 N9        -11.3710    3.6210   45.9790 N.pl3     1 ANP1101     0.0000 
     23 C8        -10.6390    2.4790   45.7800 C.2       1 ANP1101     0.0000 
     24 N7         -9.9290    2.1130   46.8180 N.2       1 ANP1101     0.0000 
     25 C5        -10.2200    3.0760   47.7730 C.ar      1 ANP1101     0.0000 
     26 C6         -9.7840    3.2590   49.0980 C.ar      1 ANP1101     0.0000 
     27 N6         -8.9340    2.4410   49.7200 N.pl3     1 ANP1101     0.0000 
     28 N1        -10.2660    4.3270   49.7740 N.ar      1 ANP1101     0.0000 
     29 C2        -11.1210    5.1470   49.1570 C.ar      1 ANP1101     0.0000 
     30 N3        -11.6010    5.0760   47.9140 N.ar      1 ANP1101     0.0000 
     31 C4        -11.1080    4.0100   47.2690 C.ar      1 ANP1101     0.0000 
@<TRIPOS>BOND
     1    1    2 ar   
     2    1    3 ar   
     3    1    4 ar   
     4    1    8 1    
     5    5    6 ar   
     6    5    7 ar   
     7    5    8 1    
     8    5   12 1    
     9    9   10 ar   
    10    9   11 ar   
    11    9   12 1    
    12    9   13 1    
    13   13   14 1    
    14   14   15 1    
    15   15   16 1    
    16   15   17 1    
    17   16   21 1    
    18   17   18 1    
    19   17   19 1    
    20   19   20 1    
    21   19   21 1    
    22   21   22 1    
    23   22   23 1    
    24   22   31 1    
    25   23   24 2    
    26   24   25 1    
    27   25   26 ar   
    28   25   31 ar   
    29   26   27 1    
    30   26   28 ar   
    31   28   29 ar   
    32   29   30 ar   
    33   30   31 ar   
@<TRIPOS>SUBSTRUCTURE
     1 ANP1101     1 GROUP   
@<TRIPOS>SET
ATOM$ORANGE STATIC     ATOMS   COLORGROUP SYSTEM 
20 14 14 15 15 17 17 19 19 21 21 23 23 25 25 26 26 29 \
29 31 31 

