#    Name: 6d99_1_UD2_CAVITY_N1_12
#    Modification time : Fri May 22 19:26:46 2020

@<TRIPOS>MOLECULE
6d99_1_UD2_CAVITY_N1_12
   75     0     5     0     0
SMALL
NO_CHARGES


@<TRIPOS>ATOM
      1 OG          3.1000   18.0300   23.5600 O.3       1 SER1        0.0000 
      2 OG          1.7700   19.2700   26.3700 O.3       1 SER1        0.0000 
      3 OG          6.7100   18.0900   22.8300 O.3       1 SER1        0.0000 
      4 OG          7.5100   17.1100   23.6400 O.3       1 SER1        0.0000 
      5 OG          7.4400   19.2300   23.4700 O.3       1 SER1        0.0000 
      6 OG          8.2400   18.2500   24.2800 O.3       1 SER1        0.0000 
      7 OG          9.2000   20.3200   23.0300 O.3       1 SER1        0.0000 
      8 OG         10.0100   19.3400   23.8400 O.3       1 SER1        0.0000 
      9 OG          8.9800   19.3900   24.9300 O.3       1 SER1        0.0000 
     10 N           5.0100   14.8900   23.4400 N.am      2 ALA2        0.0000 
     11 N           5.7400   16.0300   24.0900 N.am      2 ALA2        0.0000 
     12 N           6.5500   15.0500   24.8900 N.am      2 ALA2        0.0000 
     13 N           5.9000   19.0600   22.0200 N.am      2 ALA2        0.0000 
     14 O           7.6000   22.2700   21.4100 O.2       2 ALA2        0.0000 
     15 O           8.4000   21.2900   22.2200 O.2       2 ALA2        0.0000 
     16 O           9.1300   22.4300   22.8600 O.2       2 ALA2        0.0000 
     17 N           8.1000   22.4800   23.9500 N.am      2 ALA2        0.0000 
     18 N           7.0700   22.5300   25.0400 N.am      2 ALA2        0.0000 
     19 N           8.9100   21.5100   24.7600 N.am      2 ALA2        0.0000 
     20 N           7.8700   21.5600   25.8500 N.am      2 ALA2        0.0000 
     21 N           7.5800   22.7500   27.5800 N.am      2 ALA2        0.0000 
     22 CZ          4.2100   15.8600   22.6300 C.ar      3 PHE5        0.0000 
     23 CZ          3.1700   15.9100   23.7200 C.ar      3 PHE5        0.0000 
     24 CZ          3.9800   14.9400   24.5300 C.ar      3 PHE5        0.0000 
     25 CZ          4.1400   17.9700   22.4700 C.ar      3 PHE5        0.0000 
     26 CZ          4.9400   17.0000   23.2800 C.ar      3 PHE5        0.0000 
     27 CZ          2.8800   17.1000   25.4500 C.ar      3 PHE5        0.0000 
     28 CZ          1.8400   17.1500   26.5400 C.ar      3 PHE5        0.0000 
     29 CZ          6.7800   15.9800   23.0000 C.ar      3 PHE5        0.0000 
     30 CZ          4.7100   16.0800   25.1700 C.ar      3 PHE5        0.0000 
     31 CZ          3.6800   16.1300   26.2600 C.ar      3 PHE5        0.0000 
     32 CZ          5.5200   15.1000   25.9800 C.ar      3 PHE5        0.0000 
     33 CZ          5.2200   16.2900   27.7100 C.ar      3 PHE5        0.0000 
     34 CZ          8.3300   23.4000   22.0500 C.ar      3 PHE5        0.0000 
     35 CA          8.3100   16.1400   24.4500 C.3       4 GLY6        0.0000 
     36 CA          7.2800   16.1900   25.5400 C.3       4 GLY6        0.0000 
     37 CA          6.2500   16.2400   26.6200 C.3       4 GLY6        0.0000 
     38 CA          5.1500   18.4100   27.5500 C.3       4 GLY6        0.0000 
     39 CA          8.0200   17.3300   26.1800 C.3       4 GLY6        0.0000 
     40 CA          6.9800   17.3800   27.2700 C.3       4 GLY6        0.0000 
     41 CA          5.9500   17.4300   28.3500 C.3       4 GLY6        0.0000 
     42 CA          5.8800   19.5500   28.1900 C.3       4 GLY6        0.0000 
     43 CA          9.7800   18.4200   25.7300 C.3       4 GLY6        0.0000 
     44 CA          8.7500   18.4700   26.8200 C.3       4 GLY6        0.0000 
     45 CA          7.7200   18.5200   27.9100 C.3       4 GLY6        0.0000 
     46 CA          9.9400   21.4600   23.6700 C.3       4 GLY6        0.0000 
     47 CA         10.7400   20.4800   24.4800 C.3       4 GLY6        0.0000 
     48 CA          9.7100   20.5300   25.5700 C.3       4 GLY6        0.0000 
     49 CA          8.6800   20.5800   26.6600 C.3       4 GLY6        0.0000 
     50 CA          7.6500   20.6400   27.7400 C.3       4 GLY6        0.0000 
     51 CA          6.6200   20.6900   28.8300 C.3       4 GLY6        0.0000 
     52 CA          8.4500   19.6600   28.5500 C.3       4 GLY6        0.0000 
     53 CA          7.4200   19.7100   29.6400 C.3       4 GLY6        0.0000 
     54 CA          6.5400   22.8000   28.6600 C.3       4 GLY6        0.0000 
     55 CA          7.3500   21.8300   29.4700 C.3       4 GLY6        0.0000 
     56 DU          3.9100   17.0500   24.3600 H         5 CUB7        0.0000 
     57 DU          5.6700   18.1400   23.9200 H         5 CUB7        0.0000 
     58 DU          3.6100   18.2400   26.0900 H         5 CUB7        0.0000 
     59 DU          2.5800   18.2900   27.1800 H         5 CUB7        0.0000 
     60 DU          6.4800   17.1700   24.7300 H         5 CUB7        0.0000 
     61 DU          5.4500   17.2200   25.8200 H         5 CUB7        0.0000 
     62 DU          4.4100   17.2700   26.9000 H         5 CUB7        0.0000 
     63 DU          3.3800   17.3200   27.9900 H         5 CUB7        0.0000 
     64 DU          6.6300   20.2000   22.6700 H         5 CUB7        0.0000 
     65 DU          6.4100   19.2800   24.5600 H         5 CUB7        0.0000 
     66 DU          3.3100   19.4300   27.8200 H         5 CUB7        0.0000 
     67 DU          7.2100   18.3100   25.3700 H         5 CUB7        0.0000 
     68 DU          6.1800   18.3600   26.4600 H         5 CUB7        0.0000 
     69 DU          7.3700   21.3400   23.3100 H         5 CUB7        0.0000 
     70 DU          6.3400   21.3900   24.4000 H         5 CUB7        0.0000 
     71 DU          8.1700   20.3700   24.1200 H         5 CUB7        0.0000 
     72 DU          7.1400   20.4200   25.2000 H         5 CUB7        0.0000 
     73 DU          7.9500   19.4500   26.0100 H         5 CUB7        0.0000 
     74 DU          6.9100   19.5000   27.1000 H         5 CUB7        0.0000 
     75 DU          6.8400   21.6100   26.9300 H         5 CUB7        0.0000 
@<TRIPOS>BOND
@<TRIPOS>SUBSTRUCTURE
     1 SER1        1 GROUP   
     2 ALA2       10 GROUP   
     3 PHE5       22 GROUP   
     4 GLY6       35 GROUP   
     5 CUB7       56 GROUP   
@<TRIPOS>SET

