#    Name: 6d99_1_UD2
#    Modification time : Fri May 22 19:26:45 2020

@<TRIPOS>MOLECULE
6d99_1_UD2
   39    41     1     0     0
SMALL
NO_CHARGES


@<TRIPOS>ATOM
      1 C1'        -1.6910   23.3930   21.3930 C.3       1 UD2403      0.0000 
      2 C2'        -0.9110   24.2680   20.4090 C.3       1 UD2403      0.0000 
      3 C3'         0.3460   24.8510   21.0560 C.3       1 UD2403      0.0000 
      4 C4'        -0.0010   25.5240   22.3810 C.3       1 UD2403      0.0000 
      5 C5'        -0.7320   24.5390   23.2920 C.3       1 UD2403      0.0000 
      6 C6'        -1.1670   25.1260   24.6210 C.3       1 UD2403      0.0000 
      7 C7'        -1.2460   23.5340   18.0920 C.2       1 UD2403      0.0000 
      8 C8'        -0.8090   22.5820   17.0200 C.3       1 UD2403      0.0000 
      9 N2'        -0.5760   23.4580   19.2490 N.am      1 UD2403      0.0000 
     10 O1'        -1.1190   22.0720   21.4500 O.3       1 UD2403      0.0000 
     11 O3'         0.9610   25.7870   20.1730 O.3       1 UD2403      0.0000 
     12 O4'        -0.8120   26.6750   22.1670 O.3       1 UD2403      0.0000 
     13 O5'        -1.9130   24.0300   22.6460 O.3       1 UD2403      0.0000 
     14 O6'        -2.3560   25.9010   24.5080 O.3       1 UD2403      0.0000 
     15 O7'        -2.1890   24.3090   17.9340 O.2       1 UD2403      0.0000 
     16 N1          5.5810   16.9350   23.5170 N.am      1 UD2403      0.0000 
     17 C2          6.3180   15.7720   23.5440 C.2       1 UD2403      0.0000 
     18 N3          5.5840   14.6140   23.4460 N.am      1 UD2403      0.0000 
     19 C4          4.2210   14.5060   23.3150 C.2       1 UD2403      0.0000 
     20 C5          3.5210   15.7550   23.2810 C.2       1 UD2403      0.0000 
     21 C6          4.2090   16.9080   23.3810 C.2       1 UD2403      0.0000 
     22 O2          7.5380   15.7640   23.6230 O.2       1 UD2403      0.0000 
     23 O4          3.7000   13.3810   23.2480 O.2       1 UD2403      0.0000 
     24 C1B         6.3440   18.1930   23.6460 C.3       1 UD2403      0.0000 
     25 C2B         6.8700   18.7360   22.3220 C.3       1 UD2403      0.0000 
     26 O2'         8.1250   19.3840   22.5150 O.3       1 UD2403      0.0000 
     27 C3B         5.7390   19.6720   21.8790 C.3       1 UD2403      0.0000 
     28 C4B         5.1160   20.1440   23.2000 C.3       1 UD2403      0.0000 
     29 O4B         5.5160   19.1900   24.2070 O.3       1 UD2403      0.0000 
     30 O3B         6.2680   20.7550   21.1250 O.3       1 UD2403      0.0000 
     31 C5B         3.6080   20.2390   23.2220 C.3       1 UD2403      0.0000 
     32 O5B         3.0990   20.5860   21.9190 O.3       1 UD2403      0.0000 
     33 PA          2.0060   19.8060   21.0310 P.3       1 UD2403      0.0000 
     34 O1A         2.1230   20.4490   19.6560 O.co2     1 UD2403      0.0000 
     35 O2A         2.0950   18.3360   20.8680 O.co2     1 UD2403      0.0000 
     36 O3A         0.5270   20.1490   21.5090 O.3       1 UD2403      0.0000 
     37 PB         -0.0550   21.3220   22.4120 P.3       1 UD2403      0.0000 
     38 O1B        -0.8220   20.6770   23.5460 O.co2     1 UD2403      0.0000 
     39 O2B         1.0630   22.1050   22.9900 O.co2     1 UD2403      0.0000 
@<TRIPOS>BOND
     1    1    2 1    
     2    1   10 1    
     3    1   13 1    
     4    2    3 1    
     5    2    9 1    
     6    3    4 1    
     7    3   11 1    
     8    4    5 1    
     9    4   12 1    
    10    5    6 1    
    11    5   13 1    
    12    6   14 1    
    13    7    8 1    
    14    7    9 am   
    15    7   15 2    
    16   10   37 1    
    17   16   17 1    
    18   16   21 1    
    19   16   24 1    
    20   17   18 1    
    21   17   22 2    
    22   18   19 1    
    23   19   20 1    
    24   19   23 2    
    25   20   21 2    
    26   24   25 1    
    27   24   29 1    
    28   25   26 1    
    29   25   27 1    
    30   27   28 1    
    31   27   30 1    
    32   28   29 1    
    33   28   31 1    
    34   31   32 1    
    35   32   33 1    
    36   33   34 ar   
    37   33   35 ar   
    38   33   36 1    
    39   36   37 1    
    40   37   38 ar   
    41   37   39 ar   
@<TRIPOS>SUBSTRUCTURE
     1 UD2403      1 GROUP   
@<TRIPOS>SET

