#    Name: 5v8x_1_NAD
#    Modification time : Fri May 22 19:15:27 2020

@<TRIPOS>MOLECULE
5v8x_1_NAD
   44    48     1     0     1
SMALL
NO_CHARGES


@<TRIPOS>ATOM
      1 PA         69.2130   18.8860   25.6270 P.3       1 NAD401      0.0000 
      2 O1A        70.3430   19.7670   25.2140 O.co2     1 NAD401      0.0000 
      3 O2A        69.0510   17.5750   24.9380 O.co2     1 NAD401      0.0000 
      4 O5B        67.8280   19.6820   25.5840 O.3       1 NAD401      0.0000 
      5 C5B        67.8820   21.0760   25.2480 C.3       1 NAD401      0.0000 
      6 C4B        66.7900   21.3850   24.2650 C.3       1 NAD401      0.0000 
      7 O4B        66.3470   22.7450   24.4950 O.3       1 NAD401      0.0000 
      8 C3B        67.2000   21.3380   22.7880 C.3       1 NAD401      0.0000 
      9 O3B        66.1040   20.9370   21.9840 O.3       1 NAD401      0.0000 
     10 C2B        67.6460   22.7860   22.5600 C.3       1 NAD401      0.0000 
     11 O2B        67.6960   23.1580   21.1990 O.3       1 NAD401      0.0000 
     12 C1B        66.5370   23.5020   23.3230 C.3       1 NAD401      0.0000 
     13 N9A        66.8040   24.8900   23.6880 N.pl3     1 NAD401      0.0000 
     14 C8A        68.0090   25.4810   23.9810 C.2       1 NAD401      0.0000 
     15 N7A        67.9050   26.7550   24.2800 N.2       1 NAD401      0.0000 
     16 C5A        66.5450   27.0190   24.1880 C.ar      1 NAD401      0.0000 
     17 C6A        65.7830   28.1890   24.4010 C.ar      1 NAD401      0.0000 
     18 N6A        66.3100   29.3580   24.7590 N.pl3     1 NAD401      0.0000 
     19 N1A        64.4410   28.1090   24.2300 N.ar      1 NAD401      0.0000 
     20 C2A        63.9150   26.9300   23.8670 C.ar      1 NAD401      0.0000 
     21 N3A        64.5280   25.7670   23.6450 N.ar      1 NAD401      0.0000 
     22 C4A        65.8570   25.8750   23.8260 C.ar      1 NAD401      0.0000 
     23 O3         69.3010   18.6500   27.1910 O.3       1 NAD401      0.0000 
     24 PN         68.7080   17.5150   28.1260 P.3       1 NAD401      0.0000 
     25 O1N        69.7500   16.4880   28.3950 O.co2     1 NAD401      0.0000 
     26 O2N        67.3950   17.0980   27.5580 O.co2     1 NAD401      0.0000 
     27 O5D        68.4750   18.3590   29.4530 O.3       1 NAD401      0.0000 
     28 C5D        67.2930   19.1700   29.4990 C.3       1 NAD401      0.0000 
     29 C4D        67.0200   19.5120   30.9370 C.3       1 NAD401      0.0000 
     30 O4D        66.7650   18.2830   31.6650 O.3       1 NAD401      0.0000 
     31 C3D        68.1660   20.2050   31.6870 C.3       1 NAD401      0.0000 
     32 O3D        67.6340   21.1130   32.6330 O.3       1 NAD401      0.0000 
     33 C2D        68.8660   19.0340   32.3710 C.3       1 NAD401      0.0000 
     34 O2D        69.6070   19.4530   33.5040 O.3       1 NAD401      0.0000 
     35 C1D        67.6660   18.1830   32.7350 C.3       1 NAD401      0.0000 
     36 N1N        67.9980   16.7390   32.9570 N.pl3     1 NAD401      0.0000 
     37 C2N        68.7570   16.0230   32.0760 C.ar      1 NAD401      0.0000 
     38 C3N        69.0690   14.7010   32.3400 C.ar      1 NAD401      0.0000 
     39 C7N        69.8460   13.8690   31.3490 C.2       1 NAD401      0.0000 
     40 O7N        70.4050   12.8370   31.7260 O.2       1 NAD401      0.0000 
     41 N7N        69.9130   14.2910   30.0940 N.am      1 NAD401      0.0000 
     42 C4N        68.6590   14.1380   33.5480 C.ar      1 NAD401      0.0000 
     43 C5N        67.9910   14.9210   34.4750 C.ar      1 NAD401      0.0000 
     44 C6N        67.5010   16.1350   34.0720 C.ar      1 NAD401      0.0000 
@<TRIPOS>BOND
     1    1    2 ar   
     2    1    3 ar   
     3    1    4 1    
     4    1   23 1    
     5    4    5 1    
     6    5    6 1    
     7    6    7 1    
     8    6    8 1    
     9    7   12 1    
    10    8    9 1    
    11    8   10 1    
    12   10   11 1    
    13   10   12 1    
    14   12   13 1    
    15   13   14 1    
    16   13   22 1    
    17   14   15 2    
    18   15   16 1    
    19   16   17 ar   
    20   16   22 ar   
    21   17   18 1    
    22   17   19 ar   
    23   19   20 ar   
    24   20   21 ar   
    25   21   22 ar   
    26   23   24 1    
    27   24   25 ar   
    28   24   26 ar   
    29   24   27 1    
    30   27   28 1    
    31   28   29 1    
    32   29   30 1    
    33   29   31 1    
    34   30   35 1    
    35   31   32 1    
    36   31   33 1    
    37   33   34 1    
    38   33   35 1    
    39   35   36 1    
    40   36   37 ar   
    41   36   44 ar   
    42   37   38 ar   
    43   38   39 1    
    44   38   42 ar   
    45   39   40 2    
    46   39   41 am   
    47   42   43 ar   
    48   43   44 ar   
@<TRIPOS>SUBSTRUCTURE
     1 NAD401      1 GROUP   
@<TRIPOS>SET
ATOM$ORANGE STATIC     ATOMS   COLORGROUP SYSTEM 
42 5 5 6 6 8 8 10 10 12 12 14 14 16 16 17 17 20 \
20 22 22 28 28 29 29 31 31 33 33 35 35 37 37 38 38 39 \
39 42 42 43 43 44 44 

