#    Name: 5v8x_4_NAD
#    Modification time : Fri May 22 19:15:56 2020

@<TRIPOS>MOLECULE
5v8x_4_NAD
   44    48     1     0     1
SMALL
NO_CHARGES


@<TRIPOS>ATOM
      1 PA         79.9860  -15.8420   19.1480 P.3       1 NAD401      0.0000 
      2 O1A        81.4270  -15.9030   19.5150 O.co2     1 NAD401      0.0000 
      3 O2A        79.1070  -14.8580   19.8390 O.co2     1 NAD401      0.0000 
      4 O5B        79.3190  -17.2900   19.2430 O.3       1 NAD401      0.0000 
      5 C5B        80.1730  -18.4050   19.5390 C.3       1 NAD401      0.0000 
      6 C4B        79.4600  -19.3090   20.5060 C.3       1 NAD401      0.0000 
      7 O4B        79.7840  -20.6880   20.1920 O.3       1 NAD401      0.0000 
      8 C3B        79.8600  -19.1230   21.9740 C.3       1 NAD401      0.0000 
      9 O3B        78.7700  -19.4290   22.8260 O.3       1 NAD401      0.0000 
     10 C2B        81.0190  -20.1140   22.0750 C.3       1 NAD401      0.0000 
     11 O2B        81.3650  -20.4130   23.4080 O.3       1 NAD401      0.0000 
     12 C1B        80.4030  -21.2820   21.3070 C.3       1 NAD401      0.0000 
     13 N9A        81.3480  -22.2970   20.8480 N.pl3     1 NAD401      0.0000 
     14 C8A        82.6180  -22.0930   20.3720 C.2       1 NAD401      0.0000 
     15 N7A        83.2380  -23.2000   20.0440 N.2       1 NAD401      0.0000 
     16 C5A        82.3200  -24.2010   20.3180 C.ar      1 NAD401      0.0000 
     17 C6A        82.3810  -25.6010   20.1750 C.ar      1 NAD401      0.0000 
     18 N6A        83.4510  -26.2480   19.7160 N.pl3     1 NAD401      0.0000 
     19 N1A        81.2880  -26.3140   20.5430 N.ar      1 NAD401      0.0000 
     20 C2A        80.2220  -25.6520   21.0150 C.ar      1 NAD401      0.0000 
     21 N3A        80.0520  -24.3430   21.1860 N.ar      1 NAD401      0.0000 
     22 C4A        81.1500  -23.6580   20.8150 C.ar      1 NAD401      0.0000 
     23 O3         79.9100  -15.6070   17.5670 O.3       1 NAD401      0.0000 
     24 PN         78.7440  -15.2430   16.5310 P.3       1 NAD401      0.0000 
     25 O1N        78.8090  -13.7970   16.1880 O.co2     1 NAD401      0.0000 
     26 O2N        77.4520  -15.7840   17.0460 O.co2     1 NAD401      0.0000 
     27 O5D        79.2600  -16.0770   15.2700 O.3       1 NAD401      0.0000 
     28 C5D        78.8130  -17.4370   15.1300 C.3       1 NAD401      0.0000 
     29 C4D        78.8670  -17.8270   13.6760 C.3       1 NAD401      0.0000 
     30 O4D        77.8360  -17.0960   12.9660 O.3       1 NAD401      0.0000 
     31 C3D        80.1750  -17.5160   12.9320 C.3       1 NAD401      0.0000 
     32 O3D        80.4190  -18.4820   11.9260 O.3       1 NAD401      0.0000 
     33 C2D        79.8740  -16.1620   12.3030 C.3       1 NAD401      0.0000 
     34 O2D        80.6900  -15.8600   11.1870 O.3       1 NAD401      0.0000 
     35 C1D        78.4280  -16.3730   11.9190 C.3       1 NAD401      0.0000 
     36 N1N        77.7070  -15.0770   11.7300 N.pl3     1 NAD401      0.0000 
     37 C2N        77.8390  -14.0470   12.6080 C.ar      1 NAD401      0.0000 
     38 C3N        77.6130  -12.7620   12.1650 C.ar      1 NAD401      0.0000 
     39 C7N        77.6650  -11.5770   13.0980 C.2       1 NAD401      0.0000 
     40 O7N        78.1050  -10.4990   12.6920 O.2       1 NAD401      0.0000 
     41 N7N        77.2010  -11.7410   14.3280 N.am      1 NAD401      0.0000 
     42 C4N        77.3330  -12.5810   10.8120 C.ar      1 NAD401      0.0000 
     43 C5N        76.8170  -13.6440   10.0860 C.ar      1 NAD401      0.0000 
     44 C6N        76.9530  -14.9030   10.6110 C.ar      1 NAD401      0.0000 
@<TRIPOS>BOND
     1    1    2 ar   
     2    1    3 ar   
     3    1    4 1    
     4    1   23 1    
     5    4    5 1    
     6    5    6 1    
     7    6    7 1    
     8    6    8 1    
     9    7   12 1    
    10    8    9 1    
    11    8   10 1    
    12   10   11 1    
    13   10   12 1    
    14   12   13 1    
    15   13   14 1    
    16   13   22 1    
    17   14   15 2    
    18   15   16 1    
    19   16   17 ar   
    20   16   22 ar   
    21   17   18 1    
    22   17   19 ar   
    23   19   20 ar   
    24   20   21 ar   
    25   21   22 ar   
    26   23   24 1    
    27   24   25 ar   
    28   24   26 ar   
    29   24   27 1    
    30   27   28 1    
    31   28   29 1    
    32   29   30 1    
    33   29   31 1    
    34   30   35 1    
    35   31   32 1    
    36   31   33 1    
    37   33   34 1    
    38   33   35 1    
    39   35   36 1    
    40   36   37 ar   
    41   36   44 ar   
    42   37   38 ar   
    43   38   39 1    
    44   38   42 ar   
    45   39   40 2    
    46   39   41 am   
    47   42   43 ar   
    48   43   44 ar   
@<TRIPOS>SUBSTRUCTURE
     1 NAD401      1 GROUP   
@<TRIPOS>SET
ATOM$ORANGE STATIC     ATOMS   COLORGROUP SYSTEM 
42 5 5 6 6 8 8 10 10 12 12 14 14 16 16 17 17 20 \
20 22 22 28 28 29 29 31 31 33 33 35 35 37 37 38 38 39 \
39 42 42 43 43 44 44 

