#    Name: 5v8x_3_NAD
#    Modification time : Fri May 22 19:15:46 2020

@<TRIPOS>MOLECULE
5v8x_3_NAD
   44    48     1     0     1
SMALL
NO_CHARGES


@<TRIPOS>ATOM
      1 PA         86.7810   23.8570   16.7230 P.3       1 NAD401      0.0000 
      2 O1A        85.4670   23.5980   17.3660 O.co2     1 NAD401      0.0000 
      3 O2A        87.9970   23.2960   17.3700 O.co2     1 NAD401      0.0000 
      4 O5B        86.9730   25.4180   16.4560 O.3       1 NAD401      0.0000 
      5 C5B        86.0610   26.3150   17.1070 C.3       1 NAD401      0.0000 
      6 C4B        86.8730   27.3530   17.8300 C.3       1 NAD401      0.0000 
      7 O4B        86.5520   28.6640   17.2960 O.3       1 NAD401      0.0000 
      8 C3B        86.6210   27.4370   19.3410 C.3       1 NAD401      0.0000 
      9 O3B        87.8310   27.7150   20.0220 O.3       1 NAD401      0.0000 
     10 C2B        85.5930   28.5690   19.4150 C.3       1 NAD401      0.0000 
     11 O2B        85.5230   29.1350   20.7030 O.3       1 NAD401      0.0000 
     12 C1B        86.1660   29.5090   18.3560 C.3       1 NAD401      0.0000 
     13 N9A        85.2440   30.5260   17.8470 N.pl3     1 NAD401      0.0000 
     14 C8A        83.9510   30.3500   17.4190 C.2       1 NAD401      0.0000 
     15 N7A        83.3810   31.4550   17.0040 N.2       1 NAD401      0.0000 
     16 C5A        84.3610   32.4270   17.1570 C.ar      1 NAD401      0.0000 
     17 C6A        84.3800   33.8140   16.8860 C.ar      1 NAD401      0.0000 
     18 N6A        83.3470   34.4880   16.3790 N.pl3     1 NAD401      0.0000 
     19 N1A        85.5290   34.4870   17.1510 N.ar      1 NAD401      0.0000 
     20 C2A        86.5690   33.8080   17.6570 C.ar      1 NAD401      0.0000 
     21 N3A        86.6620   32.5130   17.9510 N.ar      1 NAD401      0.0000 
     22 C4A        85.5150   31.8650   17.6760 C.ar      1 NAD401      0.0000 
     23 O3         86.7000   23.3400   15.2230 O.3       1 NAD401      0.0000 
     24 PN         87.8560   22.9340   14.2040 P.3       1 NAD401      0.0000 
     25 O1N        87.7340   21.4740   13.9390 O.co2     1 NAD401      0.0000 
     26 O2N        89.1400   23.5010   14.7170 O.co2     1 NAD401      0.0000 
     27 O5D        87.3780   23.7260   12.9000 O.3       1 NAD401      0.0000 
     28 C5D        88.1500   24.8660   12.4850 C.3       1 NAD401      0.0000 
     29 C4D        88.0620   25.0210   10.9890 C.3       1 NAD401      0.0000 
     30 O4D        89.0410   24.1490   10.3740 O.3       1 NAD401      0.0000 
     31 C3D        86.7220   24.6570   10.3300 C.3       1 NAD401      0.0000 
     32 O3D        86.4810   25.4950    9.2130 O.3       1 NAD401      0.0000 
     33 C2D        86.9640   23.2210    9.8910 C.3       1 NAD401      0.0000 
     34 O2D        86.0880   22.7920    8.8640 O.3       1 NAD401      0.0000 
     35 C1D        88.3930   23.3430    9.4280 C.3       1 NAD401      0.0000 
     36 N1N        89.0610   22.0150    9.3870 N.pl3     1 NAD401      0.0000 
     37 C2N        89.2190   21.3050   10.5300 C.ar      1 NAD401      0.0000 
     38 C3N        89.3560   19.9390   10.4600 C.ar      1 NAD401      0.0000 
     39 C7N        89.0220   19.0740   11.6480 C.2       1 NAD401      0.0000 
     40 O7N        89.5730   17.9770   11.7780 O.2       1 NAD401      0.0000 
     41 N7N        88.1080   19.5230   12.4990 N.am      1 NAD401      0.0000 
     42 C4N        89.7800   19.3860    9.2590 C.ar      1 NAD401      0.0000 
     43 C5N        89.7080   20.1470    8.0990 C.ar      1 NAD401      0.0000 
     44 C6N        89.4420   21.4870    8.1910 C.ar      1 NAD401      0.0000 
@<TRIPOS>BOND
     1    1    2 ar   
     2    1    3 ar   
     3    1    4 1    
     4    1   23 1    
     5    4    5 1    
     6    5    6 1    
     7    6    7 1    
     8    6    8 1    
     9    7   12 1    
    10    8    9 1    
    11    8   10 1    
    12   10   11 1    
    13   10   12 1    
    14   12   13 1    
    15   13   14 1    
    16   13   22 1    
    17   14   15 2    
    18   15   16 1    
    19   16   17 ar   
    20   16   22 ar   
    21   17   18 1    
    22   17   19 ar   
    23   19   20 ar   
    24   20   21 ar   
    25   21   22 ar   
    26   23   24 1    
    27   24   25 ar   
    28   24   26 ar   
    29   24   27 1    
    30   27   28 1    
    31   28   29 1    
    32   29   30 1    
    33   29   31 1    
    34   30   35 1    
    35   31   32 1    
    36   31   33 1    
    37   33   34 1    
    38   33   35 1    
    39   35   36 1    
    40   36   37 ar   
    41   36   44 ar   
    42   37   38 ar   
    43   38   39 1    
    44   38   42 ar   
    45   39   40 2    
    46   39   41 am   
    47   42   43 ar   
    48   43   44 ar   
@<TRIPOS>SUBSTRUCTURE
     1 NAD401      1 GROUP   
@<TRIPOS>SET
ATOM$ORANGE STATIC     ATOMS   COLORGROUP SYSTEM 
42 5 5 6 6 8 8 10 10 12 12 14 14 16 16 17 17 20 \
20 22 22 28 28 29 29 31 31 33 33 35 35 37 37 38 38 39 \
39 42 42 43 43 44 44 

