#    Name: 5v8x_2_NAD
#    Modification time : Fri May 22 19:15:37 2020

@<TRIPOS>MOLECULE
5v8x_2_NAD
   44    48     1     0     1
SMALL
NO_CHARGES


@<TRIPOS>ATOM
      1 PA         97.1900   -9.8560   27.6740 P.3       1 NAD401      0.0000 
      2 O1A        96.0780  -10.8150   27.4200 O.co2     1 NAD401      0.0000 
      3 O2A        97.3170   -8.6560   26.8040 O.co2     1 NAD401      0.0000 
      4 O5B        98.5880  -10.6300   27.7310 O.3       1 NAD401      0.0000 
      5 C5B        98.5480  -12.0660   27.6660 C.3       1 NAD401      0.0000 
      6 C4B        99.5850  -12.5580   26.6910 C.3       1 NAD401      0.0000 
      7 O4B       100.0440  -13.8600   27.1360 O.3       1 NAD401      0.0000 
      8 C3B        99.1120  -12.7730   25.2420 C.3       1 NAD401      0.0000 
      9 O3B       100.1440  -12.5130   24.3030 O.3       1 NAD401      0.0000 
     10 C2B        98.7440  -14.2580   25.2500 C.3       1 NAD401      0.0000 
     11 O2B        98.7120  -14.8120   23.9530 O.3       1 NAD401      0.0000 
     12 C1B        99.9080  -14.7840   26.0810 C.3       1 NAD401      0.0000 
     13 N9A        99.7410  -16.1190   26.6420 N.pl3     1 NAD401      0.0000 
     14 C8A        98.5880  -16.7130   27.0850 C.2       1 NAD401      0.0000 
     15 N7A        98.7730  -17.9240   27.5480 N.2       1 NAD401      0.0000 
     16 C5A       100.1360  -18.1440   27.4100 C.ar      1 NAD401      0.0000 
     17 C6A       100.9660  -19.2460   27.7200 C.ar      1 NAD401      0.0000 
     18 N6A       100.5260  -20.3850   28.2530 N.pl3     1 NAD401      0.0000 
     19 N1A       102.2890  -19.1350   27.4420 N.ar      1 NAD401      0.0000 
     20 C2A       102.7370  -17.9910   26.9030 C.ar      1 NAD401      0.0000 
     21 N3A       102.0530  -16.8970   26.5730 N.ar      1 NAD401      0.0000 
     22 C4A       100.7430  -17.0340   26.8530 C.ar      1 NAD401      0.0000 
     23 O3         97.0980   -9.4070   29.1840 O.3       1 NAD401      0.0000 
     24 PN         97.7110   -8.2330   30.0650 P.3       1 NAD401      0.0000 
     25 O1N        96.6770   -7.1710   30.2320 O.co2     1 NAD401      0.0000 
     26 O2N        99.0610   -7.9030   29.5280 O.co2     1 NAD401      0.0000 
     27 O5D        97.8680   -8.9930   31.4610 O.3       1 NAD401      0.0000 
     28 C5D        99.0140   -9.8420   31.6420 C.3       1 NAD401      0.0000 
     29 C4D        99.2320  -10.0370   33.1190 C.3       1 NAD401      0.0000 
     30 O4D        99.4680   -8.7450   33.7330 O.3       1 NAD401      0.0000 
     31 C3D        98.0590  -10.6410   33.9030 C.3       1 NAD401      0.0000 
     32 O3D        98.5280  -11.3850   35.0120 O.3       1 NAD401      0.0000 
     33 C2D        97.3400   -9.3970   34.3900 C.3       1 NAD401      0.0000 
     34 O2D        96.4820   -9.6600   35.4850 O.3       1 NAD401      0.0000 
     35 C1D        98.5420   -8.5620   34.7650 C.3       1 NAD401      0.0000 
     36 N1N        98.2380   -7.1060   34.8780 N.pl3     1 NAD401      0.0000 
     37 C2N        97.6290   -6.4380   33.8580 C.ar      1 NAD401      0.0000 
     38 C3N        97.3400   -5.0950   33.9730 C.ar      1 NAD401      0.0000 
     39 C7N        96.5870   -4.3800   32.8770 C.2       1 NAD401      0.0000 
     40 O7N        96.1980   -3.2270   33.0600 O.2       1 NAD401      0.0000 
     41 N7N        96.3720   -5.0240   31.7370 N.am      1 NAD401      0.0000 
     42 C4N        97.7850   -4.4110   35.1020 C.ar      1 NAD401      0.0000 
     43 C5N        98.4850   -5.0880   36.0910 C.ar      1 NAD401      0.0000 
     44 C6N        98.6000   -6.4510   36.0130 C.ar      1 NAD401      0.0000 
@<TRIPOS>BOND
     1    1    2 ar   
     2    1    3 ar   
     3    1    4 1    
     4    1   23 1    
     5    4    5 1    
     6    5    6 1    
     7    6    7 1    
     8    6    8 1    
     9    7   12 1    
    10    8    9 1    
    11    8   10 1    
    12   10   11 1    
    13   10   12 1    
    14   12   13 1    
    15   13   14 1    
    16   13   22 1    
    17   14   15 2    
    18   15   16 1    
    19   16   17 ar   
    20   16   22 ar   
    21   17   18 1    
    22   17   19 ar   
    23   19   20 ar   
    24   20   21 ar   
    25   21   22 ar   
    26   23   24 1    
    27   24   25 ar   
    28   24   26 ar   
    29   24   27 1    
    30   27   28 1    
    31   28   29 1    
    32   29   30 1    
    33   29   31 1    
    34   30   35 1    
    35   31   32 1    
    36   31   33 1    
    37   33   34 1    
    38   33   35 1    
    39   35   36 1    
    40   36   37 ar   
    41   36   44 ar   
    42   37   38 ar   
    43   38   39 1    
    44   38   42 ar   
    45   39   40 2    
    46   39   41 am   
    47   42   43 ar   
    48   43   44 ar   
@<TRIPOS>SUBSTRUCTURE
     1 NAD401      1 GROUP   
@<TRIPOS>SET
ATOM$ORANGE STATIC     ATOMS   COLORGROUP SYSTEM 
42 5 5 6 6 8 8 10 10 12 12 14 14 16 16 17 17 20 \
20 22 22 28 28 29 29 31 31 33 33 35 35 37 37 38 38 39 \
39 42 42 43 43 44 44 

