#    Name: 6o8b_2_BX7
#    Modification time : Fri May 22 19:25:07 2020

@<TRIPOS>MOLECULE
6o8b_2_BX7
   34    37     1     0     0
SMALL
NO_CHARGES


@<TRIPOS>ATOM
      1 I01      -115.2500   56.0080  -41.3670 I         1 BX7701      0.0000 
      2 S02      -112.3240   59.2680  -41.5680 S.3       1 BX7701      0.0000 
      3 O03      -111.7190   57.7620  -32.3760 O.2       1 BX7701      0.0000 
      4 O04      -108.9650   59.0690  -39.8900 O.2       1 BX7701      0.0000 
      5 N05      -109.8040   57.1520  -33.6290 N.am      1 BX7701      0.0000 
      6 N06      -111.9420   55.7550  -33.6620 N.am      1 BX7701      0.0000 
      7 N07      -113.5270   56.6910  -38.6770 N.pl3     1 BX7701      0.0000 
      8 N08      -116.3660   54.4170  -35.2950 N.pl3     1 BX7701      0.0000 
      9 N09      -110.9000   58.3210  -38.8790 N.am      1 BX7701      0.0000 
     10 N10      -115.0040   55.5320  -37.0960 N.ar      1 BX7701      0.0000 
     11 N11      -116.9530   54.3970  -37.7180 N.ar      1 BX7701      0.0000 
     12 C12      -107.5560   58.1080  -33.7900 C.3       1 BX7701      0.0000 
     13 C13      -107.8000   57.0180  -34.9120 C.3       1 BX7701      0.0000 
     14 C14      -109.1680   56.3110  -34.4960 C.3       1 BX7701      0.0000 
     15 C15      -108.8130   58.3680  -33.2270 C.3       1 BX7701      0.0000 
     16 C16      -111.2000   56.9590  -33.1580 C.2       1 BX7701      0.0000 
     17 C17      -113.2960   55.4320  -33.3120 C.ar      1 BX7701      0.0000 
     18 C18      -114.1570   55.1020  -34.3410 C.ar      1 BX7701      0.0000 
     19 C19      -111.5170   56.6290  -37.2340 C.3       1 BX7701      0.0000 
     20 C20      -113.7470   55.4320  -32.0140 C.ar      1 BX7701      0.0000 
     21 C21      -112.8540   57.3460  -37.5890 C.3       1 BX7701      0.0000 
     22 C22      -115.4970   54.7720  -34.1150 C.ar      1 BX7701      0.0000 
     23 C23      -110.3030   57.5230  -37.8060 C.3       1 BX7701      0.0000 
     24 C24      -115.0970   55.0980  -31.7610 C.ar      1 BX7701      0.0000 
     25 C25      -115.9510   54.7730  -32.7970 C.ar      1 BX7701      0.0000 
     26 C26      -114.7740   55.8640  -38.3540 C.ar      1 BX7701      0.0000 
     27 C27      -116.0990   54.7920  -36.7360 C.ar      1 BX7701      0.0000 
     28 C28      -115.6250   55.4710  -39.3330 C.ar      1 BX7701      0.0000 
     29 C29      -110.1620   59.0480  -39.8730 C.2       1 BX7701      0.0000 
     30 C30      -116.7280   54.7210  -38.9840 C.ar      1 BX7701      0.0000 
     31 C31      -111.0090   59.8120  -40.9120 C.2       1 BX7701      0.0000 
     32 C32      -110.7630   61.1330  -41.4320 C.2       1 BX7701      0.0000 
     33 C33      -111.9350   61.4860  -42.4750 C.2       1 BX7701      0.0000 
     34 C34      -112.8460   60.3640  -42.5360 C.2       1 BX7701      0.0000 
@<TRIPOS>BOND
     1    1   28 1    
     2    2   31 1    
     3    2   34 1    
     4    3   16 2    
     5    4   29 2    
     6    5   14 1    
     7    5   15 1    
     8    5   16 am   
     9    6   16 am   
    10    6   17 1    
    11    7   21 1    
    12    7   26 1    
    13    8   22 1    
    14    8   27 1    
    15    9   23 1    
    16    9   29 am   
    17   10   26 ar   
    18   10   27 ar   
    19   11   27 ar   
    20   11   30 ar   
    21   12   13 1    
    22   12   15 1    
    23   13   14 1    
    24   17   18 ar   
    25   17   20 ar   
    26   18   22 ar   
    27   19   21 1    
    28   19   23 1    
    29   20   24 ar   
    30   22   25 ar   
    31   24   25 ar   
    32   26   28 ar   
    33   28   30 ar   
    34   29   31 1    
    35   31   32 2    
    36   32   33 1    
    37   33   34 2    
@<TRIPOS>SUBSTRUCTURE
     1 BX7701      1 GROUP   
@<TRIPOS>SET

