#    Name: 6o8b_1_BX7
#    Modification time : Fri May 22 19:25:00 2020

@<TRIPOS>MOLECULE
6o8b_1_BX7
   34    36     1     0     0
SMALL
NO_CHARGES


@<TRIPOS>ATOM
      1 I01      -118.9100   53.3180    6.3210 Du        1 BX7701      0.0000 
      2 S02      -123.5710   53.9180    6.6580 S.3       1 BX7701      0.0000 
      3 O03      -122.4460   50.4130   -2.6340 O.2       1 BX7701      0.0000 
      4 O04      -125.5770   53.0080    3.5310 O.2       1 BX7701      0.0000 
      5 N05      -124.3890   51.3210   -1.6170 N.am      1 BX7701      0.0000 
      6 N06      -122.0910   52.4800   -1.5070 N.am      1 BX7701      0.0000 
      7 N07      -120.8490   53.3540    3.6370 N.pl3     1 BX7701      0.0000 
      8 N08      -117.4200   52.7110    0.1470 N.pl3     1 BX7701      0.0000 
      9 N09      -123.4960   52.2110    4.0750 N.am      1 BX7701      0.0000 
     10 N10      -119.0590   53.0310    2.0190 N.ar      1 BX7701      0.0000 
     11 N11      -116.7950   52.8030    2.5610 N.ar      1 BX7701      0.0000 
     12 C12      -126.2890   50.0750   -0.8530 C.3       1 BX7701      0.0000 
     13 C13      -126.1960   51.4810   -0.1210 C.3       1 BX7701      0.0000 
     14 C14      -125.0400   52.2740   -0.8910 C.3       1 BX7701      0.0000 
     15 C15      -125.4880   50.1990   -1.9970 C.3       1 BX7701      0.0000 
     16 C16      -122.9410   51.3300   -1.9710 C.2       1 BX7701      0.0000 
     17 C17      -120.6890   52.5750   -1.8040 C.ar      1 BX7701      0.0000 
     18 C18      -119.7720   52.5990   -0.7650 C.ar      1 BX7701      0.0000 
     19 C19      -122.1120   51.9180    2.0680 C.3       1 BX7701      0.0000 
     20 C20      -120.2620   52.6610   -3.1060 C.ar      1 BX7701      0.0000 
     21 C21      -121.8010   53.3660    2.5580 C.3       1 BX7701      0.0000 
     22 C22      -118.3930   52.7020   -1.0050 C.ar      1 BX7701      0.0000 
     23 C23      -123.3740   51.3460    2.8990 C.3       1 BX7701      0.0000 
     24 C24      -118.8840   52.7620   -3.3720 C.ar      1 BX7701      0.0000 
     25 C25      -117.9790   52.7840   -2.3330 C.ar      1 BX7701      0.0000 
     26 C26      -119.3710   53.1590    3.2950 C.ar      1 BX7701      0.0000 
     27 C27      -117.7680   52.8510    1.6100 C.ar      1 BX7701      0.0000 
     28 C28      -118.4070   53.1120    4.2510 C.ar      1 BX7701      0.0000 
     29 C29      -124.6630   53.0200    4.3010 C.2       1 BX7701      0.0000 
     30 C30      -117.0990   52.9270    3.8470 C.ar      1 BX7701      0.0000 
     31 C31      -124.6800   53.9150    5.5540 C.2       1 BX7701      0.0000 
     32 C32      -125.6780   54.8970    5.9030 C.2       1 BX7701      0.0000 
     33 C33      -125.2410   55.5780    7.2910 C.2       1 BX7701      0.0000 
     34 C34      -123.9940   54.9780    7.7120 C.2       1 BX7701      0.0000 
@<TRIPOS>BOND
     1    2   31 1    
     2    2   34 1    
     3    3   16 2    
     4    4   29 2    
     5    5   14 1    
     6    5   15 1    
     7    5   16 am   
     8    6   16 am   
     9    6   17 1    
    10    7   21 1    
    11    7   26 1    
    12    8   22 1    
    13    8   27 1    
    14    9   23 1    
    15    9   29 am   
    16   10   26 ar   
    17   10   27 ar   
    18   11   27 ar   
    19   11   30 ar   
    20   12   13 1    
    21   12   15 1    
    22   13   14 1    
    23   17   18 ar   
    24   17   20 ar   
    25   18   22 ar   
    26   19   21 1    
    27   19   23 1    
    28   20   24 ar   
    29   22   25 ar   
    30   24   25 ar   
    31   26   28 ar   
    32   28   30 ar   
    33   29   31 1    
    34   31   32 2    
    35   32   33 1    
    36   33   34 2    
@<TRIPOS>SUBSTRUCTURE
     1 BX7701      1 GROUP   
@<TRIPOS>SET

