#    Name: 6nyb_1_AGS
#    Modification time : Fri May 22 19:26:03 2020

@<TRIPOS>MOLECULE
6nyb_1_AGS
   31    33     1     0     0
SMALL
NO_CHARGES


@<TRIPOS>ATOM
      1 PG        106.0870  117.2270  124.9350 P.3       1 AGS801      0.0000 
      2 S1G       104.4350  116.1170  124.3500 S.2       1 AGS801      0.0000 
      3 O2G       107.2560  117.0800  123.8380 O.3       1 AGS801      0.0000 
      4 O3G       106.5710  116.7300  126.2420 O.3       1 AGS801      0.0000 
      5 PB        105.3770  119.7040  123.8060 P.3       1 AGS801      0.0000 
      6 O1B       106.3800  119.3870  122.7250 O.co2     1 AGS801      0.0000 
      7 O2B       103.9000  119.6350  123.5000 O.co2     1 AGS801      0.0000 
      8 O3B       105.6700  118.7730  125.0870 O.3       1 AGS801      0.0000 
      9 PA        107.0730  121.4640  125.1740 P.3       1 AGS801      0.0000 
     10 O1A       108.2050  120.8030  124.4230 O.co2     1 AGS801      0.0000 
     11 O2A       106.8470  121.1140  126.6250 O.co2     1 AGS801      0.0000 
     12 O3A       105.7030  121.1730  124.3780 O.3       1 AGS801      0.0000 
     13 O5'       107.2610  123.0630  125.0760 O.3       1 AGS801      0.0000 
     14 C5'       106.4390  123.8970  124.2560 C.3       1 AGS801      0.0000 
     15 C4'       107.2550  125.0650  123.7020 C.3       1 AGS801      0.0000 
     16 O4'       108.5790  125.0560  124.2470 O.3       1 AGS801      0.0000 
     17 C3'       107.3950  125.0370  122.1830 C.3       1 AGS801      0.0000 
     18 O3'       106.6050  126.0740  121.5880 O.3       1 AGS801      0.0000 
     19 C2'       108.8730  125.2240  121.8860 C.3       1 AGS801      0.0000 
     20 O2'       109.1120  126.4040  121.1100 O.3       1 AGS801      0.0000 
     21 C1'       109.5590  125.3260  123.2390 C.3       1 AGS801      0.0000 
     22 N9        110.6940  124.3810  123.3540 N.pl3     1 AGS801      0.0000 
     23 C8        110.6620  123.1330  123.8540 C.2       1 AGS801      0.0000 
     24 N7        111.8930  122.5610  123.8100 N.2       1 AGS801      0.0000 
     25 C5        112.7360  123.4580  123.2690 C.ar      1 AGS801      0.0000 
     26 C6        114.1770  123.5120  122.9270 C.ar      1 AGS801      0.0000 
     27 N6        114.9910  122.4550  123.1650 N.pl3     1 AGS801      0.0000 
     28 N1        114.6440  124.6580  122.3730 N.ar      1 AGS801      0.0000 
     29 C2        113.8430  125.7200  122.1310 C.ar      1 AGS801      0.0000 
     30 N3        112.5320  125.7320  122.4170 N.ar      1 AGS801      0.0000 
     31 C4        111.9360  124.6550  122.9750 C.ar      1 AGS801      0.0000 
@<TRIPOS>BOND
     1    1    2 2    
     2    1    3 1    
     3    1    4 1    
     4    1    8 1    
     5    5    6 ar   
     6    5    7 ar   
     7    5    8 1    
     8    5   12 1    
     9    9   10 ar   
    10    9   11 ar   
    11    9   12 1    
    12    9   13 1    
    13   13   14 1    
    14   14   15 1    
    15   15   16 1    
    16   15   17 1    
    17   16   21 1    
    18   17   18 1    
    19   17   19 1    
    20   19   20 1    
    21   19   21 1    
    22   21   22 1    
    23   22   23 1    
    24   22   31 1    
    25   23   24 2    
    26   24   25 1    
    27   25   26 ar   
    28   25   31 ar   
    29   26   27 1    
    30   26   28 ar   
    31   28   29 ar   
    32   29   30 ar   
    33   30   31 ar   
@<TRIPOS>SUBSTRUCTURE
     1 AGS801      1 GROUP   
@<TRIPOS>SET

