#    Name: 6nyb_2_ADP
#    Modification time : Fri May 22 19:26:08 2020

@<TRIPOS>MOLECULE
6nyb_2_ADP
   27    29     1     0     1
SMALL
NO_CHARGES


@<TRIPOS>ATOM
      1 PB         87.3980  119.5450  134.7830 P.3       1 ADP601      0.0000 
      2 O1B        87.1720  118.3330  133.9140 O.co2     1 ADP601      0.0000 
      3 O2B        86.1110  120.2080  135.2060 O.co2     1 ADP601      0.0000 
      4 O3B        88.3210  119.2670  135.9440 O.co2     1 ADP601      0.0000 
      5 PA         88.2470  122.2260  133.8990 P.3       1 ADP601      0.0000 
      6 O1A        87.0920  122.7840  133.1370 O.co2     1 ADP601      0.0000 
      7 O2A        89.6240  122.6380  133.4930 O.co2     1 ADP601      0.0000 
      8 O3A        88.1620  120.6240  133.8590 O.3       1 ADP601      0.0000 
      9 O5'        88.0400  122.5170  135.4650 O.3       1 ADP601      0.0000 
     10 C5'        89.2120  122.7470  136.2890 C.3       1 ADP601      0.0000 
     11 C4'        88.8140  122.8870  137.7390 C.3       1 ADP601      0.0000 
     12 O4'        88.2910  124.2200  137.9580 O.3       1 ADP601      0.0000 
     13 C3'        87.7380  121.9170  138.2550 C.3       1 ADP601      0.0000 
     14 O3'        88.2790  121.0690  139.2610 O.3       1 ADP601      0.0000 
     15 C2'        86.6230  122.8100  138.8180 C.3       1 ADP601      0.0000 
     16 O2'        86.1670  122.3710  140.0790 O.3       1 ADP601      0.0000 
     17 C1'        87.2830  124.1810  138.9380 C.3       1 ADP601      0.0000 
     18 N9         86.3690  125.2900  138.6850 N.pl3     1 ADP601      0.0000 
     19 C8         86.0310  125.7820  137.4490 C.2       1 ADP601      0.0000 
     20 N7         85.1940  126.7860  137.4970 N.2       1 ADP601      0.0000 
     21 C5         84.9530  126.9660  138.8500 C.ar      1 ADP601      0.0000 
     22 C6         84.1420  127.8800  139.5490 C.ar      1 ADP601      0.0000 
     23 N6         83.4000  128.8120  138.9570 N.pl3     1 ADP601      0.0000 
     24 N1         84.1210  127.7920  140.9010 N.ar      1 ADP601      0.0000 
     25 C2         84.8680  126.8480  141.4900 C.ar      1 ADP601      0.0000 
     26 N3         85.6720  125.9420  140.9370 N.ar      1 ADP601      0.0000 
     27 C4         85.6720  126.0490  139.5970 C.ar      1 ADP601      0.0000 
@<TRIPOS>BOND
     1    1    2 ar   
     2    1    3 ar   
     3    1    4 ar   
     4    1    8 1    
     5    5    6 ar   
     6    5    7 ar   
     7    5    8 1    
     8    5    9 1    
     9    9   10 1    
    10   10   11 1    
    11   11   12 1    
    12   11   13 1    
    13   12   17 1    
    14   13   14 1    
    15   13   15 1    
    16   15   16 1    
    17   15   17 1    
    18   17   18 1    
    19   18   19 1    
    20   18   27 1    
    21   19   20 2    
    22   20   21 1    
    23   21   22 ar   
    24   21   27 ar   
    25   22   23 1    
    26   22   24 ar   
    27   24   25 ar   
    28   25   26 ar   
    29   26   27 ar   
@<TRIPOS>SUBSTRUCTURE
     1 ADP601      1 GROUP   
@<TRIPOS>SET
ATOM$ORANGE STATIC     ATOMS   COLORGROUP SYSTEM 
20 10 10 11 11 13 13 15 15 17 17 19 19 21 21 22 22 25 \
25 27 27 

