#    Name: 6c8z_1_ADP
#    Modification time : Fri May 22 19:24:50 2020

@<TRIPOS>MOLECULE
6c8z_1_ADP
   27    29     1     0     1
SMALL
NO_CHARGES


@<TRIPOS>ATOM
      1 PB         14.4590   -0.7980   14.6870 P.3       1 ADP501      0.0000 
      2 O1B        14.5500   -2.0430   13.8320 O.co2     1 ADP501      0.0000 
      3 O2B        13.4890   -0.8710   15.8440 O.co2     1 ADP501      0.0000 
      4 O3B        15.7890   -0.1930   15.0700 O.co2     1 ADP501      0.0000 
      5 PA         14.6060    1.0000   12.5140 P.3       1 ADP501      0.0000 
      6 O1A        13.6080    1.7150   11.6300 O.co2     1 ADP501      0.0000 
      7 O2A        15.7900    1.7590   13.0700 O.co2     1 ADP501      0.0000 
      8 O3A        13.7790    0.2640   13.6860 O.3       1 ADP501      0.0000 
      9 O5'        15.1970   -0.2710   11.7300 O.3       1 ADP501      0.0000 
     10 C5'        14.6630   -0.7370   10.4920 C.3       1 ADP501      0.0000 
     11 C4'        15.8050   -1.0350    9.5220 C.3       1 ADP501      0.0000 
     12 O4'        15.8250   -2.4260    9.1980 O.3       1 ADP501      0.0000 
     13 C3'        15.7200   -0.2640    8.2070 C.3       1 ADP501      0.0000 
     14 O3'        16.6440    0.8310    8.2100 O.3       1 ADP501      0.0000 
     15 C2'        16.0340   -1.2790    7.1180 C.3       1 ADP501      0.0000 
     16 O2'        17.2740   -1.0390    6.4450 O.3       1 ADP501      0.0000 
     17 C1'        16.1190   -2.6250    7.8130 C.3       1 ADP501      0.0000 
     18 N9         15.1180   -3.5410    7.2170 N.pl3     1 ADP501      0.0000 
     19 C8         13.7850   -3.4250    7.3930 C.2       1 ADP501      0.0000 
     20 N7         13.1260   -4.4020    6.7270 N.2       1 ADP501      0.0000 
     21 C5         14.0510   -5.1550    6.1130 C.ar      1 ADP501      0.0000 
     22 C6         14.0200   -6.3460    5.2460 C.ar      1 ADP501      0.0000 
     23 N6         12.8380   -6.9070    4.9200 N.pl3     1 ADP501      0.0000 
     24 N1         15.1940   -6.8380    4.8060 N.ar      1 ADP501      0.0000 
     25 C2         16.3760   -6.2760    5.1330 C.ar      1 ADP501      0.0000 
     26 N3         16.4710   -5.1870    5.9210 N.ar      1 ADP501      0.0000 
     27 C4         15.3650   -4.5910    6.4300 C.ar      1 ADP501      0.0000 
@<TRIPOS>BOND
     1    1    2 ar   
     2    1    3 ar   
     3    1    4 ar   
     4    1    8 1    
     5    5    6 ar   
     6    5    7 ar   
     7    5    8 1    
     8    5    9 1    
     9    9   10 1    
    10   10   11 1    
    11   11   12 1    
    12   11   13 1    
    13   12   17 1    
    14   13   14 1    
    15   13   15 1    
    16   15   16 1    
    17   15   17 1    
    18   17   18 1    
    19   18   19 1    
    20   18   27 1    
    21   19   20 2    
    22   20   21 1    
    23   21   22 ar   
    24   21   27 ar   
    25   22   23 1    
    26   22   24 ar   
    27   24   25 ar   
    28   25   26 ar   
    29   26   27 ar   
@<TRIPOS>SUBSTRUCTURE
     1 ADP501      1 GROUP   
@<TRIPOS>SET
ATOM$ORANGE STATIC     ATOMS   COLORGROUP SYSTEM 
20 10 10 11 11 13 13 15 15 17 17 19 19 21 21 22 22 25 \
25 27 27 

