#    Name: 5ujj_1_TYM_CAVITY_N1_ALL
#    Modification time : Fri May 22 19:14:00 2020

@<TRIPOS>MOLECULE
5ujj_1_TYM_CAVITY_N1_ALL
   80     0     7     0     0
SMALL
NO_CHARGES


@<TRIPOS>ATOM
      1 OG          1.0400   -5.5000   32.0300 O.3       1 SER1        0.0000 
      2 N          -3.2500   -6.7900   25.6600 N.am      2 ALA2        0.0000 
      3 N          -2.5300   -6.1500   26.8000 N.am      2 ALA2        0.0000 
      4 N          -1.3300   -7.0100   26.5200 N.am      2 ALA2        0.0000 
      5 O          -1.9900   -5.1000   25.8800 O.2       2 ALA2        0.0000 
      6 O          -1.4600   -4.0500   24.9500 O.2       2 ALA2        0.0000 
      7 O          -2.3400   -6.5600   28.8700 O.2       2 ALA2        0.0000 
      8 O          -1.1400   -7.4200   28.5900 O.2       2 ALA2        0.0000 
      9 O          -1.8000   -5.5100   27.9500 O.2       2 ALA2        0.0000 
     10 N          -0.6000   -6.3700   27.6700 N.am      2 ALA2        0.0000 
     11 N          -0.0700   -5.3100   26.7400 N.am      2 ALA2        0.0000 
     12 O          -0.7300   -3.4000   26.1000 O.2       2 ALA2        0.0000 
     13 O           0.4700   -4.2600   25.8200 O.2       2 ALA2        0.0000 
     14 O          -0.2000   -2.3500   25.1700 O.2       2 ALA2        0.0000 
     15 O          -2.1400   -6.9800   30.9500 O.2       2 ALA2        0.0000 
     16 O          -1.6100   -5.9200   30.0200 O.2       2 ALA2        0.0000 
     17 O          -0.4100   -6.7800   29.7400 O.2       2 ALA2        0.0000 
     18 N          -1.0800   -4.8700   29.1000 N.am      2 ALA2        0.0000 
     19 O           0.1200   -5.7300   28.8100 O.2       2 ALA2        0.0000 
     20 N          -0.5400   -3.8200   28.1700 N.am      2 ALA2        0.0000 
     21 N          -0.0100   -2.7600   27.2400 N.am      2 ALA2        0.0000 
     22 O           0.5200   -1.7100   26.3200 O.2       2 ALA2        0.0000 
     23 O          -0.8900   -5.2800   31.1700 O.2       2 ALA2        0.0000 
     24 O           0.3100   -6.1400   30.8900 O.2       2 ALA2        0.0000 
     25 N          -0.3500   -4.2300   30.2400 N.am      2 ALA2        0.0000 
     26 O           0.8500   -5.0800   29.9600 O.2       2 ALA2        0.0000 
     27 N           0.1800   -3.1800   29.3200 N.am      2 ALA2        0.0000 
     28 N          -0.8300   -2.7300   31.6700 N.am      2 ALA2        0.0000 
     29 N           0.3700   -3.5900   31.3900 N.am      2 ALA2        0.0000 
     30 O           2.7700   -5.3000   30.8300 O.2       2 ALA2        0.0000 
     31 N           0.9100   -2.5400   30.4600 N.am      2 ALA2        0.0000 
     32 N           3.8800   -5.4800   36.1200 N.am      2 ALA2        0.0000 
     33 N           3.7500   -2.5200   34.5500 N.am      2 ALA2        0.0000 
     34 N           4.9500   -3.3800   34.2700 N.am      2 ALA2        0.0000 
     35 N           4.6000   -4.8400   37.2600 N.am      2 ALA2        0.0000 
     36 N           5.8000   -5.7000   36.9800 N.am      2 ALA2        0.0000 
     37 N           5.1400   -3.7900   36.3400 N.am      2 ALA2        0.0000 
     38 O           6.3400   -4.6400   36.0600 O.2       2 ALA2        0.0000 
     39 N           5.6700   -2.7400   35.4100 N.am      2 ALA2        0.0000 
     40 N           6.2000   -1.6800   34.4900 N.am      2 ALA2        0.0000 
     41 N           7.4000   -2.5400   34.2100 N.am      2 ALA2        0.0000 
     42 OD1        -1.4200   -6.3300   32.0900 O.co2     3 ASP3        0.0000 
     43 OD1        -0.2200   -7.1900   31.8100 O.co2     3 ASP3        0.0000 
     44 NZ         -3.0600   -7.2000   27.7300 N.4       4 LYS4        0.0000 
     45 NZ         -1.8600   -8.0600   27.4500 N.4       4 LYS4        0.0000 
     46 NZ          3.3100   -4.2500   29.9000 N.4       4 LYS4        0.0000 
     47 NZ          3.5000   -4.6600   31.9700 N.4       4 LYS4        0.0000 
     48 CZ          0.2700   -3.8500   23.7500 C.ar      5 PHE5        0.0000 
     49 CZ          1.0000   -3.2100   24.8900 C.ar      5 PHE5        0.0000 
     50 CZ         -0.1600   -4.6400   32.3100 C.ar      5 PHE5        0.0000 
     51 CZ          1.7600   -4.8600   33.1800 C.ar      5 PHE5        0.0000 
     52 CZ          1.1000   -2.9500   32.5400 C.ar      5 PHE5        0.0000 
     53 CZ          2.3000   -3.8000   32.2500 C.ar      5 PHE5        0.0000 
     54 CZ          2.4900   -4.2200   34.3300 C.ar      5 PHE5        0.0000 
     55 CZ          3.6900   -5.0700   34.0500 C.ar      5 PHE5        0.0000 
     56 CZ          1.8200   -2.3100   33.6800 C.ar      5 PHE5        0.0000 
     57 CZ          3.0200   -3.1600   33.4000 C.ar      5 PHE5        0.0000 
     58 CZ          3.2100   -3.5700   35.4700 C.ar      5 PHE5        0.0000 
     59 CZ          6.1500   -4.2300   33.9900 C.ar      5 PHE5        0.0000 
     60 CA         -1.2700   -4.4600   27.0200 C.3       6 GLY6        0.0000 
     61 CA          0.6600   -4.6700   27.8900 C.3       6 GLY6        0.0000 
     62 CA          1.1900   -3.6200   26.9600 C.3       6 GLY6        0.0000 
     63 CA          1.7200   -2.5700   26.0400 C.3       6 GLY6        0.0000 
     64 CA         -2.0900   -4.4300   31.4500 C.3       6 GLY6        0.0000 
     65 CA          1.3800   -4.0300   29.0400 C.3       6 GLY6        0.0000 
     66 CA          1.9100   -2.9800   28.1100 C.3       6 GLY6        0.0000 
     67 CA         -1.3600   -3.7900   32.5900 C.3       6 GLY6        0.0000 
     68 CA          1.6300   -1.9000   31.6100 C.3       6 GLY6        0.0000 
     69 CA          2.8300   -2.7500   31.3300 C.3       6 GLY6        0.0000 
     70 CA          4.0300   -3.6100   31.0500 C.3       6 GLY6        0.0000 
     71 CA          4.8900   -5.9300   33.7700 C.3       6 GLY6        0.0000 
     72 CA          4.2200   -4.0200   33.1200 C.3       6 GLY6        0.0000 
     73 CA          5.4200   -4.8700   32.8400 C.3       6 GLY6        0.0000 
     74 CA          3.5600   -2.1100   32.4800 C.3       6 GLY6        0.0000 
     75 CA          5.6100   -5.2900   34.9100 C.3       6 GLY6        0.0000 
     76 CA          4.2800   -1.4700   33.6200 C.3       6 GLY6        0.0000 
     77 CA          5.4800   -2.3200   33.3400 C.3       6 GLY6        0.0000 
     78 DU          1.5700   -4.4400   31.1100 H         7 CUB7        0.0000 
     79 DU          2.1100   -3.3900   30.1800 H         7 CUB7        0.0000 
     80 DU          4.4100   -4.4300   35.1900 H         7 CUB7        0.0000 
@<TRIPOS>BOND
@<TRIPOS>SUBSTRUCTURE
     1 SER1        1 GROUP   
     2 ALA2        2 GROUP   
     3 ASP3       42 GROUP   
     4 LYS4       44 GROUP   
     5 PHE5       48 GROUP   
     6 GLY6       60 GROUP   
     7 CUB7       78 GROUP   
@<TRIPOS>SET

