#    Name: 5ujj_1_TYM
#    Modification time : Fri May 22 19:13:57 2020

@<TRIPOS>MOLECULE
5ujj_1_TYM
   37    41     1     0     0
SMALL
NO_CHARGES


@<TRIPOS>ATOM
      1 P          -0.7760   -6.1810   31.3510 P.3       1 TYM501      0.0000 
      2 O1P        -0.1320   -7.4670   31.7920 O.co2     1 TYM501      0.0000 
      3 O2P        -2.1870   -5.8530   31.7660 O.co2     1 TYM501      0.0000 
      4 O5'         0.1590   -4.9470   31.7840 O.3       1 TYM501      0.0000 
      5 C5'        -0.2240   -3.6030   31.4910 C.3       1 TYM501      0.0000 
      6 C4'         1.0050   -2.7440   31.2210 C.3       1 TYM501      0.0000 
      7 O4'         1.8430   -2.6800   32.3720 O.3       1 TYM501      0.0000 
      8 C1'         3.1320   -3.2280   32.0880 C.3       1 TYM501      0.0000 
      9 N9          3.5690   -3.9260   33.3160 N.pl3     1 TYM501      0.0000 
     10 C4          4.5750   -3.5020   34.0720 C.ar      1 TYM501      0.0000 
     11 N3          5.4560   -2.4700   33.9830 N.ar      1 TYM501      0.0000 
     12 C2          6.4100   -2.2950   34.9150 C.ar      1 TYM501      0.0000 
     13 N1          6.5470   -3.1190   35.9810 N.ar      1 TYM501      0.0000 
     14 C6          5.7330   -4.1850   36.1930 C.ar      1 TYM501      0.0000 
     15 N6          5.9000   -4.9860   37.2710 N.pl3     1 TYM501      0.0000 
     16 C5          4.6590   -4.4390   35.2030 C.ar      1 TYM501      0.0000 
     17 N7          3.6750   -5.3400   35.0310 N.2       1 TYM501      0.0000 
     18 C8          3.0150   -5.0150   33.8880 C.2       1 TYM501      0.0000 
     19 C2'         2.9620   -4.0770   30.8390 C.3       1 TYM501      0.0000 
     20 O2'         4.1470   -4.1800   30.0540 O.3       1 TYM501      0.0000 
     21 C3'         1.8930   -3.2890   30.1150 C.3       1 TYM501      0.0000 
     22 O3'         2.4710   -2.1800   29.4100 O.3       1 TYM501      0.0000 
     23 NH3        -1.8530   -7.8550   26.6450 N.4       1 TYM501      0.0000 
     24 CA         -1.4990   -6.6770   27.4190 C.3       1 TYM501      0.0000 
     25 CB         -2.5130   -5.5580   27.1870 C.3       1 TYM501      0.0000 
     26 CG         -2.1420   -4.7270   25.9810 C.2       1 TYM501      0.0000 
     27 CD2        -0.9930   -3.8170   25.8280 C.ar      1 TYM501      0.0000 
     28 CE2        -1.1040   -3.2470   24.4740 C.ar      1 TYM501      0.0000 
     29 CE3         0.0440   -3.4620   26.6740 C.ar      1 TYM501      0.0000 
     30 CD1        -2.8220   -4.6400   24.7740 C.2       1 TYM501      0.0000 
     31 NE1        -2.2050   -3.7820   23.9170 N.pl3     1 TYM501      0.0000 
     32 CZ2        -0.1280   -2.3410   24.0640 C.ar      1 TYM501      0.0000 
     33 CZ3         1.0010   -2.5520   26.2210 C.ar      1 TYM501      0.0000 
     34 CH2         0.9160   -2.0020   24.9340 C.ar      1 TYM501      0.0000 
     35 C          -1.4360   -7.0010   28.8820 C.2       1 TYM501      0.0000 
     36 O          -1.9930   -7.9860   29.3470 O.2       1 TYM501      0.0000 
     37 OPP        -0.6880   -6.1010   29.7480 O.3       1 TYM501      0.0000 
@<TRIPOS>BOND
     1    1    2 ar   
     2    1    3 ar   
     3    1    4 1    
     4    1   37 1    
     5    4    5 1    
     6    5    6 1    
     7    6    7 1    
     8    6   21 1    
     9    7    8 1    
    10    8    9 1    
    11    8   19 1    
    12    9   10 1    
    13    9   18 1    
    14   10   11 ar   
    15   10   16 ar   
    16   11   12 ar   
    17   12   13 ar   
    18   13   14 ar   
    19   14   15 1    
    20   14   16 ar   
    21   16   17 1    
    22   17   18 2    
    23   19   20 1    
    24   19   21 1    
    25   21   22 1    
    26   23   24 1    
    27   24   25 1    
    28   24   35 1    
    29   25   26 1    
    30   26   27 1    
    31   26   30 2    
    32   27   28 ar   
    33   27   29 ar   
    34   28   31 1    
    35   28   32 ar   
    36   29   33 ar   
    37   30   31 1    
    38   32   34 ar   
    39   33   34 ar   
    40   35   36 2    
    41   35   37 1    
@<TRIPOS>SUBSTRUCTURE
     1 TYM501      1 GROUP   
@<TRIPOS>SET

