#    Name: 5ujj_2_TYM
#    Modification time : Fri May 22 19:14:04 2020

@<TRIPOS>MOLECULE
5ujj_2_TYM
   37    41     1     0     0
SMALL
NO_CHARGES


@<TRIPOS>ATOM
      1 P         -19.2520  -23.4200   -0.5710 P.3       1 TYM501      0.0000 
      2 O1P       -19.2710  -22.0170   -1.1180 O.co2     1 TYM501      0.0000 
      3 O2P       -18.0990  -24.3450   -0.8810 O.co2     1 TYM501      0.0000 
      4 O5'       -20.6200  -24.1380   -1.0230 O.3       1 TYM501      0.0000 
      5 C5'       -21.8890  -23.5170   -0.8030 C.3       1 TYM501      0.0000 
      6 C4'       -22.9650  -24.5840   -0.6300 C.3       1 TYM501      0.0000 
      7 O4'       -23.0620  -25.3870   -1.8070 O.3       1 TYM501      0.0000 
      8 C1'       -22.8350  -26.7610   -1.4730 C.3       1 TYM501      0.0000 
      9 N9        -22.1420  -27.4000   -2.6130 N.pl3     1 TYM501      0.0000 
     10 C4        -22.6810  -28.3540   -3.3650 C.ar      1 TYM501      0.0000 
     11 N3        -23.8640  -29.0220   -3.3500 N.ar      1 TYM501      0.0000 
     12 C2        -24.1360  -29.9790   -4.2560 C.ar      1 TYM501      0.0000 
     13 N1        -23.2590  -30.3310   -5.2270 N.ar      1 TYM501      0.0000 
     14 C6        -22.0400  -29.7440   -5.3580 C.ar      1 TYM501      0.0000 
     15 N6        -21.1830  -30.1170   -6.3380 N.pl3     1 TYM501      0.0000 
     16 C5        -21.6780  -28.6800   -4.3890 C.ar      1 TYM501      0.0000 
     17 N7        -20.6230  -27.8740   -4.1650 N.2       1 TYM501      0.0000 
     18 C8        -20.9210  -27.0990   -3.0900 C.2       1 TYM501      0.0000 
     19 C2'       -22.0650  -26.7560   -0.1620 C.3       1 TYM501      0.0000 
     20 O2'       -22.2620  -27.9320    0.6260 O.3       1 TYM501      0.0000 
     21 C3'       -22.6590  -25.5420    0.5130 C.3       1 TYM501      0.0000 
     22 O3'       -23.8640  -25.9110    1.1940 O.3       1 TYM501      0.0000 
     23 NH3       -17.6880  -22.4490    4.2220 N.4       1 TYM501      0.0000 
     24 CA        -18.8650  -22.6030    3.3820 C.3       1 TYM501      0.0000 
     25 CB        -19.8090  -21.4160    3.5590 C.3       1 TYM501      0.0000 
     26 CG        -20.7480  -21.6300    4.7230 C.2       1 TYM501      0.0000 
     27 CD2       -21.8400  -22.6160    4.8410 C.ar      1 TYM501      0.0000 
     28 CE2       -22.4450  -22.3930    6.1670 C.ar      1 TYM501      0.0000 
     29 CE3       -22.3150  -23.5990    3.9900 C.ar      1 TYM501      0.0000 
     30 CD1       -20.7820  -20.9250    5.9170 C.2       1 TYM501      0.0000 
     31 NE1       -21.7660  -21.3820    6.7370 N.pl3     1 TYM501      0.0000 
     32 CZ2       -23.5170  -23.2020    6.5430 C.ar      1 TYM501      0.0000 
     33 CZ3       -23.3890  -24.3870    4.4110 C.ar      1 TYM501      0.0000 
     34 CH2       -23.9790  -24.1930    5.6690 C.ar      1 TYM501      0.0000 
     35 C         -18.4870  -22.7370    1.9320 C.2       1 TYM501      0.0000 
     36 O         -17.4140  -22.3360    1.5080 O.2       1 TYM501      0.0000 
     37 OPP       -19.4480  -23.3570    1.0290 O.3       1 TYM501      0.0000 
@<TRIPOS>BOND
     1    1    2 ar   
     2    1    3 ar   
     3    1    4 1    
     4    1   37 1    
     5    4    5 1    
     6    5    6 1    
     7    6    7 1    
     8    6   21 1    
     9    7    8 1    
    10    8    9 1    
    11    8   19 1    
    12    9   10 1    
    13    9   18 1    
    14   10   11 ar   
    15   10   16 ar   
    16   11   12 ar   
    17   12   13 ar   
    18   13   14 ar   
    19   14   15 1    
    20   14   16 ar   
    21   16   17 1    
    22   17   18 2    
    23   19   20 1    
    24   19   21 1    
    25   21   22 1    
    26   23   24 1    
    27   24   25 1    
    28   24   35 1    
    29   25   26 1    
    30   26   27 1    
    31   26   30 2    
    32   27   28 ar   
    33   27   29 ar   
    34   28   31 1    
    35   28   32 ar   
    36   29   33 ar   
    37   30   31 1    
    38   32   34 ar   
    39   33   34 ar   
    40   35   36 2    
    41   35   37 1    
@<TRIPOS>SUBSTRUCTURE
     1 TYM501      1 GROUP   
@<TRIPOS>SET

