#    Name: 5ujj_2_TYM_CAVITY_N1_ALL
#    Modification time : Fri May 22 19:14:06 2020

@<TRIPOS>MOLECULE
5ujj_2_TYM_CAVITY_N1_ALL
  140     0     7     0     0
SMALL
NO_CHARGES


@<TRIPOS>ATOM
      1 OG        -20.2300  -26.2100   -3.7900 O.3       1 SER1        0.0000 
      2 OG        -17.9600  -24.9600   -5.9200 O.3       1 SER1        0.0000 
      3 OG        -17.2300  -24.3200   -4.7700 O.3       1 SER1        0.0000 
      4 OG        -13.6300  -26.8800   -5.6200 O.3       1 SER1        0.0000 
      5 OG        -12.9100  -26.2400   -4.4700 O.3       1 SER1        0.0000 
      6 OG        -15.9800  -22.6300   -4.5500 O.3       1 SER1        0.0000 
      7 OG        -14.7800  -23.4800   -4.8300 O.3       1 SER1        0.0000 
      8 OG        -14.2400  -22.4300   -5.7600 O.3       1 SER1        0.0000 
      9 OG        -15.2500  -21.9900   -3.4100 O.3       1 SER1        0.0000 
     10 OG        -14.0500  -22.8400   -3.6900 O.3       1 SER1        0.0000 
     11 OG        -13.5200  -21.7900   -4.6100 O.3       1 SER1        0.0000 
     12 OG        -24.2600  -24.4400    5.6200 O.3       1 SER1        0.0000 
     13 O         -23.4700  -30.2400   -5.3800 O.2       2 ALA2        0.0000 
     14 N         -23.9400  -28.7400   -3.9500 N.am      2 ALA2        0.0000 
     15 N         -22.7400  -29.6000   -4.2300 N.am      2 ALA2        0.0000 
     16 N         -22.2100  -28.5400   -5.1600 N.am      2 ALA2        0.0000 
     17 N         -21.0100  -29.4000   -5.4400 N.am      2 ALA2        0.0000 
     18 N         -23.8800  -26.1900   -3.4500 N.am      2 ALA2        0.0000 
     19 O         -24.2300  -27.6600   -0.4500 O.2       2 ALA2        0.0000 
     20 O         -17.4200  -23.9100   -6.8500 O.2       2 ALA2        0.0000 
     21 O         -23.5000  -27.0200    0.7000 O.2       2 ALA2        0.0000 
     22 O         -15.5000  -24.1200   -5.9800 O.2       2 ALA2        0.0000 
     23 O         -14.3000  -24.9800   -6.2600 O.2       2 ALA2        0.0000 
     24 O         -21.0400  -26.1800    0.6400 O.2       2 ALA2        0.0000 
     25 N         -22.9100  -23.4200    0.2700 N.am      2 ALA2        0.0000 
     26 N         -21.7100  -24.2700   -0.0100 N.am      2 ALA2        0.0000 
     27 N         -22.3800  -22.3600   -0.6500 N.am      2 ALA2        0.0000 
     28 N         -15.1800  -27.4900   -2.3400 N.am      2 ALA2        0.0000 
     29 N         -13.9800  -28.3500   -2.6200 N.am      2 ALA2        0.0000 
     30 N         -13.4400  -27.3000   -3.5400 N.am      2 ALA2        0.0000 
     31 N         -12.2400  -28.1500   -3.8300 N.am      2 ALA2        0.0000 
     32 N         -22.7200  -23.8300    2.3400 N.am      2 ALA2        0.0000 
     33 N         -20.9900  -23.6300    1.1400 N.am      2 ALA2        0.0000 
     34 O         -19.7900  -24.4900    0.8600 O.2       2 ALA2        0.0000 
     35 O         -20.4500  -22.5800    0.2100 O.2       2 ALA2        0.0000 
     36 N         -15.6500  -26.0000   -0.9100 N.am      2 ALA2        0.0000 
     37 O         -18.7200  -22.3800   -0.9900 O.2       2 ALA2        0.0000 
     38 N         -13.9200  -25.8000   -2.1200 N.am      2 ALA2        0.0000 
     39 N         -12.7200  -26.6600   -2.4000 N.am      2 ALA2        0.0000 
     40 O         -23.7300  -23.3900    4.7000 O.2       2 ALA2        0.0000 
     41 N         -21.9900  -23.1900    3.4900 N.am      2 ALA2        0.0000 
     42 N         -20.7900  -24.0400    3.2100 N.am      2 ALA2        0.0000 
     43 N         -20.2600  -22.9900    2.2800 N.am      2 ALA2        0.0000 
     44 O         -19.0600  -23.8500    2.0000 O.2       2 ALA2        0.0000 
     45 O         -19.7300  -21.9400    1.3600 O.2       2 ALA2        0.0000 
     46 O         -18.5300  -22.7900    1.0800 O.2       2 ALA2        0.0000 
     47 N         -13.1900  -25.1600   -0.9700 N.am      2 ALA2        0.0000 
     48 O         -23.0000  -22.7500    5.8400 O.2       2 ALA2        0.0000 
     49 O         -21.8000  -23.6000    5.5600 O.2       2 ALA2        0.0000 
     50 O         -21.2700  -22.5500    4.6400 O.2       2 ALA2        0.0000 
     51 N         -20.0700  -23.4000    4.3600 N.am      2 ALA2        0.0000 
     52 O         -20.7400  -21.4900    3.7100 O.2       2 ALA2        0.0000 
     53 N         -19.5400  -22.3500    3.4300 N.am      2 ALA2        0.0000 
     54 N         -18.3400  -23.2100    3.1500 N.am      2 ALA2        0.0000 
     55 O         -19.0000  -21.3000    2.5000 O.2       2 ALA2        0.0000 
     56 O         -17.8000  -22.1500    2.2200 O.2       2 ALA2        0.0000 
     57 O         -20.5500  -21.9100    5.7800 O.2       2 ALA2        0.0000 
     58 N         -18.8100  -21.7100    4.5800 N.am      2 ALA2        0.0000 
     59 OD1       -21.4800  -27.9000   -4.0100 O.co2     3 ASP3        0.0000 
     60 OD1       -20.2800  -28.7600   -4.2900 O.co2     3 ASP3        0.0000 
     61 OD1       -21.2900  -28.3200   -1.9400 O.co2     3 ASP3        0.0000 
     62 OD1       -20.7600  -27.2600   -2.8600 O.co2     3 ASP3        0.0000 
     63 OD1       -18.4900  -26.0100   -5.0000 O.co2     3 ASP3        0.0000 
     64 OD1       -21.7700  -26.8200   -0.5100 O.co2     3 ASP3        0.0000 
     65 OD1       -20.5700  -27.6800   -0.7900 O.co2     3 ASP3        0.0000 
     66 OD1       -21.2400  -25.7700   -1.4400 O.co2     3 ASP3        0.0000 
     67 OD1       -19.5000  -25.5700   -2.6400 O.co2     3 ASP3        0.0000 
     68 OD1       -17.7700  -25.3700   -3.8500 O.co2     3 ASP3        0.0000 
     69 OD1       -16.5700  -26.2300   -4.1300 O.co2     3 ASP3        0.0000 
     70 OD1       -15.3700  -27.0800   -4.4100 O.co2     3 ASP3        0.0000 
     71 OD1       -20.5100  -25.1300   -0.2900 O.co2     3 ASP3        0.0000 
     72 OD1       -19.9800  -24.0700   -1.2200 O.co2     3 ASP3        0.0000 
     73 OD1       -19.4400  -23.0200   -2.1400 O.co2     3 ASP3        0.0000 
     74 OD1       -18.2400  -23.8800   -2.4200 O.co2     3 ASP3        0.0000 
     75 OD1       -17.0400  -24.7300   -2.7000 O.co2     3 ASP3        0.0000 
     76 OD1       -15.8400  -25.5900   -2.9800 O.co2     3 ASP3        0.0000 
     77 OD1       -14.6400  -26.4400   -3.2600 O.co2     3 ASP3        0.0000 
     78 OD1       -16.5100  -23.6800   -3.6300 O.co2     3 ASP3        0.0000 
     79 OD1       -19.2500  -23.4300   -0.0700 O.co2     3 ASP3        0.0000 
     80 OD1       -18.0500  -24.2900   -0.3500 O.co2     3 ASP3        0.0000 
     81 OD1       -17.5200  -23.2400   -1.2800 O.co2     3 ASP3        0.0000 
     82 OD1       -16.3200  -24.0900   -1.5600 O.co2     3 ASP3        0.0000 
     83 OD1       -15.1200  -24.9500   -1.8400 O.co2     3 ASP3        0.0000 
     84 OD1       -15.7800  -23.0400   -2.4800 O.co2     3 ASP3        0.0000 
     85 OD1       -14.5800  -23.8900   -2.7600 O.co2     3 ASP3        0.0000 
     86 OD1       -12.3200  -22.6400   -4.8900 O.co2     3 ASP3        0.0000 
     87 OD1       -11.1200  -23.5000   -5.1700 O.co2     3 ASP3        0.0000 
     88 OD1       -16.7900  -22.6000   -0.1300 O.co2     3 ASP3        0.0000 
     89 OD1       -15.5900  -23.4500   -0.4100 O.co2     3 ASP3        0.0000 
     90 OD1       -14.3900  -24.3100   -0.6900 O.co2     3 ASP3        0.0000 
     91 OD1       -12.6600  -24.1100   -1.9000 O.co2     3 ASP3        0.0000 
     92 OD1       -13.3300  -22.2000   -2.5400 O.co2     3 ASP3        0.0000 
     93 OD1       -12.1300  -23.0600   -2.8200 O.co2     3 ASP3        0.0000 
     94 OD1       -10.9300  -23.9100   -3.1000 O.co2     3 ASP3        0.0000 
     95 OD1       -11.9400  -23.4700   -0.7500 O.co2     3 ASP3        0.0000 
     96 OD1       -11.4000  -22.4100   -1.6800 O.co2     3 ASP3        0.0000 
     97 NZ        -22.3000  -27.8700    0.4100 N.4       4 LYS4        0.0000 
     98 CZ        -22.6800  -27.0500   -3.7300 C.ar      5 PHE5        0.0000 
     99 CZ        -20.9500  -26.8500   -4.9400 C.ar      5 PHE5        0.0000 
    100 CZ        -23.1600  -25.5500   -2.3000 C.ar      5 PHE5        0.0000 
    101 CZ        -21.9600  -26.4100   -2.5800 C.ar      5 PHE5        0.0000 
    102 CZ        -22.4400  -24.9100   -1.1600 C.ar      5 PHE5        0.0000 
    103 CZ        -23.1000  -23.0000   -1.8000 C.ar      5 PHE5        0.0000 
    104 CZ        -21.9000  -23.8600   -2.0800 C.ar      5 PHE5        0.0000 
    105 CZ        -20.7000  -24.7100   -2.3600 C.ar      5 PHE5        0.0000 
    106 CZ        -11.9900  -26.0200   -1.2500 C.ar      5 PHE5        0.0000 
    107 CZ        -11.4600  -24.9600   -2.1800 C.ar      5 PHE5        0.0000 
    108 CZ        -10.7400  -24.3200   -1.0300 C.ar      5 PHE5        0.0000 
    109 CA        -24.4200  -27.2500   -2.5200 C.3       6 GLY6        0.0000 
    110 CA        -23.2200  -28.1000   -2.8000 C.3       6 GLY6        0.0000 
    111 CA        -22.0200  -28.9600   -3.0800 C.3       6 GLY6        0.0000 
    112 CA        -20.8200  -29.8100   -3.3700 C.3       6 GLY6        0.0000 
    113 CA        -23.6900  -26.6100   -1.3800 C.3       6 GLY6        0.0000 
    114 CA        -22.4900  -27.4600   -1.6600 C.3       6 GLY6        0.0000 
    115 CA        -16.7600  -25.8200   -6.2000 C.3       6 GLY6        0.0000 
    116 CA        -22.9700  -25.9700   -0.2300 C.3       6 GLY6        0.0000 
    117 CA        -23.6400  -24.0600   -0.8700 C.3       6 GLY6        0.0000 
    118 CA        -14.1700  -27.9400   -4.6900 C.3       6 GLY6        0.0000 
    119 CA        -16.0300  -25.1700   -5.0600 C.3       6 GLY6        0.0000 
    120 CA        -14.8300  -26.0300   -5.3400 C.3       6 GLY6        0.0000 
    121 CA        -16.7000  -23.2700   -5.7000 C.3       6 GLY6        0.0000 
    122 CA        -16.1700  -22.2100   -6.6300 C.3       6 GLY6        0.0000 
    123 CA        -14.9700  -23.0700   -6.9100 C.3       6 GLY6        0.0000 
    124 CA        -22.7800  -26.3800    1.8400 C.3       6 GLY6        0.0000 
    125 CA        -22.2400  -25.3200    0.9200 C.3       6 GLY6        0.0000 
    126 CA        -21.1800  -23.2200   -0.9300 C.3       6 GLY6        0.0000 
    127 CA        -20.6400  -22.1700   -1.8600 C.3       6 GLY6        0.0000 
    128 CA        -13.5800  -24.3400   -5.1100 C.3       6 GLY6        0.0000 
    129 CA        -12.3800  -25.1900   -5.4000 C.3       6 GLY6        0.0000 
    130 CA        -13.0400  -23.2800   -6.0400 C.3       6 GLY6        0.0000 
    131 CA        -23.2500  -24.8800    3.2700 C.3       6 GLY6        0.0000 
    132 CA        -21.5200  -24.6800    2.0600 C.3       6 GLY6        0.0000 
    133 CA        -11.6500  -24.5500   -4.2500 C.3       6 GLY6        0.0000 
    134 CA        -22.5300  -24.2400    4.4200 C.3       6 GLY6        0.0000 
    135 CA        -12.7900  -21.1500   -3.4700 C.3       6 GLY6        0.0000 
    136 DU        -15.3100  -24.5300   -3.9100 H         7 CUB7        0.0000 
    137 DU        -14.1100  -25.3900   -4.1900 H         7 CUB7        0.0000 
    138 DU        -13.3800  -24.7500   -3.0400 H         7 CUB7        0.0000 
    139 DU        -12.1800  -25.6000   -3.3200 H         7 CUB7        0.0000 
    140 DU        -12.8500  -23.7000   -3.9700 H         7 CUB7        0.0000 
@<TRIPOS>BOND
@<TRIPOS>SUBSTRUCTURE
     1 SER1        1 GROUP   
     2 ALA2       13 GROUP   
     3 ASP3       59 GROUP   
     4 LYS4       97 GROUP   
     5 PHE5       98 GROUP   
     6 GLY6      109 GROUP   
     7 CUB7      136 GROUP   
@<TRIPOS>SET

