#    Name: 6dj1_1_AB1
#    Modification time : Fri May 22 19:36:56 2020

@<TRIPOS>MOLECULE
6dj1_1_AB1
   46    49     1     0     0
SMALL
NO_CHARGES


@<TRIPOS>ATOM
      1 C1          5.1690   16.3660   63.7490 C.3       1 AB1201      0.0000 
      2 C2          6.9050   17.8280   62.7300 C.3       1 AB1201      0.0000 
      3 N1          7.9290   16.8830   63.2380 N.am      1 AB1201      0.0000 
      4 C3          7.6160   15.8750   64.0460 C.2       1 AB1201      0.0000 
      5 N2          6.2810   15.6640   64.3580 N.am      1 AB1201      0.0000 
      6 C4         14.9030   20.5570   61.6730 C.ar      1 AB1201      0.0000 
      7 C5         16.1800   21.0410   61.5330 C.ar      1 AB1201      0.0000 
      8 C6         16.5140   22.0890   60.6710 C.ar      1 AB1201      0.0000 
      9 C7         15.5240   22.7110   59.9030 C.ar      1 AB1201      0.0000 
     10 C8         14.2320   22.2350   60.0340 C.ar      1 AB1201      0.0000 
     11 C9         13.9370   21.1300   60.8370 C.ar      1 AB1201      0.0000 
     12 O1          8.4780   15.0970   64.5340 O.2       1 AB1201      0.0000 
     13 C10         9.3570   17.0790   62.8830 C.3       1 AB1201      0.0000 
     14 C11         9.8930   18.2830   63.6240 C.2       1 AB1201      0.0000 
     15 N3         10.6460   18.0430   64.7140 N.am      1 AB1201      0.0000 
     16 C12        11.1440   19.0920   65.6120 C.3       1 AB1201      0.0000 
     17 C13         9.5600   17.1780   61.3780 C.3       1 AB1201      0.0000 
     18 C14        11.0550   17.3980   61.1040 C.3       1 AB1201      0.0000 
     19 C15         9.1070   15.8860   60.6920 C.3       1 AB1201      0.0000 
     20 O2          9.5800   19.4040   63.1950 O.2       1 AB1201      0.0000 
     21 C16         7.2070   20.9410   66.8420 C.ar      1 AB1201      0.0000 
     22 C17         6.2710   19.9210   66.7520 C.ar      1 AB1201      0.0000 
     23 C18         6.7020   18.6020   66.7220 C.ar      1 AB1201      0.0000 
     24 C19         8.0770   18.3380   66.8010 C.ar      1 AB1201      0.0000 
     25 C20         9.0270   19.3410   66.8460 C.ar      1 AB1201      0.0000 
     26 C21         8.5670   20.6610   66.9080 C.ar      1 AB1201      0.0000 
     27 C22        10.3790   19.0760   66.9460 C.3       1 AB1201      0.0000 
     28 C23        12.6250   18.8120   65.8670 C.3       1 AB1201      0.0000 
     29 C24        13.4830   18.5890   64.6170 C.3       1 AB1201      0.0000 
     30 C25        13.7460   19.7990   63.7270 C.3       1 AB1201      0.0000 
     31 N4         14.4420   20.8770   64.4590 N.am      1 AB1201      0.0000 
     32 C26        13.8710   22.0720   64.6950 C.2       1 AB1201      0.0000 
     33 C27        14.8000   23.1450   65.2660 C.3       1 AB1201      0.0000 
     34 O3         16.0380   22.5870   65.7550 O.3       1 AB1201      0.0000 
     35 C28        16.8770   23.5730   66.1050 C.ar      1 AB1201      0.0000 
     36 O4         14.7790   18.0320   64.9890 O.3       1 AB1201      0.0000 
     37 C29        14.5960   19.4570   62.4960 C.3       1 AB1201      0.0000 
     38 O5         12.6920   22.3170   64.4620 O.2       1 AB1201      0.0000 
     39 C30        16.8070   24.1500   67.3650 C.ar      1 AB1201      0.0000 
     40 C31        17.7090   25.1670   67.6510 C.ar      1 AB1201      0.0000 
     41 C32        18.6280   25.6400   66.7020 C.ar      1 AB1201      0.0000 
     42 C33        18.6870   25.0210   65.4470 C.ar      1 AB1201      0.0000 
     43 C34        17.8450   23.9250   65.1900 C.ar      1 AB1201      0.0000 
     44 C35        17.8190   23.3160   63.9240 C.3       1 AB1201      0.0000 
     45 C36        15.8580   23.7900   68.3460 C.3       1 AB1201      0.0000 
     46 C37         5.6050   17.1050   62.4870 C.3       1 AB1201      0.0000 
@<TRIPOS>BOND
     1    1    5 1    
     2    1   46 1    
     3    2    3 1    
     4    2   46 1    
     5    3    4 am   
     6    3   13 1    
     7    4    5 am   
     8    4   12 2    
     9    6    7 ar   
    10    6   11 ar   
    11    6   37 1    
    12    7    8 ar   
    13    8    9 ar   
    14    9   10 ar   
    15   10   11 ar   
    16   13   14 1    
    17   13   17 1    
    18   14   15 am   
    19   14   20 2    
    20   15   16 1    
    21   16   27 1    
    22   16   28 1    
    23   17   18 1    
    24   17   19 1    
    25   21   22 ar   
    26   21   26 ar   
    27   22   23 ar   
    28   23   24 ar   
    29   24   25 ar   
    30   25   26 ar   
    31   25   27 1    
    32   28   29 1    
    33   29   30 1    
    34   29   36 1    
    35   30   31 1    
    36   30   37 1    
    37   31   32 am   
    38   32   33 1    
    39   32   38 2    
    40   33   34 1    
    41   34   35 1    
    42   35   39 ar   
    43   35   43 ar   
    44   39   40 ar   
    45   39   45 1    
    46   40   41 ar   
    47   41   42 ar   
    48   42   43 ar   
    49   43   44 1    
@<TRIPOS>SUBSTRUCTURE
     1 AB1201      1 GROUP   
@<TRIPOS>SET

