#    Name: 5ojb_1_IMD_CAVITY_N1_4
#    Modification time : Fri May 22 19:14:39 2020

@<TRIPOS>MOLECULE
5ojb_1_IMD_CAVITY_N1_4
   49     0     5     0     0
SMALL
NO_CHARGES


@<TRIPOS>ATOM
      1 OG         -4.9000   38.7800    1.6700 O.3       1 SER1        0.0000 
      2 N          -2.8000   35.2300    5.4800 N.am      2 ALA2        0.0000 
      3 N          -1.8000   35.2500    4.3600 N.am      2 ALA2        0.0000 
      4 N          -0.8100   35.2600    3.2300 N.am      2 ALA2        0.0000 
      5 N          -2.1100   36.6900    4.1000 N.am      2 ALA2        0.0000 
      6 N          -4.4100   38.1100    6.1000 N.am      2 ALA2        0.0000 
      7 N          -3.4200   38.1200    4.9700 N.am      2 ALA2        0.0000 
      8 N          -2.4200   38.1400    3.8500 N.am      2 ALA2        0.0000 
      9 N           0.2700   35.6600    4.1900 N.am      2 ALA2        0.0000 
     10 N          -0.0400   37.1100    3.9400 N.am      2 ALA2        0.0000 
     11 N          -0.3500   38.5500    3.6800 N.am      2 ALA2        0.0000 
     12 N          -1.6500   39.9800    4.5500 N.am      2 ALA2        0.0000 
     13 CZ         -6.2600   35.8600    4.4300 C.ar      3 PHE5        0.0000 
     14 CZ         -3.2800   35.9000    1.0600 C.ar      3 PHE5        0.0000 
     15 CZ         -6.5700   37.3100    4.1800 C.ar      3 PHE5        0.0000 
     16 CZ         -5.5800   37.3200    3.0500 C.ar      3 PHE5        0.0000 
     17 CZ         -4.5900   37.3400    1.9300 C.ar      3 PHE5        0.0000 
     18 CZ         -6.8800   38.7500    3.9200 C.ar      3 PHE5        0.0000 
     19 CZ         -2.5800   33.4000    3.6500 C.ar      3 PHE5        0.0000 
     20 CZ         -1.5800   33.4100    2.5300 C.ar      3 PHE5        0.0000 
     21 CZ         -0.5900   33.4300    1.4000 C.ar      3 PHE5        0.0000 
     22 CZ         -3.8800   34.8300    4.5200 C.ar      3 PHE5        0.0000 
     23 CZ         -2.8900   34.8500    3.4000 C.ar      3 PHE5        0.0000 
     24 CZ         -1.8900   34.8600    2.2700 C.ar      3 PHE5        0.0000 
     25 CZ         -0.9000   34.8700    1.1500 C.ar      3 PHE5        0.0000 
     26 CZ         -4.1900   36.2800    4.2700 C.ar      3 PHE5        0.0000 
     27 CZ         -3.2000   36.2900    3.1400 C.ar      3 PHE5        0.0000 
     28 CZ          0.1800   35.2700    2.1100 C.ar      3 PHE5        0.0000 
     29 CA         -3.5900   37.3500    0.8000 C.3       4 GLY6        0.0000 
     30 CA         -3.9000   38.7900    0.5500 C.3       4 GLY6        0.0000 
     31 CA         -2.2000   36.3100    2.0200 C.3       4 GLY6        0.0000 
     32 CA         -3.5000   37.7400    2.8900 C.3       4 GLY6        0.0000 
     33 CA         -3.8100   39.1800    2.6300 C.3       4 GLY6        0.0000 
     34 CA         -1.4900   33.8000    4.6100 C.3       4 GLY6        0.0000 
     35 CA         -1.1200   36.7100    2.9800 C.3       4 GLY6        0.0000 
     36 CA         -0.1300   36.7200    1.8500 C.3       4 GLY6        0.0000 
     37 CA         -1.4300   38.1500    2.7200 C.3       4 GLY6        0.0000 
     38 CA         -1.7400   39.6000    2.4700 C.3       4 GLY6        0.0000 
     39 CA         -3.0400   41.0300    3.3300 C.3       4 GLY6        0.0000 
     40 CA          0.9500   37.1200    2.8100 C.3       4 GLY6        0.0000 
     41 CA          0.6400   38.5700    2.5600 C.3       4 GLY6        0.0000 
     42 CA         -0.6600   40.0000    3.4200 C.3       4 GLY6        0.0000 
     43 DU         -5.1800   36.2600    5.3900 H         5 CUB7        0.0000 
     44 DU         -5.4900   37.7100    5.1400 H         5 CUB7        0.0000 
     45 DU         -4.5000   37.7200    4.0100 H         5 CUB7        0.0000 
     46 DU         -5.8000   39.1500    4.8800 H         5 CUB7        0.0000 
     47 DU         -0.5000   33.8200    3.4900 H         5 CUB7        0.0000 
     48 DU         -3.7300   39.5700    4.7200 H         5 CUB7        0.0000 
     49 DU         -2.7300   39.5800    3.5900 H         5 CUB7        0.0000 
@<TRIPOS>BOND
@<TRIPOS>SUBSTRUCTURE
     1 SER1        1 GROUP   
     2 ALA2        2 GROUP   
     3 PHE5       13 GROUP   
     4 GLY6       29 GROUP   
     5 CUB7       43 GROUP   
@<TRIPOS>SET

