#    Name: 5ojb_1_IMD
#    Modification time : Fri May 22 19:14:39 2020

@<TRIPOS>MOLECULE
5ojb_1_IMD
    5     5     1     0     0
SMALL
NO_CHARGES


@<TRIPOS>ATOM
      1 N1         -4.1490   37.7110    1.2380 N.pl3     1 IMD202      0.0000 
      2 C2         -3.3520   37.5620    2.3220 C.2       1 IMD202      0.0000 
      3 N3         -2.5710   36.4680    2.1330 N.2       1 IMD202      0.0000 
      4 C4         -2.8790   35.9170    0.9350 C.2       1 IMD202      0.0000 
      5 C5         -3.8760   36.7050    0.3780 C.2       1 IMD202      0.0000 
@<TRIPOS>BOND
     1    1    2 1    
     2    1    5 1    
     3    2    3 2    
     4    3    4 1    
     5    4    5 2    
@<TRIPOS>SUBSTRUCTURE
     1 IMD202      1 GROUP   
@<TRIPOS>SET

