#    Name: 5wnm_1_VX6
#    Modification time : Fri May 22 19:16:17 2020

@<TRIPOS>MOLECULE
5wnm_1_VX6
   33    37     1     0     0
SMALL
NO_CHARGES


@<TRIPOS>ATOM
      1 N1         -4.9310   -6.3810  -21.1740 N.4       1 VX6402      0.0000 
      2 C2         -5.8050   -6.7180  -22.2990 C.3       1 VX6402      0.0000 
      3 C3         -6.8540   -5.6470  -22.5110 C.3       1 VX6402      0.0000 
      4 N4         -7.6380   -5.4090  -21.2940 N.3       1 VX6402      0.0000 
      5 C5         -6.7930   -5.1800  -20.1160 C.3       1 VX6402      0.0000 
      6 C6         -5.7480   -6.2660  -19.9640 C.3       1 VX6402      0.0000 
      7 C7         -3.8640   -7.3730  -21.0110 C.3       1 VX6402      0.0000 
      8 C8         -8.8940   -4.8000  -21.3740 C.ar      1 VX6402      0.0000 
      9 C9         -9.7320   -4.9310  -22.5000 C.ar      1 VX6402      0.0000 
     10 C10       -10.9740   -4.2980  -22.4620 C.ar      1 VX6402      0.0000 
     11 N11       -11.3610   -3.5870  -21.3920 N.ar      1 VX6402      0.0000 
     12 C12       -10.5160   -3.5170  -20.3600 C.ar      1 VX6402      0.0000 
     13 N13        -9.3090   -4.0840  -20.3080 N.ar      1 VX6402      0.0000 
     14 N14       -11.8440   -4.3850  -23.5590 N.pl3     1 VX6402      0.0000 
     15 C15       -13.1830   -3.9940  -23.6880 C.2       1 VX6402      0.0000 
     16 C17       -14.0960   -3.6450  -22.7150 C.2       1 VX6402      0.0000 
     17 C18       -15.2920   -3.3490  -23.3920 C.2       1 VX6402      0.0000 
     18 N19       -15.1180   -3.5070  -24.7020 N.2       1 VX6402      0.0000 
     19 N20       -13.8280   -3.9050  -24.8680 N.pl3     1 VX6402      0.0000 
     20 C21       -16.6090   -2.9130  -22.8380 C.3       1 VX6402      0.0000 
     21 S23       -11.0380   -2.5880  -18.9440 S.3       1 VX6402      0.0000 
     22 C24       -12.6710   -1.9870  -19.3080 C.ar      1 VX6402      0.0000 
     23 C25       -13.8140   -2.6930  -18.9490 C.ar      1 VX6402      0.0000 
     24 C26       -15.0690   -2.2040  -19.2680 C.ar      1 VX6402      0.0000 
     25 C27       -15.2060   -0.9950  -19.9450 C.ar      1 VX6402      0.0000 
     26 C28       -14.0620   -0.2890  -20.2980 C.ar      1 VX6402      0.0000 
     27 C29       -12.8070   -0.7810  -19.9830 C.ar      1 VX6402      0.0000 
     28 N30       -16.4680   -0.4390  -20.3050 N.am      1 VX6402      0.0000 
     29 C31       -17.6960   -0.8840  -19.9240 C.2       1 VX6402      0.0000 
     30 O32       -17.9250   -1.3610  -18.8190 O.2       1 VX6402      0.0000 
     31 C33       -18.7430   -0.7180  -20.9420 C.3       1 VX6402      0.0000 
     32 C34       -19.9530    0.1010  -20.5800 C.3       1 VX6402      0.0000 
     33 C35       -20.0750   -1.3610  -20.6680 C.3       1 VX6402      0.0000 
@<TRIPOS>BOND
     1    1    2 1    
     2    1    6 1    
     3    1    7 1    
     4    2    3 1    
     5    3    4 1    
     6    4    5 1    
     7    4    8 1    
     8    5    6 1    
     9    8    9 ar   
    10    8   13 ar   
    11    9   10 ar   
    12   10   11 ar   
    13   10   14 1    
    14   11   12 ar   
    15   12   13 ar   
    16   12   21 1    
    17   14   15 1    
    18   15   16 2    
    19   15   19 1    
    20   16   17 1    
    21   17   18 2    
    22   17   20 1    
    23   18   19 1    
    24   21   22 1    
    25   22   23 ar   
    26   22   27 ar   
    27   23   24 ar   
    28   24   25 ar   
    29   25   26 ar   
    30   25   28 1    
    31   26   27 ar   
    32   28   29 am   
    33   29   30 2    
    34   29   31 1    
    35   31   32 1    
    36   31   33 1    
    37   32   33 1    
@<TRIPOS>SUBSTRUCTURE
     1 VX6402      1 GROUP   
@<TRIPOS>SET

