#    Name: 6oxp_1_K2A
#    Modification time : Fri May 22 19:25:16 2020

@<TRIPOS>MOLECULE
6oxp_1_K2A
   80    83     1     0     0
SMALL
NO_CHARGES


@<TRIPOS>ATOM
      1 C1         65.5930   50.9480   12.8380 C.3       1 K2A103      0.0000 
      2 O1         66.0940   51.0040   11.5390 O.3       1 K2A103      0.0000 
      3 C2         66.4830   51.8520   13.6660 C.ar      1 K2A103      0.0000 
      4 C3         67.5960   51.2350   14.4970 C.ar      1 K2A103      0.0000 
      5 C4         68.4940   52.1360   15.3180 C.ar      1 K2A103      0.0000 
      6 C5         68.2570   53.6320   15.2710 C.ar      1 K2A103      0.0000 
      7 C6         67.1530   54.2650   14.4410 C.ar      1 K2A103      0.0000 
      8 C7         66.2590   53.3580   13.6190 C.ar      1 K2A103      0.0000 
      9 S8         69.3320   54.6790   16.2460 S.o2      1 K2A103      0.0000 
     10 O9         68.5520   55.7430   16.8730 O.2       1 K2A103      0.0000 
     11 O10        69.9160   53.9160   17.3520 O.2       1 K2A103      0.0000 
     12 N11        70.5270   55.2900   15.1970 N.pl3     1 K2A103      0.0000 
     13 C12        71.2470   54.2600   14.4620 C.3       1 K2A103      0.0000 
     14 C13        72.7460   54.5370   14.4880 C.3       1 K2A103      0.0000 
     15 C14        73.2660   54.4970   15.9240 C.3       1 K2A103      0.0000 
     16 C15        73.4500   53.4880   13.6230 C.3       1 K2A103      0.0000 
     17 C16        70.2060   56.5380   14.5320 C.3       1 K2A103      0.0000 
     18 C17        71.0960   57.6580   15.0680 C.3       1 K2A103      0.0000 
     19 C18        73.3660   52.0900   14.2320 C.3       1 K2A103      0.0000 
     20 O18        70.9730   58.7800   14.2420 O.3       1 K2A103      0.0000 
     21 C19        70.7090   58.0390   16.4980 C.3       1 K2A103      0.0000 
     22 N20        71.6740   59.0000   16.9790 N.am      1 K2A103      0.0000 
     23 C21        72.6740   58.6600   17.9560 C.2       1 K2A103      0.0000 
     24 O22        72.6970   57.5970   18.5020 O.2       1 K2A103      0.0000 
     25 O23        73.6070   59.6760   18.1920 O.3       1 K2A103      0.0000 
     26 C24        74.5410   59.5530   19.3480 C.3       1 K2A103      0.0000 
     27 C25        75.6440   59.9190   18.9820 C.3       1 K2A103      0.0000 
     28 O26        75.5110   61.4370   18.9370 O.3       1 K2A103      0.0000 
     29 C27        74.5700   61.7370   20.0740 C.3       1 K2A103      0.0000 
     30 O28        73.3050   62.6500   19.5360 O.3       1 K2A103      0.0000 
     31 C29        72.2390   61.9200   19.5730 C.3       1 K2A103      0.0000 
     32 C30        72.5400   60.8090   20.5480 C.3       1 K2A103      0.0000 
     33 C31        74.1150   60.6440   20.4750 C.3       1 K2A103      0.0000 
     34 C32        69.3420   58.7140   16.5670 C.3       1 K2A103      0.0000 
     35 C33        68.7860   58.1900   19.0970 C.ar      1 K2A103      0.0000 
     36 C34        68.5690   58.6650   20.5310 C.ar      1 K2A103      0.0000 
     37 C35        68.6910   60.1480   20.8660 C.ar      1 K2A103      0.0000 
     38 C36        69.0280   61.1510   19.7680 C.ar      1 K2A103      0.0000 
     39 C37        69.2450   60.6740   18.3350 C.ar      1 K2A103      0.0000 
     40 C38        69.1190   59.1950   18.0010 C.ar      1 K2A103      0.0000 
     41 H1         65.6350   50.0390   13.1730 H         1 K2A103      0.0000 
     42 H1A        64.6780   51.2700   12.8580 H         1 K2A103      0.0000 
     43 HO1        66.7500   50.4690   11.4650 H         1 K2A103      0.0000 
     44 H3         67.7190   50.3130   14.5070 H         1 K2A103      0.0000 
     45 H4         69.1790   51.7790   15.8370 H         1 K2A103      0.0000 
     46 H6         67.0330   55.1870   14.4320 H         1 K2A103      0.0000 
     47 H7         65.5740   53.7160   13.1020 H         1 K2A103      0.0000 
     48 H12        71.0740   53.3960   14.8680 H         1 K2A103      0.0000 
     49 H12A       70.9400   54.2490   13.5420 H         1 K2A103      0.0000 
     50 H13        72.9120   55.4170   14.1160 H         1 K2A103      0.0000 
     51 H14        72.7910   53.8130   16.4210 H         1 K2A103      0.0000 
     52 H14A       73.1230   55.3600   16.3440 H         1 K2A103      0.0000 
     53 H14B       74.2140   54.2940   15.9190 H         1 K2A103      0.0000 
     54 H15        74.3840   53.7340   13.5280 H         1 K2A103      0.0000 
     55 H15A       73.0370   53.4750   12.7460 H         1 K2A103      0.0000 
     56 H16        69.2760   56.7590   14.6960 H         1 K2A103      0.0000 
     57 H16A       70.3510   56.4400   13.5780 H         1 K2A103      0.0000 
     58 H17        72.0180   57.3590   15.0590 H         1 K2A103      0.0000 
     59 H18        73.9470   51.4880   13.7410 H         1 K2A103      0.0000 
     60 H18A       73.6460   52.1240   15.1600 H         1 K2A103      0.0000 
     61 H18B       72.4520   51.7700   14.1810 H         1 K2A103      0.0000 
     62 HO18       71.6770   59.2540   14.3010 H         1 K2A103      0.0000 
     63 H19        70.7180   57.2510   17.0640 H         1 K2A103      0.0000 
     64 HN20       71.6500   59.8020   16.6710 H         1 K2A103      0.0000 
     65 H24        74.5630   58.6520   19.7090 H         1 K2A103      0.0000 
     66 H25        76.3280   59.6540   19.6170 H         1 K2A103      0.0000 
     67 H25A       75.8400   59.5700   18.0990 H         1 K2A103      0.0000 
     68 H27        75.0370   62.1930   20.7920 H         1 K2A103      0.0000 
     69 H29        71.4860   62.4440   19.8860 H         1 K2A103      0.0000 
     70 H29A       72.0570   61.5510   18.6940 H         1 K2A103      0.0000 
     71 H30        72.2680   61.0640   21.4440 H         1 K2A103      0.0000 
     72 H30A       72.1010   59.9890   20.2730 H         1 K2A103      0.0000 
     73 H31        74.4820   60.4120   21.3420 H         1 K2A103      0.0000 
     74 H32        68.6510   58.0790   16.3230 H         1 K2A103      0.0000 
     75 H32A       69.3200   59.4710   15.9610 H         1 K2A103      0.0000 
     76 H33        68.7120   57.2860   18.8920 H         1 K2A103      0.0000 
     77 H34        68.3630   58.0520   21.1990 H         1 K2A103      0.0000 
     78 H35        68.5580   60.4410   21.7390 H         1 K2A103      0.0000 
     79 H36        69.1020   62.0550   19.9720 H         1 K2A103      0.0000 
     80 H37        69.4500   61.2870   17.6660 H         1 K2A103      0.0000 
@<TRIPOS>BOND
     1    1    2 1    
     2    1    3 1    
     3    1   41 1    
     4    1   42 1    
     5    2   43 1    
     6    3    4 ar   
     7    3    8 ar   
     8    4    5 ar   
     9    5    6 ar   
    10    4   44 1    
    11    6    7 ar   
    12    5   45 1    
    13    6    9 1    
    14    7    8 ar   
    15    9   10 2    
    16    7   46 1    
    17    8   47 1    
    18    9   11 2    
    19    9   12 1    
    20   12   13 1    
    21   12   17 1    
    22   13   14 1    
    23   13   48 1    
    24   13   49 1    
    25   14   15 1    
    26   14   16 1    
    27   14   50 1    
    28   15   51 1    
    29   15   52 1    
    30   15   53 1    
    31   16   19 1    
    32   16   54 1    
    33   16   55 1    
    34   17   18 1    
    35   17   56 1    
    36   17   57 1    
    37   18   20 1    
    38   18   21 1    
    39   18   58 1    
    40   20   62 1    
    41   19   59 1    
    42   19   60 1    
    43   19   61 1    
    44   21   22 1    
    45   21   34 1    
    46   21   63 1    
    47   22   23 am   
    48   23   24 2    
    49   22   64 1    
    50   23   25 1    
    51   25   26 1    
    52   26   27 1    
    53   26   33 1    
    54   27   66 1    
    55   26   65 1    
    56   27   67 1    
    57   27   28 1    
    58   28   29 1    
    59   29   30 1    
    60   29   33 1    
    61   29   68 1    
    62   33   73 1    
    63   30   31 1    
    64   31   32 1    
    65   31   69 1    
    66   31   70 1    
    67   32   33 1    
    68   32   71 1    
    69   32   72 1    
    70   34   40 1    
    71   34   74 1    
    72   34   75 1    
    73   35   36 ar   
    74   35   40 ar   
    75   36   37 ar   
    76   35   76 1    
    77   37   38 ar   
    78   36   77 1    
    79   38   39 ar   
    80   37   78 1    
    81   39   40 ar   
    82   38   79 1    
    83   39   80 1    
@<TRIPOS>SUBSTRUCTURE
     1 K2A103      1 GROUP   
@<TRIPOS>SET

