#    Name: 5nz0_1_ZLD
#    Modification time : Fri May 22 19:11:50 2020

@<TRIPOS>MOLECULE
5nz0_1_ZLD
   24    26     1     0     0
SMALL
NO_CHARGES


@<TRIPOS>ATOM
      1 C2        -27.5500    9.8020   -4.7140 C.ar      1 ZLD301      0.0000 
      2 C5        -27.3400   10.2610   -5.9590 C.ar      1 ZLD301      0.0000 
      3 C9        -26.8840    4.9550   -5.4190 C.3       1 ZLD301      0.0000 
      4 C1        -28.0640   10.7100   -3.8430 C.ar      1 ZLD301      0.0000 
      5 C3        -28.3550   12.0090   -4.2310 C.ar      1 ZLD301      0.0000 
      6 N4        -27.2270    8.4220   -4.4350 N.am      1 ZLD301      0.0000 
      7 C6        -27.0370    7.4730   -5.4580 C.3       1 ZLD301      0.0000 
      8 C7        -27.0380    7.6060   -3.2390 C.2       1 ZLD301      0.0000 
      9 C8        -26.5700    6.2820   -4.7900 C.3       1 ZLD301      0.0000 
     10 O10       -27.2910    6.2810   -3.6380 O.3       1 ZLD301      0.0000 
     11 N11       -26.1630    4.1310   -4.4950 N.am      1 ZLD301      0.0000 
     12 C12       -26.7490    3.0560   -3.7490 C.2       1 ZLD301      0.0000 
     13 C13       -25.8770    2.2850   -2.8010 C.3       1 ZLD301      0.0000 
     14 O14       -27.8650    2.7750   -3.8750 O.2       1 ZLD301      0.0000 
     15 O15       -26.7040    7.8530   -2.1720 O.2       1 ZLD301      0.0000 
     16 C16       -27.6180   11.5420   -6.3330 C.ar      1 ZLD301      0.0000 
     17 C17       -28.1280   12.4590   -5.4960 C.ar      1 ZLD301      0.0000 
     18 F18       -27.3800   11.8990   -7.5750 F         1 ZLD301      0.0000 
     19 N19       -28.4170   13.8220   -5.9030 N.3       1 ZLD301      0.0000 
     20 C20       -29.2350   14.6970   -5.0690 C.3       1 ZLD301      0.0000 
     21 C21       -29.7580   16.0150   -5.6390 C.3       1 ZLD301      0.0000 
     22 O22       -29.7610   16.1890   -7.0030 O.3       1 ZLD301      0.0000 
     23 C23       -29.1230   15.2730   -7.8240 C.3       1 ZLD301      0.0000 
     24 C24       -28.0290   14.4260   -7.1830 C.3       1 ZLD301      0.0000 
@<TRIPOS>BOND
     1    1    2 ar   
     2    1    4 ar   
     3    1    6 1    
     4    2   16 ar   
     5    3    9 1    
     6    3   11 1    
     7    4    5 ar   
     8    5   17 ar   
     9    6    7 1    
    10    6    8 am   
    11    7    9 1    
    12    8   10 1    
    13    8   15 2    
    14    9   10 1    
    15   11   12 am   
    16   12   13 1    
    17   12   14 2    
    18   16   17 ar   
    19   16   18 1    
    20   17   19 1    
    21   19   20 1    
    22   19   24 1    
    23   20   21 1    
    24   21   22 1    
    25   22   23 1    
    26   23   24 1    
@<TRIPOS>SUBSTRUCTURE
     1 ZLD301      1 GROUP   
@<TRIPOS>SET

