#    Name: 5nz0_1_ZLD_CAVITY_N1_4
#    Modification time : Fri May 22 19:11:51 2020

@<TRIPOS>MOLECULE
5nz0_1_ZLD_CAVITY_N1_4
   84     0     5     0     0
SMALL
NO_CHARGES


@<TRIPOS>ATOM
      1 OG        -28.6400    2.5800   -3.6700 O.3       1 SER1        0.0000 
      2 OG        -28.6500    1.8000   -2.3900 O.3       1 SER1        0.0000 
      3 OG        -28.6500    1.0100   -1.1200 O.3       1 SER1        0.0000 
      4 OG        -27.9400    0.6700   -3.0900 O.3       1 SER1        0.0000 
      5 OG        -27.3200    3.1800   -3.3000 O.3       1 SER1        0.0000 
      6 OG        -27.3200    2.3900   -2.0200 O.3       1 SER1        0.0000 
      7 OG        -27.3200    1.6100   -0.7400 O.3       1 SER1        0.0000 
      8 OG        -27.3300    0.8200    0.5300 O.3       1 SER1        0.0000 
      9 OG        -27.4600   11.2500   -3.6200 O.3       1 SER1        0.0000 
     10 OG        -26.7600   10.1200   -4.3100 O.3       1 SER1        0.0000 
     11 N         -29.2600    0.8500   -4.7400 N.am      2 ALA2        0.0000 
     12 N         -29.2700    0.0700   -3.4600 N.am      2 ALA2        0.0000 
     13 N         -28.5600   -0.2800   -5.4300 N.am      2 ALA2        0.0000 
     14 N         -28.5700   -1.0600   -4.1500 N.am      2 ALA2        0.0000 
     15 N         -27.9500   -0.1200   -1.8100 N.am      2 ALA2        0.0000 
     16 N         -27.3100    3.9600   -4.5800 N.am      2 ALA2        0.0000 
     17 O         -27.3800    9.1800   -6.6500 O.2       2 ALA2        0.0000 
     18 N         -25.9800    5.3500   -5.4800 N.am      2 ALA2        0.0000 
     19 O         -28.8500   16.6500   -7.3500 O.2       2 ALA2        0.0000 
     20 O         -28.8500   15.8700   -6.0700 O.2       2 ALA2        0.0000 
     21 O         -28.1600   13.9500   -5.4800 O.2       2 ALA2        0.0000 
     22 O         -27.4500   13.6100   -7.4500 O.2       2 ALA2        0.0000 
     23 O         -27.4600   12.0300   -4.9000 O.2       2 ALA2        0.0000 
     24 CZ        -32.2000   16.5900   -7.4000 C.ar      3 PHE5        0.0000 
     25 CZ        -31.5000   15.4600   -8.0900 C.ar      3 PHE5        0.0000 
     26 CZ        -28.0100    5.0900   -3.8900 C.ar      3 PHE5        0.0000 
     27 CZ        -30.8800   17.1800   -7.0300 C.ar      3 PHE5        0.0000 
     28 CZ        -30.8800   16.4000   -5.7500 C.ar      3 PHE5        0.0000 
     29 CZ        -30.1700   16.0500   -7.7200 C.ar      3 PHE5        0.0000 
     30 CZ        -30.1800   15.2700   -6.4400 C.ar      3 PHE5        0.0000 
     31 CZ        -30.1800   14.4800   -5.1600 C.ar      3 PHE5        0.0000 
     32 CZ        -29.4800   14.1400   -7.1300 C.ar      3 PHE5        0.0000 
     33 CZ        -29.4800   13.3500   -5.8500 C.ar      3 PHE5        0.0000 
     34 CZ        -29.4900   12.5700   -4.5800 C.ar      3 PHE5        0.0000 
     35 CZ        -28.7700   13.0100   -7.8300 C.ar      3 PHE5        0.0000 
     36 CZ        -28.7800   12.2200   -6.5500 C.ar      3 PHE5        0.0000 
     37 CZ        -28.7800   11.4400   -5.2700 C.ar      3 PHE5        0.0000 
     38 CZ        -28.7900   10.6500   -3.9900 C.ar      3 PHE5        0.0000 
     39 CZ        -28.0800   11.0900   -7.2400 C.ar      3 PHE5        0.0000 
     40 CZ        -28.0800   10.3100   -5.9600 C.ar      3 PHE5        0.0000 
     41 CZ        -28.0800    9.5200   -4.6800 C.ar      3 PHE5        0.0000 
     42 CZ        -28.0900    8.7400   -3.4100 C.ar      3 PHE5        0.0000 
     43 CZ        -27.3900    6.8200   -2.8200 C.ar      3 PHE5        0.0000 
     44 CZ        -26.6800    6.4800   -4.7900 C.ar      3 PHE5        0.0000 
     45 CZ        -26.6900    5.6900   -3.5100 C.ar      3 PHE5        0.0000 
     46 CZ        -27.4500   12.8200   -6.1800 C.ar      3 PHE5        0.0000 
     47 CZ        -26.7500   11.6900   -6.8700 C.ar      3 PHE5        0.0000 
     48 CZ        -26.7500   10.9000   -5.5900 C.ar      3 PHE5        0.0000 
     49 CZ        -26.0500    9.7700   -6.2800 C.ar      3 PHE5        0.0000 
     50 CZ        -26.0600    8.9900   -5.0100 C.ar      3 PHE5        0.0000 
     51 CZ        -26.0600    8.2000   -3.7300 C.ar      3 PHE5        0.0000 
     52 CZ        -26.0700    7.4200   -2.4500 C.ar      3 PHE5        0.0000 
     53 CZ        -25.3500    7.8600   -5.7000 C.ar      3 PHE5        0.0000 
     54 CZ        -25.3600    6.2900   -3.1400 C.ar      3 PHE5        0.0000 
     55 CZ        -24.6600    5.1600   -3.8400 C.ar      3 PHE5        0.0000 
     56 CA        -29.3300    5.2800   -5.5300 C.3       4 GLY6        0.0000 
     57 CA        -29.3400    4.5000   -4.2600 C.3       4 GLY6        0.0000 
     58 CA        -28.6400    3.3700   -4.9500 C.3       4 GLY6        0.0000 
     59 CA        -27.9400    1.4500   -4.3600 C.3       4 GLY6        0.0000 
     60 CA        -27.2400    0.3200   -5.0600 C.3       4 GLY6        0.0000 
     61 CA        -29.4100    8.9200   -5.0600 C.3       4 GLY6        0.0000 
     62 CA        -28.7100    7.7900   -5.7500 C.3       4 GLY6        0.0000 
     63 CA        -28.7100    7.0100   -4.4700 C.3       4 GLY6        0.0000 
     64 CA        -28.0100    5.8800   -5.1600 C.3       4 GLY6        0.0000 
     65 CA        -27.3100    4.7500   -5.8600 C.3       4 GLY6        0.0000 
     66 CA        -26.6100    2.0500   -3.9900 C.3       4 GLY6        0.0000 
     67 CA        -26.6200    1.2600   -2.7200 C.3       4 GLY6        0.0000 
     68 CA        -25.9100    0.1300   -3.4100 C.3       4 GLY6        0.0000 
     69 CA        -29.4700   14.9200   -8.4100 C.3       4 GLY6        0.0000 
     70 CA        -27.3800    8.3900   -5.3800 C.3       4 GLY6        0.0000 
     71 CA        -27.3900    7.6100   -4.1000 C.3       4 GLY6        0.0000 
     72 CA        -26.6800    7.2600   -6.0700 C.3       4 GLY6        0.0000 
     73 CA        -26.6900    4.9000   -2.2400 C.3       4 GLY6        0.0000 
     74 CA        -25.9900    4.5600   -4.2100 C.3       4 GLY6        0.0000 
     75 CA        -25.9900    3.7700   -2.9300 C.3       4 GLY6        0.0000 
     76 CA        -25.9900    2.9900   -1.6500 C.3       4 GLY6        0.0000 
     77 CA        -26.0000    2.2000   -0.3700 C.3       4 GLY6        0.0000 
     78 CA        -25.2900    2.6400   -3.6200 C.3       4 GLY6        0.0000 
     79 CA        -25.2900    1.8600   -2.3400 C.3       4 GLY6        0.0000 
     80 CA        -25.3000    1.0700   -1.0700 C.3       4 GLY6        0.0000 
     81 CA        -28.1500   14.7400   -6.7600 C.3       4 GLY6        0.0000 
     82 DU        -27.2400   -0.4600   -3.7800 H         5 CUB7        0.0000 
     83 DU        -26.6200    0.4800   -1.4400 H         5 CUB7        0.0000 
     84 DU        -26.6300   -0.3100   -0.1600 H         5 CUB7        0.0000 
@<TRIPOS>BOND
@<TRIPOS>SUBSTRUCTURE
     1 SER1        1 GROUP   
     2 ALA2       11 GROUP   
     3 PHE5       24 GROUP   
     4 GLY6       56 GROUP   
     5 CUB7       82 GROUP   
@<TRIPOS>SET

