#    Name: 6s8g_1_ANP
#    Modification time : Fri May 22 19:24:57 2020

@<TRIPOS>MOLECULE
6s8g_1_ANP
   31    33     1     0     1
SMALL
NO_CHARGES


@<TRIPOS>ATOM
      1 PG         61.1720   67.6950   97.9280 P.3       1 ANP401      0.0000 
      2 O1G        60.6240   68.5890   98.9840 O.co2     1 ANP401      0.0000 
      3 O2G        61.7220   68.5240   96.7120 O.co2     1 ANP401      0.0000 
      4 O3G        60.0540   66.7310   97.3930 O.co2     1 ANP401      0.0000 
      5 PB         62.9450   66.0160   97.1390 P.3       1 ANP401      0.0000 
      6 O1B        61.7610   65.4480   96.4600 O.co2     1 ANP401      0.0000 
      7 O2B        63.5550   67.1290   96.2570 O.co2     1 ANP401      0.0000 
      8 N3B        62.4150   66.7450   98.5320 N.3       1 ANP401      0.0000 
      9 PA         65.4620   65.1560   96.8710 P.3       1 ANP401      0.0000 
     10 O1A        65.7890   66.5800   96.7090 O.co2     1 ANP401      0.0000 
     11 O2A        65.6090   64.4050   95.5540 O.co2     1 ANP401      0.0000 
     12 O3A        64.0050   64.9200   97.3930 O.3       1 ANP401      0.0000 
     13 O5'        66.3360   64.5020   97.9820 O.3       1 ANP401      0.0000 
     14 C5'        65.8020   63.3500   98.6300 C.3       1 ANP401      0.0000 
     15 C4'        66.6920   62.9500   99.7710 C.3       1 ANP401      0.0000 
     16 O4'        68.0470   62.8240   99.2980 O.3       1 ANP401      0.0000 
     17 C3'        66.7250   63.9170  100.9520 C.3       1 ANP401      0.0000 
     18 O3'        66.6580   63.2050  102.1790 O.3       1 ANP401      0.0000 
     19 C2'        68.0710   64.6240  100.7980 C.3       1 ANP401      0.0000 
     20 O2'        68.6140   64.9470  102.0690 O.3       1 ANP401      0.0000 
     21 C1'        68.9180   63.5450  100.1380 C.3       1 ANP401      0.0000 
     22 N9         69.9950   64.0680   99.3140 N.pl3     1 ANP401      0.0000 
     23 C8         69.8760   64.7520   98.1380 C.2       1 ANP401      0.0000 
     24 N7         71.0210   65.0980   97.5980 N.2       1 ANP401      0.0000 
     25 C5         71.9530   64.5980   98.4860 C.ar      1 ANP401      0.0000 
     26 C6         73.3650   64.6300   98.4930 C.ar      1 ANP401      0.0000 
     27 N6         74.0970   65.2100   97.5410 N.pl3     1 ANP401      0.0000 
     28 N1         74.0000   64.0380   99.5270 N.ar      1 ANP401      0.0000 
     29 C2         73.2720   63.4560  100.4820 C.ar      1 ANP401      0.0000 
     30 N3         71.9430   63.3640  100.5820 N.ar      1 ANP401      0.0000 
     31 C4         71.3470   63.9580   99.5490 C.ar      1 ANP401      0.0000 
@<TRIPOS>BOND
     1    1    2 ar   
     2    1    3 ar   
     3    1    4 ar   
     4    1    8 1    
     5    5    6 ar   
     6    5    7 ar   
     7    5    8 1    
     8    5   12 1    
     9    9   10 ar   
    10    9   11 ar   
    11    9   12 1    
    12    9   13 1    
    13   13   14 1    
    14   14   15 1    
    15   15   16 1    
    16   15   17 1    
    17   16   21 1    
    18   17   18 1    
    19   17   19 1    
    20   19   20 1    
    21   19   21 1    
    22   21   22 1    
    23   22   23 1    
    24   22   31 1    
    25   23   24 2    
    26   24   25 1    
    27   25   26 ar   
    28   25   31 ar   
    29   26   27 1    
    30   26   28 ar   
    31   28   29 ar   
    32   29   30 ar   
    33   30   31 ar   
@<TRIPOS>SUBSTRUCTURE
     1 ANP401      1 GROUP   
@<TRIPOS>SET
ATOM$ORANGE STATIC     ATOMS   COLORGROUP SYSTEM 
20 14 14 15 15 17 17 19 19 21 21 23 23 25 25 26 26 29 \
29 31 31 

