#    Name: 6s8g_2_ANP
#    Modification time : Fri May 22 19:25:04 2020

@<TRIPOS>MOLECULE
6s8g_2_ANP
   31    33     1     0     1
SMALL
NO_CHARGES


@<TRIPOS>ATOM
      1 PG         55.5810   88.1950   96.8610 P.3       1 ANP401      0.0000 
      2 O1G        55.3590   87.0950   95.8840 O.co2     1 ANP401      0.0000 
      3 O2G        56.6870   87.8090   97.9090 O.co2     1 ANP401      0.0000 
      4 O3G        54.2560   88.5060   97.6450 O.co2     1 ANP401      0.0000 
      5 PB         56.4040   90.5680   97.3850 P.3       1 ANP401      0.0000 
      6 O1B        55.2460   90.5100   98.3020 O.co2     1 ANP401      0.0000 
      7 O2B        57.6380   89.9480   98.0790 O.co2     1 ANP401      0.0000 
      8 N3B        56.0530   89.6030   96.0810 N.3       1 ANP401      0.0000 
      9 PA         58.1660   92.5720   97.2160 P.3       1 ANP401      0.0000 
     10 O1A        59.1780   91.5060   97.2430 O.co2     1 ANP401      0.0000 
     11 O2A        58.1670   93.3630   98.5180 O.co2     1 ANP401      0.0000 
     12 O3A        56.7140   92.0300   96.9910 O.3       1 ANP401      0.0000 
     13 O5'        58.3750   93.5150   95.9950 O.3       1 ANP401      0.0000 
     14 C5'        57.2310   94.2180   95.5180 C.3       1 ANP401      0.0000 
     15 C4'        57.5730   94.9480   94.2500 C.3       1 ANP401      0.0000 
     16 O4'        58.7500   95.7510   94.4660 O.3       1 ANP401      0.0000 
     17 C3'        57.8570   94.0650   93.0380 C.3       1 ANP401      0.0000 
     18 O3'        57.2170   94.5870   91.8820 O.3       1 ANP401      0.0000 
     19 C2'        59.3780   94.1240   92.9000 C.3       1 ANP401      0.0000 
     20 O2'        59.7590   94.0480   91.5350 O.3       1 ANP401      0.0000 
     21 C1'        59.6880   95.5130   93.4420 C.3       1 ANP401      0.0000 
     22 N9         61.0160   95.6330   94.0210 N.pl3     1 ANP401      0.0000 
     23 C8         61.4730   95.0400   95.1620 C.2       1 ANP401      0.0000 
     24 N7         62.7180   95.3330   95.4600 N.2       1 ANP401      0.0000 
     25 C5         63.0940   96.1830   94.4380 C.ar      1 ANP401      0.0000 
     26 C6         64.3080   96.8530   94.1630 C.ar      1 ANP401      0.0000 
     27 N6         65.3950   96.7590   94.9300 N.pl3     1 ANP401      0.0000 
     28 N1         64.3590   97.6270   93.0590 N.ar      1 ANP401      0.0000 
     29 C2         63.2740   97.7240   92.2880 C.ar      1 ANP401      0.0000 
     30 N3         62.0820   97.1430   92.4450 N.ar      1 ANP401      0.0000 
     31 C4         62.0640   96.3850   93.5410 C.ar      1 ANP401      0.0000 
@<TRIPOS>BOND
     1    1    2 ar   
     2    1    3 ar   
     3    1    4 ar   
     4    1    8 1    
     5    5    6 ar   
     6    5    7 ar   
     7    5    8 1    
     8    5   12 1    
     9    9   10 ar   
    10    9   11 ar   
    11    9   12 1    
    12    9   13 1    
    13   13   14 1    
    14   14   15 1    
    15   15   16 1    
    16   15   17 1    
    17   16   21 1    
    18   17   18 1    
    19   17   19 1    
    20   19   20 1    
    21   19   21 1    
    22   21   22 1    
    23   22   23 1    
    24   22   31 1    
    25   23   24 2    
    26   24   25 1    
    27   25   26 ar   
    28   25   31 ar   
    29   26   27 1    
    30   26   28 ar   
    31   28   29 ar   
    32   29   30 ar   
    33   30   31 ar   
@<TRIPOS>SUBSTRUCTURE
     1 ANP401      1 GROUP   
@<TRIPOS>SET
ATOM$ORANGE STATIC     ATOMS   COLORGROUP SYSTEM 
20 14 14 15 15 17 17 19 19 21 21 23 23 25 25 26 26 29 \
29 31 31 

