#    Name: 5oc2_1_FAD
#    Modification time : Fri May 22 19:17:08 2020

@<TRIPOS>MOLECULE
5oc2_1_FAD
   53    59     1     0     1
SMALL
NO_CHARGES


@<TRIPOS>ATOM
      1 PA        -11.7780    1.6320  -41.0130 P.3       1 FAD501      0.0000 
      2 O1A       -11.7550    0.4090  -41.8990 O.co2     1 FAD501      0.0000 
      3 O2A       -11.9310    1.2260  -39.5670 O.co2     1 FAD501      0.0000 
      4 O5B       -13.0310    2.5720  -41.4130 O.3       1 FAD501      0.0000 
      5 C5B       -13.2770    2.7930  -42.7970 C.3       1 FAD501      0.0000 
      6 C4B       -14.6830    3.2920  -42.9170 C.3       1 FAD501      0.0000 
      7 O4B       -14.7660    4.1680  -44.1200 O.3       1 FAD501      0.0000 
      8 C3B       -15.5850    2.1580  -43.0940 C.3       1 FAD501      0.0000 
      9 O3B       -16.7080    2.3070  -42.2110 O.3       1 FAD501      0.0000 
     10 C2B       -16.0030    2.2140  -44.5150 C.3       1 FAD501      0.0000 
     11 O2B       -17.3020    1.5940  -44.7440 O.3       1 FAD501      0.0000 
     12 C1B       -15.9650    3.6420  -44.8200 C.3       1 FAD501      0.0000 
     13 N9A       -15.9640    3.8910  -46.2130 N.pl3     1 FAD501      0.0000 
     14 C8A       -15.5170    3.2450  -47.1640 Du        1 FAD501      0.0000 
     15 N7A       -15.6560    3.5890  -48.1770 N.2       1 FAD501      0.0000 
     16 C5A       -16.2400    4.5800  -48.4270 C.ar      1 FAD501      0.0000 
     17 C6A       -16.8140    5.6280  -49.4690 C.ar      1 FAD501      0.0000 
     18 N6A       -16.6340    5.5050  -50.8990 N.pl3     1 FAD501      0.0000 
     19 N1A       -17.5300    6.7310  -48.9400 N.ar      1 FAD501      0.0000 
     20 C2A       -17.6620    6.8090  -47.6940 C.ar      1 FAD501      0.0000 
     21 N3A       -17.2830    6.1120  -46.8500 N.ar      1 FAD501      0.0000 
     22 C4A       -16.6500    5.0950  -46.9230 C.ar      1 FAD501      0.0000 
     23 N1         -4.5980   -1.9600  -35.4250 N.2       1 FAD501      0.0000 
     24 C2         -4.2100   -1.8980  -34.0080 C.2       1 FAD501      0.0000 
     25 O2         -3.9810   -0.8070  -33.5190 O.2       1 FAD501      0.0000 
     26 N3         -4.0990   -3.1120  -33.2130 N.am      1 FAD501      0.0000 
     27 C4         -4.3610   -4.3570  -33.7950 C.2       1 FAD501      0.0000 
     28 O4         -4.2720   -5.3970  -33.1450 O.2       1 FAD501      0.0000 
     29 C4X        -4.7500   -4.4130  -35.2200 C.2       1 FAD501      0.0000 
     30 N5         -5.0040   -5.5840  -35.7740 N.2       1 FAD501      0.0000 
     31 C5X        -5.3960   -5.6330  -37.1730 C.ar      1 FAD501      0.0000 
     32 C6         -5.6690   -6.8740  -37.7760 C.ar      1 FAD501      0.0000 
     33 C7         -6.0580   -6.9180  -39.1310 C.ar      1 FAD501      0.0000 
     34 C7M        -6.3420   -8.2730  -39.7460 C.3       1 FAD501      0.0000 
     35 C8         -6.1550   -5.7320  -39.8620 C.ar      1 FAD501      0.0000 
     36 C8M        -6.5200   -5.6880  -41.3900 C.3       1 FAD501      0.0000 
     37 C9         -5.8740   -4.5200  -39.2760 C.ar      1 FAD501      0.0000 
     38 C9A        -5.5040   -4.4510  -37.9160 C.ar      1 FAD501      0.0000 
     39 N10        -5.2150   -3.1870  -37.3420 N.pl3     1 FAD501      0.0000 
     40 C10        -4.8590   -3.1480  -36.0050 C.2       1 FAD501      0.0000 
     41 C1'        -5.3740   -1.9560  -38.0990 C.3       1 FAD501      0.0000 
     42 C2'        -6.8380   -1.6410  -37.7120 C.3       1 FAD501      0.0000 
     43 O2'        -7.7390   -2.3770  -38.4690 O.3       1 FAD501      0.0000 
     44 C3'        -7.3200   -0.1960  -37.7400 C.3       1 FAD501      0.0000 
     45 O3'        -8.6840   -0.1790  -37.3940 O.3       1 FAD501      0.0000 
     46 C4'        -7.2680    0.4890  -39.0800 C.3       1 FAD501      0.0000 
     47 O4'        -6.0020    1.0860  -39.1080 O.3       1 FAD501      0.0000 
     48 C5'        -8.4760    1.4400  -39.0260 C.3       1 FAD501      0.0000 
     49 O5'        -8.3620    2.7180  -39.6650 O.3       1 FAD501      0.0000 
     50 P          -9.6840    3.4540  -40.2820 P.3       1 FAD501      0.0000 
     51 O1P       -10.6800    3.9380  -39.2390 O.co2     1 FAD501      0.0000 
     52 O2P        -9.1970    4.6400  -41.0730 O.co2     1 FAD501      0.0000 
     53 O3P       -10.4110    2.4360  -41.2770 O.3       1 FAD501      0.0000 
@<TRIPOS>BOND
     1    1    2 ar   
     2    1    3 ar   
     3    1    4 1    
     4    1   53 1    
     5    4    5 1    
     6    5    6 1    
     7    6    7 1    
     8    6    8 1    
     9    7   12 1    
    10    8    9 1    
    11    8   10 1    
    12   10   11 1    
    13   10   12 1    
    14   12   13 1    
    15   13   14 du   
    16   13   22 1    
    17   14   15 du   
    18   14   16 du   
    19   15   16 1    
    20   16   17 ar   
    21   16   22 ar   
    22   17   18 1    
    23   17   19 ar   
    24   19   20 ar   
    25   20   21 ar   
    26   21   22 ar   
    27   23   24 1    
    28   23   40 2    
    29   24   25 2    
    30   24   26 am   
    31   26   27 am   
    32   27   28 2    
    33   27   29 1    
    34   29   30 2    
    35   29   40 1    
    36   30   31 1    
    37   31   32 ar   
    38   31   38 ar   
    39   32   33 ar   
    40   33   34 1    
    41   33   35 ar   
    42   35   36 1    
    43   35   37 ar   
    44   37   38 ar   
    45   38   39 1    
    46   39   40 1    
    47   39   41 1    
    48   41   42 1    
    49   42   43 1    
    50   42   44 1    
    51   44   45 1    
    52   44   46 1    
    53   46   47 1    
    54   46   48 1    
    55   48   49 1    
    56   49   50 1    
    57   50   51 ar   
    58   50   52 ar   
    59   50   53 1    
@<TRIPOS>SUBSTRUCTURE
     1 FAD501      1 GROUP   
@<TRIPOS>SET
ATOM$ORANGE STATIC     ATOMS   COLORGROUP SYSTEM 
52 5 5 6 6 8 8 10 10 12 12 16 16 17 17 20 20 22 \
22 24 24 27 27 29 29 31 31 32 32 33 33 34 34 35 35 36 \
36 37 37 38 38 40 40 41 41 42 42 44 44 46 46 48 48 

