#    Name: 5oc2_2_FAD
#    Modification time : Fri May 22 19:17:14 2020

@<TRIPOS>MOLECULE
5oc2_2_FAD
   53    59     1     0     1
SMALL
NO_CHARGES


@<TRIPOS>ATOM
      1 PA        -31.1820  -12.7270  -71.4460 P.3       1 FAD501      0.0000 
      2 O1A       -31.6410  -12.4750  -70.0260 O.co2     1 FAD501      0.0000 
      3 O2A       -31.2840  -11.4690  -72.2690 O.co2     1 FAD501      0.0000 
      4 O5B       -29.6410  -13.2140  -71.3670 O.3       1 FAD501      0.0000 
      5 C5B       -29.1520  -14.2250  -72.2560 C.3       1 FAD501      0.0000 
      6 C4B       -27.7580  -14.5300  -71.7970 C.3       1 FAD501      0.0000 
      7 O4B       -27.0850  -15.4350  -72.7740 O.3       1 FAD501      0.0000 
      8 C3B       -26.9920  -13.2770  -71.7040 C.3       1 FAD501      0.0000 
      9 O3B       -26.4450  -13.1390  -70.3690 O.3       1 FAD501      0.0000 
     10 C2B       -25.9320  -13.3720  -72.7360 C.3       1 FAD501      0.0000 
     11 O2B       -24.7210  -12.7100  -72.2940 O.3       1 FAD501      0.0000 
     12 C1B       -25.7300  -14.8110  -72.8920 C.3       1 FAD501      0.0000 
     13 N9A       -25.0930  -15.1600  -74.1000 N.pl3     1 FAD501      0.0000 
     14 C8A       -25.1630  -14.6590  -75.2220 Du        1 FAD501      0.0000 
     15 N7A       -24.5880  -15.0590  -76.0420 N.2       1 FAD501      0.0000 
     16 C5A       -23.8640  -15.9800  -75.9100 C.ar      1 FAD501      0.0000 
     17 C6A       -22.8180  -17.0160  -76.4960 C.ar      1 FAD501      0.0000 
     18 N6A       -22.3980  -17.0140  -77.8820 N.pl3     1 FAD501      0.0000 
     19 N1A       -22.2880  -17.9760  -75.5960 N.ar      1 FAD501      0.0000 
     20 C2A       -22.6790  -17.9530  -74.4050 C.ar      1 FAD501      0.0000 
     21 N3A       -23.4320  -17.2440  -73.8730 N.ar      1 FAD501      0.0000 
     22 C4A       -24.0690  -16.3180  -74.3130 C.ar      1 FAD501      0.0000 
     23 N1        -40.4300   -9.1530  -69.3770 N.2       1 FAD501      0.0000 
     24 C2        -41.3940   -9.1150  -68.3000 C.2       1 FAD501      0.0000 
     25 O2        -41.8770  -10.1570  -67.9430 O.2       1 FAD501      0.0000 
     26 N3        -41.7710   -7.8670  -67.6800 N.am      1 FAD501      0.0000 
     27 C4        -41.1960   -6.6700  -68.1210 C.2       1 FAD501      0.0000 
     28 O4        -41.5020   -5.6060  -67.6040 O.2       1 FAD501      0.0000 
     29 C4X       -40.2150   -6.6970  -69.2150 C.2       1 FAD501      0.0000 
     30 N5        -39.6510   -5.5860  -69.6590 N.2       1 FAD501      0.0000 
     31 C5X       -38.6760   -5.6770  -70.7320 C.ar      1 FAD501      0.0000 
     32 C6        -38.0790   -4.4990  -71.1830 C.ar      1 FAD501      0.0000 
     33 C7        -37.1320   -4.5460  -72.2240 C.ar      1 FAD501      0.0000 
     34 C7M       -36.5080   -3.2450  -72.7040 C.3       1 FAD501      0.0000 
     35 C8        -36.8030   -5.7780  -72.7960 C.ar      1 FAD501      0.0000 
     36 C8M       -35.7830   -5.9270  -73.9850 C.3       1 FAD501      0.0000 
     37 C9        -37.3970   -6.9470  -72.3490 C.ar      1 FAD501      0.0000 
     38 C9A       -38.3400   -6.9240  -71.3000 C.ar      1 FAD501      0.0000 
     39 N10       -38.9350   -8.1250  -70.8090 N.pl3     1 FAD501      0.0000 
     40 C10       -39.8670   -8.0170  -69.8060 C.2       1 FAD501      0.0000 
     41 C1'       -38.7950   -9.4880  -71.2430 C.3       1 FAD501      0.0000 
     42 C2'       -37.5170  -10.1130  -71.7520 C.3       1 FAD501      0.0000 
     43 O2'       -37.9250  -11.2420  -72.4760 O.3       1 FAD501      0.0000 
     44 C3'       -36.6610  -10.6140  -70.6230 C.3       1 FAD501      0.0000 
     45 O3'       -36.0200   -9.4880  -70.0990 O.3       1 FAD501      0.0000 
     46 C4'       -35.7970  -11.6310  -71.3720 C.3       1 FAD501      0.0000 
     47 O4'       -36.6920  -12.6590  -71.7260 O.3       1 FAD501      0.0000 
     48 C5'       -34.6510  -12.3160  -70.6590 C.3       1 FAD501      0.0000 
     49 O5'       -34.6450  -13.6580  -71.2040 O.3       1 FAD501      0.0000 
     50 P         -33.3350  -14.6010  -71.4540 P.3       1 FAD501      0.0000 
     51 O1P       -33.7440  -15.7120  -72.4080 O.co2     1 FAD501      0.0000 
     52 O2P       -32.8170  -15.2420  -70.1840 O.co2     1 FAD501      0.0000 
     53 O3P       -32.1010  -13.8410  -72.1310 O.3       1 FAD501      0.0000 
@<TRIPOS>BOND
     1    1    2 ar   
     2    1    3 ar   
     3    1    4 1    
     4    1   53 1    
     5    4    5 1    
     6    5    6 1    
     7    6    7 1    
     8    6    8 1    
     9    7   12 1    
    10    8    9 1    
    11    8   10 1    
    12   10   11 1    
    13   10   12 1    
    14   12   13 1    
    15   13   14 du   
    16   13   22 1    
    17   14   15 du   
    18   14   16 du   
    19   15   16 1    
    20   16   17 ar   
    21   16   22 ar   
    22   17   18 1    
    23   17   19 ar   
    24   19   20 ar   
    25   20   21 ar   
    26   21   22 ar   
    27   23   24 1    
    28   23   40 2    
    29   24   25 2    
    30   24   26 am   
    31   26   27 am   
    32   27   28 2    
    33   27   29 1    
    34   29   30 2    
    35   29   40 1    
    36   30   31 1    
    37   31   32 ar   
    38   31   38 ar   
    39   32   33 ar   
    40   33   34 1    
    41   33   35 ar   
    42   35   36 1    
    43   35   37 ar   
    44   37   38 ar   
    45   38   39 1    
    46   39   40 1    
    47   39   41 1    
    48   41   42 1    
    49   42   43 1    
    50   42   44 1    
    51   44   45 1    
    52   44   46 1    
    53   46   47 1    
    54   46   48 1    
    55   48   49 1    
    56   49   50 1    
    57   50   51 ar   
    58   50   52 ar   
    59   50   53 1    
@<TRIPOS>SUBSTRUCTURE
     1 FAD501      1 GROUP   
@<TRIPOS>SET
ATOM$ORANGE STATIC     ATOMS   COLORGROUP SYSTEM 
52 5 5 6 6 8 8 10 10 12 12 16 16 17 17 20 20 22 \
22 24 24 27 27 29 29 31 31 32 32 33 33 34 34 35 35 36 \
36 37 37 38 38 40 40 41 41 42 42 44 44 46 46 48 48 

