#    Name: 5oc2_2_FAD_CAVITY_N1_4
#    Modification time : Fri May 22 19:17:17 2020

@<TRIPOS>MOLECULE
5oc2_2_FAD_CAVITY_N1_4
   69     0     6     0     0
SMALL
NO_CHARGES


@<TRIPOS>ATOM
      1 N         -40.9500   -5.1500  -73.2300 N.am      1 ALA2        0.0000 
      2 N         -42.0900   -4.8200  -72.3200 N.am      1 ALA2        0.0000 
      3 N         -40.8200   -6.5000  -72.5900 N.am      1 ALA2        0.0000 
      4 N         -41.9600   -6.1700  -71.6700 N.am      1 ALA2        0.0000 
      5 N         -43.1100   -5.8400  -70.7600 N.am      1 ALA2        0.0000 
      6 N         -42.9800   -7.1900  -70.1200 N.am      1 ALA2        0.0000 
      7 N         -42.8500   -8.5300  -69.4700 N.am      1 ALA2        0.0000 
      8 N         -39.8600   -5.9200  -71.5900 N.am      1 ALA2        0.0000 
      9 N         -41.0000   -5.6000  -70.6700 N.am      1 ALA2        0.0000 
     10 N         -38.5800   -7.6000  -71.8500 N.am      1 ALA2        0.0000 
     11 N         -39.7300   -7.2700  -70.9400 N.am      1 ALA2        0.0000 
     12 N         -40.8700   -6.9400  -70.0300 N.am      1 ALA2        0.0000 
     13 N         -42.0200   -6.6200  -69.1200 N.am      1 ALA2        0.0000 
     14 N         -39.6000   -8.6200  -70.2900 N.am      1 ALA2        0.0000 
     15 N         -40.7400   -8.2900  -69.3800 N.am      1 ALA2        0.0000 
     16 N         -41.8900   -7.9600  -68.4700 N.am      1 ALA2        0.0000 
     17 O         -40.6200   -9.6400  -68.7300 O.2       1 ALA2        0.0000 
     18 N         -39.1600   -2.6600  -71.8800 N.am      1 ALA2        0.0000 
     19 N         -35.5900   -4.9900  -73.9700 N.am      1 ALA2        0.0000 
     20 N         -36.7400   -4.6600  -73.0600 N.am      1 ALA2        0.0000 
     21 N         -35.4600   -6.3400  -73.3200 N.am      1 ALA2        0.0000 
     22 N         -36.6100   -6.0100  -72.4100 N.am      1 ALA2        0.0000 
     23 O         -41.0600   -6.0400  -68.1100 O.2       1 ALA2        0.0000 
     24 N         -37.0500   -2.4100  -71.7900 N.am      1 ALA2        0.0000 
     25 N         -35.7800   -4.0900  -72.0600 N.am      1 ALA2        0.0000 
     26 N         -35.6500   -5.4400  -71.4100 N.am      1 ALA2        0.0000 
     27 OD1       -37.8800   -4.3300  -72.1400 O.co2     2 ASP3        0.0000 
     28 OD1       -37.7500   -5.6800  -71.5000 O.co2     2 ASP3        0.0000 
     29 OD1       -38.9000   -5.3500  -70.5900 O.co2     2 ASP3        0.0000 
     30 OD1       -37.6200   -7.0300  -70.8500 O.co2     2 ASP3        0.0000 
     31 OD1       -36.9200   -3.7600  -71.1400 O.co2     2 ASP3        0.0000 
     32 OD1       -38.0700   -3.4300  -70.2300 O.co2     2 ASP3        0.0000 
     33 OD1       -39.0800   -4.4500  -68.6700 O.co2     2 ASP3        0.0000 
     34 NZ        -37.4400   -7.9300  -72.7600 N.4       3 LYS4        0.0000 
     35 CZ        -38.6600   -5.8000  -75.0600 C.ar      4 PHE5        0.0000 
     36 CZ        -39.8000   -5.4800  -74.1400 C.ar      4 PHE5        0.0000 
     37 CZ        -41.2600   -2.9000  -71.9700 C.ar      4 PHE5        0.0000 
     38 CZ        -37.7000   -5.2300  -74.0600 C.ar      4 PHE5        0.0000 
     39 CZ        -41.1300   -4.2500  -71.3200 C.ar      4 PHE5        0.0000 
     40 CZ        -42.2800   -3.9200  -70.4100 C.ar      4 PHE5        0.0000 
     41 CZ        -40.1700   -3.6800  -70.3200 C.ar      4 PHE5        0.0000 
     42 CZ        -41.1900   -4.7000  -68.7600 C.ar      4 PHE5        0.0000 
     43 CA        -38.5300   -7.1500  -74.4100 C.3       5 GLY6        0.0000 
     44 CA        -39.6700   -6.8200  -73.5000 C.3       5 GLY6        0.0000 
     45 CA        -44.2500   -5.5100  -69.8500 C.3       5 GLY6        0.0000 
     46 CA        -44.1200   -6.8600  -69.2000 C.3       5 GLY6        0.0000 
     47 CA        -43.9900   -8.2100  -68.5600 C.3       5 GLY6        0.0000 
     48 CA        -38.9700   -3.5600  -73.7900 C.3       5 GLY6        0.0000 
     49 CA        -36.4200   -6.9100  -74.3200 C.3       5 GLY6        0.0000 
     50 CA        -37.5700   -6.5800  -73.4100 C.3       5 GLY6        0.0000 
     51 CA        -42.1500   -5.2700  -69.7600 C.3       5 GLY6        0.0000 
     52 CA        -43.1600   -6.2900  -68.2000 C.3       5 GLY6        0.0000 
     53 CA        -38.1400   -1.6400  -73.4400 C.3       5 GLY6        0.0000 
     54 CA        -36.8700   -3.3100  -73.7000 C.3       5 GLY6        0.0000 
     55 CA        -38.0100   -2.9800  -72.7900 C.3       5 GLY6        0.0000 
     56 CA        -36.4800   -7.3500  -71.7600 C.3       5 GLY6        0.0000 
     57 CA        -38.7700   -6.7000  -69.9400 C.3       5 GLY6        0.0000 
     58 CA        -39.9100   -6.3700  -69.0300 C.3       5 GLY6        0.0000 
     59 CA        -38.6400   -8.0500  -69.2900 C.3       5 GLY6        0.0000 
     60 CA        -39.7800   -7.7200  -68.3800 C.3       5 GLY6        0.0000 
     61 CA        -40.9300   -7.3900  -67.4700 C.3       5 GLY6        0.0000 
     62 CA        -35.9100   -2.7400  -72.7000 C.3       5 GLY6        0.0000 
     63 CA        -40.2300   -4.1200  -67.7600 C.3       5 GLY6        0.0000 
     64 DU        -40.1200   -3.2300  -72.8800 H         6 CUB7        0.0000 
     65 DU        -38.8400   -4.9000  -73.1400 H         6 CUB7        0.0000 
     66 DU        -39.9900   -4.5800  -72.2300 H         6 CUB7        0.0000 
     67 DU        -38.7100   -6.2500  -72.5000 H         6 CUB7        0.0000 
     68 DU        -39.0300   -4.0000  -71.2300 H         6 CUB7        0.0000 
     69 DU        -40.0400   -5.0200  -69.6700 H         6 CUB7        0.0000 
@<TRIPOS>BOND
@<TRIPOS>SUBSTRUCTURE
     1 ALA2        1 GROUP   
     2 ASP3       27 GROUP   
     3 LYS4       34 GROUP   
     4 PHE5       35 GROUP   
     5 GLY6       43 GROUP   
     6 CUB7       64 GROUP   
@<TRIPOS>SET

