#    Name: 5oc2_1_FAD_CAVITY_N1_4
#    Modification time : Fri May 22 19:17:10 2020

@<TRIPOS>MOLECULE
5oc2_1_FAD_CAVITY_N1_4
   78     0     6     0     0
SMALL
NO_CHARGES


@<TRIPOS>ATOM
      1 N          -5.9400   -5.0300  -41.6800 N.am      1 ALA2        0.0000 
      2 N          -7.0900   -4.7000  -40.7700 N.am      1 ALA2        0.0000 
      3 N          -6.9600   -6.0500  -40.1300 N.am      1 ALA2        0.0000 
      4 N          -6.8300   -7.4000  -39.4800 N.am      1 ALA2        0.0000 
      5 N          -4.5900   -8.5000  -38.7400 N.am      1 ALA2        0.0000 
      6 N          -5.7400   -8.1700  -37.8300 N.am      1 ALA2        0.0000 
      7 N          -2.9300   -4.6600  -38.0400 N.am      1 ALA2        0.0000 
      8 N          -4.0800   -4.3300  -37.1300 N.am      1 ALA2        0.0000 
      9 N          -2.8000   -6.0100  -37.3900 N.am      1 ALA2        0.0000 
     10 N          -3.9500   -5.6800  -36.4800 N.am      1 ALA2        0.0000 
     11 N          -4.3900   -2.0900  -35.8600 N.am      1 ALA2        0.0000 
     12 N          -4.2600   -3.4300  -35.2100 N.am      1 ALA2        0.0000 
     13 N          -1.8400   -5.4400  -36.3900 N.am      1 ALA2        0.0000 
     14 N          -2.9900   -5.1100  -35.4800 N.am      1 ALA2        0.0000 
     15 N          -4.1300   -4.7800  -34.5700 N.am      1 ALA2        0.0000 
     16 O          -4.0000   -6.1300  -33.9200 O.2       1 ALA2        0.0000 
     17 N          -3.4300   -1.5100  -34.8600 N.am      1 ALA2        0.0000 
     18 O          -4.5700   -1.1900  -33.9500 O.2       1 ALA2        0.0000 
     19 N          -3.3000   -2.8600  -34.2100 N.am      1 ALA2        0.0000 
     20 N          -4.4400   -2.5300  -33.3000 N.am      1 ALA2        0.0000 
     21 N          -0.8800   -4.8700  -35.3900 N.am      1 ALA2        0.0000 
     22 N          -2.0200   -4.5400  -34.4800 N.am      1 ALA2        0.0000 
     23 N          -3.1700   -4.2100  -33.5700 N.am      1 ALA2        0.0000 
     24 N          -1.1900   -2.6200  -34.1300 N.am      1 ALA2        0.0000 
     25 N          -1.0600   -3.9700  -33.4800 N.am      1 ALA2        0.0000 
     26 N          -2.2100   -3.6400  -32.5700 N.am      1 ALA2        0.0000 
     27 OD1        -7.2700   -3.8000  -38.8600 O.co2     2 ASP3        0.0000 
     28 OD1        -6.0000   -5.4800  -39.1300 O.co2     2 ASP3        0.0000 
     29 OD1        -5.8700   -6.8200  -38.4800 O.co2     2 ASP3        0.0000 
     30 OD1        -6.8800   -7.8400  -36.9200 O.co2     2 ASP3        0.0000 
     31 OD1        -6.1800   -4.5800  -37.2100 O.co2     2 ASP3        0.0000 
     32 OD1        -6.0500   -5.9200  -36.5700 O.co2     2 ASP3        0.0000 
     33 NZ         -6.2500   -2.7800  -40.4200 N.4       3 LYS4        0.0000 
     34 NZ         -6.1300   -4.1300  -39.7700 N.4       3 LYS4        0.0000 
     35 NZ         -6.5700   -0.5400  -39.1500 N.4       3 LYS4        0.0000 
     36 NZ         -6.4400   -1.8800  -38.5100 N.4       3 LYS4        0.0000 
     37 NZ         -5.1700   -3.5600  -38.7700 N.4       3 LYS4        0.0000 
     38 NZ         -2.4900   -8.2600  -38.6600 N.4       3 LYS4        0.0000 
     39 CZ         -3.7100   -6.1300  -40.9500 C.ar      4 PHE5        0.0000 
     40 CZ         -4.8500   -5.8000  -40.0400 C.ar      4 PHE5        0.0000 
     41 CZ         -2.7500   -5.5600  -39.9500 C.ar      4 PHE5        0.0000 
     42 CZ         -2.6200   -6.9100  -39.3000 C.ar      4 PHE5        0.0000 
     43 CZ         -3.6300   -7.9300  -37.7400 C.ar      4 PHE5        0.0000 
     44 CZ         -4.7800   -7.6000  -36.8300 C.ar      4 PHE5        0.0000 
     45 CZ         -2.6700   -7.3600  -36.7400 C.ar      4 PHE5        0.0000 
     46 CZ         -3.8200   -7.0300  -35.8300 C.ar      4 PHE5        0.0000 
     47 CZ         -4.9600   -6.7000  -34.9200 C.ar      4 PHE5        0.0000 
     48 CZ         -1.7100   -6.7800  -35.7400 C.ar      4 PHE5        0.0000 
     49 CA         -7.2200   -3.3500  -41.4200 C.3       5 GLY6        0.0000 
     50 CA         -5.8100   -6.3800  -41.0400 C.3       5 GLY6        0.0000 
     51 CA         -5.6800   -7.7200  -40.3900 C.3       5 GLY6        0.0000 
     52 CA         -5.5500   -9.0700  -39.7400 C.3       5 GLY6        0.0000 
     53 CA         -7.5300   -1.1100  -40.1500 C.3       5 GLY6        0.0000 
     54 CA         -7.4000   -2.4500  -39.5100 C.3       5 GLY6        0.0000 
     55 CA         -4.9800   -4.4600  -40.6800 C.3       5 GLY6        0.0000 
     56 CA         -3.5800   -7.4800  -40.3000 C.3       5 GLY6        0.0000 
     57 CA         -4.7200   -7.1500  -39.3900 C.3       5 GLY6        0.0000 
     58 CA         -3.4500   -8.8300  -39.6600 C.3       5 GLY6        0.0000 
     59 CA         -7.7100   -0.2100  -38.2400 C.3       5 GLY6        0.0000 
     60 CA         -7.5800   -1.5500  -37.5900 C.3       5 GLY6        0.0000 
     61 CA         -2.8800   -4.2100  -40.6000 C.3       5 GLY6        0.0000 
     62 CA         -4.0200   -3.8900  -39.6800 C.3       5 GLY6        0.0000 
     63 CA         -6.3100   -3.2300  -37.8600 C.3       5 GLY6        0.0000 
     64 CA         -3.8900   -5.2300  -39.0400 C.3       5 GLY6        0.0000 
     65 CA         -5.9200   -7.2700  -35.9200 C.3       5 GLY6        0.0000 
     66 CA         -1.7900   -4.9900  -38.9500 C.3       5 GLY6        0.0000 
     67 CA         -5.2200   -4.0100  -36.2100 C.3       5 GLY6        0.0000 
     68 CA         -5.0900   -5.3500  -35.5700 C.3       5 GLY6        0.0000 
     69 CA         -5.4000   -3.1100  -34.3000 C.3       5 GLY6        0.0000 
     70 CA         -5.2700   -4.4500  -33.6500 C.3       5 GLY6        0.0000 
     71 CA         -0.7500   -6.2100  -34.7400 C.3       5 GLY6        0.0000 
     72 CA         -1.9000   -5.8900  -33.8300 C.3       5 GLY6        0.0000 
     73 CA         -3.0400   -5.5600  -32.9200 C.3       5 GLY6        0.0000 
     74 CA         -0.9300   -5.3100  -32.8300 C.3       5 GLY6        0.0000 
     75 DU         -5.0400   -4.9100  -38.1300 H         6 CUB7        0.0000 
     76 DU         -3.7600   -6.5800  -38.3900 H         6 CUB7        0.0000 
     77 DU         -4.9100   -6.2500  -37.4800 H         6 CUB7        0.0000 
     78 DU         -1.6600   -6.3400  -38.3000 H         6 CUB7        0.0000 
@<TRIPOS>BOND
@<TRIPOS>SUBSTRUCTURE
     1 ALA2        1 GROUP   
     2 ASP3       27 GROUP   
     3 LYS4       33 GROUP   
     4 PHE5       39 GROUP   
     5 GLY6       49 GROUP   
     6 CUB7       75 GROUP   
@<TRIPOS>SET

