#    Name: 6g76_3_ANP
#    Modification time : Fri May 22 19:28:08 2020

@<TRIPOS>MOLECULE
6g76_3_ANP
   31    33     1     0     1
SMALL
NO_CHARGES


@<TRIPOS>ATOM
      1 PG        -24.6200   18.5510  -53.2070 P.3       1 ANP401      0.0000 
      2 O1G       -23.3740   19.0630  -54.0310 O.co2     1 ANP401      0.0000 
      3 O2G       -25.6720   19.7210  -53.0980 O.co2     1 ANP401      0.0000 
      4 O3G       -25.2580   17.3720  -53.8760 O.co2     1 ANP401      0.0000 
      5 PB        -23.1140   16.7000  -51.8170 P.3       1 ANP401      0.0000 
      6 O1B       -22.2590   16.6690  -53.1170 O.co2     1 ANP401      0.0000 
      7 O2B       -22.1880   16.6250  -50.6510 O.co2     1 ANP401      0.0000 
      8 N3B       -24.0290   18.1030  -51.6850 N.3       1 ANP401      0.0000 
      9 PA        -25.3290   15.4570  -50.8400 P.3       1 ANP401      0.0000 
     10 O1A       -26.3560   16.4510  -51.3830 O.co2     1 ANP401      0.0000 
     11 O2A       -24.9310   15.7100  -49.4380 O.co2     1 ANP401      0.0000 
     12 O3A       -24.0860   15.4850  -51.8310 O.3       1 ANP401      0.0000 
     13 O5'       -25.8330   13.9620  -50.9040 O.3       1 ANP401      0.0000 
     14 C5'       -24.9460   12.9520  -51.4040 C.3       1 ANP401      0.0000 
     15 C4'       -25.7380   11.6970  -51.6770 C.3       1 ANP401      0.0000 
     16 O4'       -25.4320   10.6950  -50.6910 O.3       1 ANP401      0.0000 
     17 C3'       -27.2580   11.8530  -51.7160 C.3       1 ANP401      0.0000 
     18 O3'       -27.7500   11.2720  -52.9150 O.3       1 ANP401      0.0000 
     19 C2'       -27.7760   11.0930  -50.4830 C.3       1 ANP401      0.0000 
     20 O2'       -28.6890   10.0610  -50.8360 O.3       1 ANP401      0.0000 
     21 C1'       -26.5320   10.4770  -49.8360 C.3       1 ANP401      0.0000 
     22 N9        -26.2150   11.0330  -48.5330 N.pl3     1 ANP401      0.0000 
     23 C8        -25.7220   12.2830  -48.2600 C.2       1 ANP401      0.0000 
     24 N7        -25.5280   12.5140  -46.9840 N.2       1 ANP401      0.0000 
     25 C5        -25.9210   11.3310  -46.3720 C.ar      1 ANP401      0.0000 
     26 C6        -25.9620   10.9270  -45.0210 C.ar      1 ANP401      0.0000 
     27 N6        -25.5820   11.7130  -44.0110 N.pl3     1 ANP401      0.0000 
     28 N1        -26.4120    9.6730  -44.7480 N.ar      1 ANP401      0.0000 
     29 C2        -26.7900    8.8940  -45.7690 C.ar      1 ANP401      0.0000 
     30 N3        -26.7940    9.1690  -47.0790 N.ar      1 ANP401      0.0000 
     31 C4        -26.3460   10.4100  -47.3140 C.ar      1 ANP401      0.0000 
@<TRIPOS>BOND
     1    1    2 ar   
     2    1    3 ar   
     3    1    4 ar   
     4    1    8 1    
     5    5    6 ar   
     6    5    7 ar   
     7    5    8 1    
     8    5   12 1    
     9    9   10 ar   
    10    9   11 ar   
    11    9   12 1    
    12    9   13 1    
    13   13   14 1    
    14   14   15 1    
    15   15   16 1    
    16   15   17 1    
    17   16   21 1    
    18   17   18 1    
    19   17   19 1    
    20   19   20 1    
    21   19   21 1    
    22   21   22 1    
    23   22   23 1    
    24   22   31 1    
    25   23   24 2    
    26   24   25 1    
    27   25   26 ar   
    28   25   31 ar   
    29   26   27 1    
    30   26   28 ar   
    31   28   29 ar   
    32   29   30 ar   
    33   30   31 ar   
@<TRIPOS>SUBSTRUCTURE
     1 ANP401      1 GROUP   
@<TRIPOS>SET
ATOM$ORANGE STATIC     ATOMS   COLORGROUP SYSTEM 
20 14 14 15 15 17 17 19 19 21 21 23 23 25 25 26 26 29 \
29 31 31 

