#    Name: 6g76_1_ANP
#    Modification time : Fri May 22 19:28:03 2020

@<TRIPOS>MOLECULE
6g76_1_ANP
   31    33     1     0     1
SMALL
NO_CHARGES


@<TRIPOS>ATOM
      1 PG         -6.4380    5.7500   -3.8170 P.3       1 ANP401      0.0000 
      2 O1G        -6.6000    4.5320   -4.6680 O.co2     1 ANP401      0.0000 
      3 O2G        -6.3010    5.2780   -2.3210 O.co2     1 ANP401      0.0000 
      4 O3G        -7.7190    6.6720   -3.9500 O.co2     1 ANP401      0.0000 
      5 PB         -4.8730    6.9360   -5.8880 P.3       1 ANP401      0.0000 
      6 O1B        -5.6510    5.9750   -6.7180 O.co2     1 ANP401      0.0000 
      7 O2B        -3.3780    6.7810   -6.2670 O.co2     1 ANP401      0.0000 
      8 N3B        -5.0390    6.6200   -4.2450 N.3       1 ANP401      0.0000 
      9 PA         -6.8170    8.5900   -6.7840 P.3       1 ANP401      0.0000 
     10 O1A        -6.8980    8.1560   -8.1990 O.co2     1 ANP401      0.0000 
     11 O2A        -7.7690    7.8220   -5.8690 O.co2     1 ANP401      0.0000 
     12 O3A        -5.3630    8.3860   -6.1850 O.3       1 ANP401      0.0000 
     13 O5'        -7.0640   10.1570   -6.7500 O.3       1 ANP401      0.0000 
     14 C5'        -6.9820   10.9100   -5.5280 C.3       1 ANP401      0.0000 
     15 C4'        -7.5360   12.2860   -5.8020 C.3       1 ANP401      0.0000 
     16 O4'        -6.9900   12.7630   -7.0420 O.3       1 ANP401      0.0000 
     17 C3'        -9.0600   12.3560   -5.8980 C.3       1 ANP401      0.0000 
     18 O3'        -9.5760   13.1800   -4.8610 O.3       1 ANP401      0.0000 
     19 C2'        -9.3580   12.9500   -7.2850 C.3       1 ANP401      0.0000 
     20 O2'       -10.1170   14.1520   -7.1940 O.3       1 ANP401      0.0000 
     21 C1'        -7.9910   13.2460   -7.9070 C.3       1 ANP401      0.0000 
     22 N9         -7.7910   12.6060   -9.1920 N.pl3     1 ANP401      0.0000 
     23 C8         -7.3800   11.3170   -9.4140 C.2       1 ANP401      0.0000 
     24 N7         -7.2750   11.0000  -10.6810 N.2       1 ANP401      0.0000 
     25 C5         -7.6410   12.1650  -11.3420 C.ar      1 ANP401      0.0000 
     26 C6         -7.7390   12.4900  -12.7110 C.ar      1 ANP401      0.0000 
     27 N6         -7.4650   11.6260  -13.6910 N.pl3     1 ANP401      0.0000 
     28 N1         -8.1340   13.7490  -13.0340 N.ar      1 ANP401      0.0000 
     29 C2         -8.4140   14.6050  -12.0440 C.ar      1 ANP401      0.0000 
     30 N3         -8.3520   14.4100  -10.7220 N.ar      1 ANP401      0.0000 
     31 C4         -7.9590   13.1620  -10.4370 C.ar      1 ANP401      0.0000 
@<TRIPOS>BOND
     1    1    2 ar   
     2    1    3 ar   
     3    1    4 ar   
     4    1    8 1    
     5    5    6 ar   
     6    5    7 ar   
     7    5    8 1    
     8    5   12 1    
     9    9   10 ar   
    10    9   11 ar   
    11    9   12 1    
    12    9   13 1    
    13   13   14 1    
    14   14   15 1    
    15   15   16 1    
    16   15   17 1    
    17   16   21 1    
    18   17   18 1    
    19   17   19 1    
    20   19   20 1    
    21   19   21 1    
    22   21   22 1    
    23   22   23 1    
    24   22   31 1    
    25   23   24 2    
    26   24   25 1    
    27   25   26 ar   
    28   25   31 ar   
    29   26   27 1    
    30   26   28 ar   
    31   28   29 ar   
    32   29   30 ar   
    33   30   31 ar   
@<TRIPOS>SUBSTRUCTURE
     1 ANP401      1 GROUP   
@<TRIPOS>SET
ATOM$ORANGE STATIC     ATOMS   COLORGROUP SYSTEM 
20 14 14 15 15 17 17 19 19 21 21 23 23 25 25 26 26 29 \
29 31 31 

