#    Name: 6fu7_2_PRT
#    Modification time : Fri May 22 19:26:19 2020

@<TRIPOS>MOLECULE
6fu7_2_PRT
   44    47     1     0     0
SMALL
NO_CHARGES


@<TRIPOS>ATOM
      1 O1G       -16.2870    2.6980   26.6080 O.co2     1 PRT301      0.0000 
      2 PG        -14.8980    3.4820   26.3640 P.3       1 PRT301      0.0000 
      3 O2G       -14.6150    4.3120   27.5520 O.co2     1 PRT301      0.0000 
      4 O3G       -13.8690    2.5250   25.8990 O.co2     1 PRT301      0.0000 
      5 O3B       -15.3090    4.4160   25.1050 O.3       1 PRT301      0.0000 
      6 PB        -15.0690    6.0110   25.0560 P.3       1 PRT301      0.0000 
      7 O1B       -13.7080    6.3390   25.5420 O.co2     1 PRT301      0.0000 
      8 O2B       -15.4900    6.4490   23.7090 O.co2     1 PRT301      0.0000 
      9 O3A       -16.2020    6.5370   26.1060 O.3       1 PRT301      0.0000 
     10 PA        -15.9800    7.2430   27.5620 P.3       1 PRT301      0.0000 
     11 O1A       -16.4840    6.2750   28.5560 O.co2     1 PRT301      0.0000 
     12 O2A       -14.6260    7.8130   27.7330 O.co2     1 PRT301      0.0000 
     13 O5'       -16.9900    8.5250   27.4930 O.3       1 PRT301      0.0000 
     14 C5'       -17.6740    8.8510   26.3040 C.3       1 PRT301      0.0000 
     15 C4'       -18.1920   10.2990   26.4460 C.3       1 PRT301      0.0000 
     16 O4'       -17.1020   11.2020   26.7650 O.3       1 PRT301      0.0000 
     17 C3'       -18.7780   10.7920   25.1190 C.3       1 PRT301      0.0000 
     18 O3'       -20.2000   10.6180   25.1300 O.3       1 PRT301      0.0000 
     19 C2'       -18.4080   12.2740   25.0350 C.3       1 PRT301      0.0000 
     20 O2'       -19.5100   13.1400   25.4120 O.3       1 PRT301      0.0000 
     21 C1'       -17.2490   12.4510   26.0230 C.3       1 PRT301      0.0000 
     22 N9        -15.9740   12.7910   25.3090 N.pl3     1 PRT301      0.0000 
     23 C8        -15.3400   13.9570   25.2240 C.2       1 PRT301      0.0000 
     24 C4        -15.2660   11.9020   24.6240 C.ar      1 PRT301      0.0000 
     25 C5        -14.1900   12.5190   24.1090 C.ar      1 PRT301      0.0000 
     26 N7        -14.2480   13.7950   24.4840 N.2       1 PRT301      0.0000 
     27 C6        -13.3020   11.8340   23.3680 C.ar      1 PRT301      0.0000 
     28 N6        -12.2730   12.5420   22.9060 N.pl3     1 PRT301      0.0000 
     29 N3        -15.4860   10.5960   24.4090 N.ar      1 PRT301      0.0000 
     30 C2        -14.5850    9.8570   23.6490 C.ar      1 PRT301      0.0000 
     31 N1        -13.4710   10.5120   23.1060 N.pl3     1 PRT301      0.0000 
     32 C11       -12.5130    9.6820   22.3260 C.3       1 PRT301      0.0000 
     33 C12       -12.3530   10.0170   20.8670 C.3       1 PRT301      0.0000 
     34 O12       -13.3730    9.3440   20.0960 O.3       1 PRT301      0.0000 
     35 C13       -10.9720    9.4170   20.6140 C.3       1 PRT301      0.0000 
     36 O13       -11.0240    7.9820   20.4920 O.3       1 PRT301      0.0000 
     37 O14       -11.2200    9.9000   22.9340 O.3       1 PRT301      0.0000 
     38 C14       -10.2100    9.7700   21.9090 C.3       1 PRT301      0.0000 
     39 C15        -9.4360   11.0850   21.9030 C.3       1 PRT301      0.0000 
     40 O15        -9.7380   11.7780   20.6940 O.3       1 PRT301      0.0000 
     41 P          -8.7140   12.8170   20.0980 P.3       1 PRT301      0.0000 
     42 O3P        -8.4910   13.7810   21.1950 O.co2     1 PRT301      0.0000 
     43 O1P        -7.5600   11.9850   19.6950 O.co2     1 PRT301      0.0000 
     44 O2P        -9.4680   13.3910   18.9610 O.co2     1 PRT301      0.0000 
@<TRIPOS>BOND
     1    1    2 ar   
     2    2    3 ar   
     3    2    4 ar   
     4    2    5 1    
     5    5    6 1    
     6    6    7 ar   
     7    6    8 ar   
     8    6    9 1    
     9    9   10 1    
    10   10   11 ar   
    11   10   12 ar   
    12   10   13 1    
    13   13   14 1    
    14   14   15 1    
    15   15   16 1    
    16   15   17 1    
    17   16   21 1    
    18   17   18 1    
    19   17   19 1    
    20   19   20 1    
    21   19   21 1    
    22   21   22 1    
    23   22   23 1    
    24   22   24 1    
    25   23   26 2    
    26   24   25 ar   
    27   24   29 ar   
    28   25   26 1    
    29   25   27 ar   
    30   27   28 1    
    31   27   31 ar   
    32   29   30 ar   
    33   30   31 ar   
    34   31   32 1    
    35   32   33 1    
    36   32   37 1    
    37   33   34 1    
    38   33   35 1    
    39   35   36 1    
    40   35   38 1    
    41   37   38 1    
    42   38   39 1    
    43   39   40 1    
    44   40   41 1    
    45   41   42 ar   
    46   41   43 ar   
    47   41   44 ar   
@<TRIPOS>SUBSTRUCTURE
     1 PRT301      1 GROUP   
@<TRIPOS>SET

