#    Name: 6fu7_1_PRT
#    Modification time : Fri May 22 19:26:12 2020

@<TRIPOS>MOLECULE
6fu7_1_PRT
   44    47     1     0     0
SMALL
NO_CHARGES


@<TRIPOS>ATOM
      1 O1G       -16.3090   -5.0230   28.5340 O.co2     1 PRT301      0.0000 
      2 PG        -16.3340   -5.4140   30.0960 P.3       1 PRT301      0.0000 
      3 O2G       -15.0620   -4.9770   30.7180 O.co2     1 PRT301      0.0000 
      4 O3G       -17.6150   -4.9470   30.6760 O.co2     1 PRT301      0.0000 
      5 O3B       -16.3340   -7.0440   30.0160 O.3       1 PRT301      0.0000 
      6 PB        -17.6920   -7.9470   29.9910 P.3       1 PRT301      0.0000 
      7 O1B       -17.9370   -8.4760   31.3540 O.co2     1 PRT301      0.0000 
      8 O2B       -18.7800   -7.2340   29.2700 O.co2     1 PRT301      0.0000 
      9 O3A       -17.2520   -9.1980   29.0950 O.3       1 PRT301      0.0000 
     10 PA        -16.4930   -8.9790   27.7070 P.3       1 PRT301      0.0000 
     11 O1A       -17.1420   -7.8830   26.9450 O.co2     1 PRT301      0.0000 
     12 O2A       -15.0440   -8.9150   27.9940 O.co2     1 PRT301      0.0000 
     13 O5'       -16.8430  -10.3780   26.9790 O.3       1 PRT301      0.0000 
     14 C5'       -18.1980  -10.6720   26.7230 C.3       1 PRT301      0.0000 
     15 C4'       -18.2660  -12.1610   26.3270 C.3       1 PRT301      0.0000 
     16 O4'       -17.5770  -12.9960   27.2870 O.3       1 PRT301      0.0000 
     17 C3'       -19.7180  -12.6450   26.3250 C.3       1 PRT301      0.0000 
     18 O3'       -20.3070  -12.4180   25.0300 O.3       1 PRT301      0.0000 
     19 C2'       -19.6150  -14.1340   26.6470 C.3       1 PRT301      0.0000 
     20 O2'       -19.5490  -14.9370   25.4550 O.3       1 PRT301      0.0000 
     21 C1'       -18.3050  -14.2590   27.4220 C.3       1 PRT301      0.0000 
     22 N9        -18.5370  -14.5320   28.8700 N.pl3     1 PRT301      0.0000 
     23 C8        -18.3980  -15.7010   29.4880 C.2       1 PRT301      0.0000 
     24 C4        -18.9120  -13.6320   29.7720 C.ar      1 PRT301      0.0000 
     25 C5        -19.0090  -14.2470   30.9590 C.ar      1 PRT301      0.0000 
     26 N7        -18.6920  -15.5250   30.7720 N.2       1 PRT301      0.0000 
     27 C6        -19.3770  -13.5670   32.0570 C.ar      1 PRT301      0.0000 
     28 N6        -19.4330  -14.2920   33.1750 N.pl3     1 PRT301      0.0000 
     29 N3        -19.1790  -12.3160   29.6450 N.ar      1 PRT301      0.0000 
     30 C2        -19.5630  -11.5710   30.7660 C.ar      1 PRT301      0.0000 
     31 N1        -19.6730  -12.2370   32.0020 N.pl3     1 PRT301      0.0000 
     32 C11       -20.0610  -11.4210   33.1890 C.3       1 PRT301      0.0000 
     33 C12       -21.3360  -11.8320   33.9050 C.3       1 PRT301      0.0000 
     34 O12       -22.4760  -11.1920   33.2960 O.3       1 PRT301      0.0000 
     35 C13       -21.0730  -11.2770   35.2830 C.3       1 PRT301      0.0000 
     36 O13       -21.3550   -9.8620   35.3290 O.3       1 PRT301      0.0000 
     37 O14       -18.9950  -11.5990   34.1380 O.3       1 PRT301      0.0000 
     38 C14       -19.5490  -11.4950   35.4620 C.3       1 PRT301      0.0000 
     39 C15       -19.1480  -12.7070   36.3010 C.3       1 PRT301      0.0000 
     40 O15       -20.1750  -13.7210   36.2710 O.3       1 PRT301      0.0000 
     41 P         -20.3330  -14.7840   37.4590 P.3       1 PRT301      0.0000 
     42 O3P       -21.0530  -15.9260   36.8610 O.co2     1 PRT301      0.0000 
     43 O1P       -18.9550  -15.0610   37.8880 O.co2     1 PRT301      0.0000 
     44 O2P       -21.1270  -14.0250   38.4520 O.co2     1 PRT301      0.0000 
@<TRIPOS>BOND
     1    1    2 ar   
     2    2    3 ar   
     3    2    4 ar   
     4    2    5 1    
     5    5    6 1    
     6    6    7 ar   
     7    6    8 ar   
     8    6    9 1    
     9    9   10 1    
    10   10   11 ar   
    11   10   12 ar   
    12   10   13 1    
    13   13   14 1    
    14   14   15 1    
    15   15   16 1    
    16   15   17 1    
    17   16   21 1    
    18   17   18 1    
    19   17   19 1    
    20   19   20 1    
    21   19   21 1    
    22   21   22 1    
    23   22   23 1    
    24   22   24 1    
    25   23   26 2    
    26   24   25 ar   
    27   24   29 ar   
    28   25   26 1    
    29   25   27 ar   
    30   27   28 1    
    31   27   31 ar   
    32   29   30 ar   
    33   30   31 ar   
    34   31   32 1    
    35   32   33 1    
    36   32   37 1    
    37   33   34 1    
    38   33   35 1    
    39   35   36 1    
    40   35   38 1    
    41   37   38 1    
    42   38   39 1    
    43   39   40 1    
    44   40   41 1    
    45   41   42 ar   
    46   41   43 ar   
    47   41   44 ar   
@<TRIPOS>SUBSTRUCTURE
     1 PRT301      1 GROUP   
@<TRIPOS>SET

