#    Name: 6h1b_1_AMP
#    Modification time : Fri May 22 19:23:46 2020

@<TRIPOS>MOLECULE
6h1b_1_AMP
   23    25     1     0     1
SMALL
NO_CHARGES


@<TRIPOS>ATOM
      1 P         -33.3940   23.4570   39.2870 P.3       1 AMP501      0.0000 
      2 O1P       -33.0930   22.5920   38.0600 O.co2     1 AMP501      0.0000 
      3 O2P       -34.7550   24.1790   39.2600 O.co2     1 AMP501      0.0000 
      4 O3P       -32.2190   24.3580   39.6870 O.co2     1 AMP501      0.0000 
      5 O5'       -33.4460   22.3400   40.4810 O.3       1 AMP501      0.0000 
      6 C5'       -32.3650   21.4020   40.4850 C.3       1 AMP501      0.0000 
      7 C4'       -32.3110   20.6810   41.8030 C.3       1 AMP501      0.0000 
      8 O4'       -33.6090   20.5370   42.4130 O.3       1 AMP501      0.0000 
      9 C3'       -31.8290   19.2630   41.6140 C.3       1 AMP501      0.0000 
     10 O3'       -30.4650   19.2840   41.2790 O.3       1 AMP501      0.0000 
     11 C2'       -32.1250   18.6760   42.9670 C.3       1 AMP501      0.0000 
     12 O2'       -31.0480   18.9280   43.8740 O.3       1 AMP501      0.0000 
     13 C1'       -33.3840   19.4720   43.3690 C.3       1 AMP501      0.0000 
     14 N9        -34.5060   18.5220   43.4450 N.pl3     1 AMP501      0.0000 
     15 C8        -35.5630   18.3600   42.6170 C.2       1 AMP501      0.0000 
     16 N7        -36.3960   17.3590   43.0130 N.2       1 AMP501      0.0000 
     17 C5        -35.8230   16.8850   44.1350 C.ar      1 AMP501      0.0000 
     18 C6        -36.1560   15.8150   45.0850 C.ar      1 AMP501      0.0000 
     19 N6        -37.2670   15.0920   44.8740 N.pl3     1 AMP501      0.0000 
     20 N1        -35.3000   15.6360   46.1290 N.ar      1 AMP501      0.0000 
     21 C2        -34.1570   16.4000   46.3010 C.ar      1 AMP501      0.0000 
     22 N3        -33.7550   17.3920   45.4960 N.ar      1 AMP501      0.0000 
     23 C4        -34.5630   17.6420   44.4170 C.ar      1 AMP501      0.0000 
@<TRIPOS>BOND
     1    1    2 ar   
     2    1    3 ar   
     3    1    4 ar   
     4    1    5 1    
     5    5    6 1    
     6    6    7 1    
     7    7    8 1    
     8    7    9 1    
     9    8   13 1    
    10    9   10 1    
    11    9   11 1    
    12   11   12 1    
    13   11   13 1    
    14   13   14 1    
    15   14   15 1    
    16   14   23 1    
    17   15   16 2    
    18   16   17 1    
    19   17   18 ar   
    20   17   23 ar   
    21   18   19 1    
    22   18   20 ar   
    23   20   21 ar   
    24   21   22 ar   
    25   22   23 ar   
@<TRIPOS>SUBSTRUCTURE
     1 AMP501      1 GROUP   
@<TRIPOS>SET
ATOM$ORANGE STATIC     ATOMS   COLORGROUP SYSTEM 
20 6 6 7 7 9 9 11 11 13 13 15 15 17 17 18 18 21 \
21 23 23 

