#    Name: 6h1b_1_AMP_CAVITY_N1_4
#    Modification time : Fri May 22 19:23:47 2020

@<TRIPOS>MOLECULE
6h1b_1_AMP_CAVITY_N1_4
   59     0     6     0     0
SMALL
NO_CHARGES


@<TRIPOS>ATOM
      1 N         -32.6600   20.5700   40.2900 N.am      1 ALA2        0.0000 
      2 N         -33.8800   21.4100   40.5200 N.am      1 ALA2        0.0000 
      3 N         -33.3300   19.4100   40.9600 N.am      1 ALA2        0.0000 
      4 N         -33.3400   21.8500   41.8500 N.am      1 ALA2        0.0000 
      5 N         -32.7900   19.8400   42.2800 N.am      1 ALA2        0.0000 
      6 N         -34.0100   20.6800   42.5100 N.am      1 ALA2        0.0000 
      7 N         -33.4600   18.6800   42.9400 N.am      1 ALA2        0.0000 
      8 N         -34.6900   19.5200   43.1700 N.am      1 ALA2        0.0000 
      9 N         -36.0400   17.1900   44.4900 N.am      1 ALA2        0.0000 
     10 N         -36.7200   16.0200   45.1500 N.am      1 ALA2        0.0000 
     11 N         -32.7900   22.2800   43.1700 N.am      1 ALA2        0.0000 
     12 N         -33.4700   21.1200   43.8400 N.am      1 ALA2        0.0000 
     13 N         -34.1400   19.9500   44.5000 N.am      1 ALA2        0.0000 
     14 N         -35.6200   14.4600   46.9200 N.am      1 ALA2        0.0000 
     15 N         -35.7600   13.7300   48.9000 N.am      1 ALA2        0.0000 
     16 O         -34.5400   15.3300   49.5700 O.2       1 ALA2        0.0000 
     17 OD1       -31.9800   21.7300   39.6300 O.co2     2 ASP3        0.0000 
     18 OD1       -31.4300   19.7300   40.0700 O.co2     2 ASP3        0.0000 
     19 OD1       -31.4400   22.1700   40.9600 O.co2     2 ASP3        0.0000 
     20 OD1       -32.1100   21.0100   41.6200 O.co2     2 ASP3        0.0000 
     21 OD1       -31.5700   21.4500   42.9500 O.co2     2 ASP3        0.0000 
     22 OD1       -32.2400   20.2800   43.6100 O.co2     2 ASP3        0.0000 
     23 OD1       -31.7000   18.2800   44.0500 O.co2     2 ASP3        0.0000 
     24 OD1       -32.9200   19.1200   44.2700 O.co2     2 ASP3        0.0000 
     25 OD1       -33.6000   17.9500   44.9300 O.co2     2 ASP3        0.0000 
     26 OD1       -31.7000   20.7200   44.9400 O.co2     2 ASP3        0.0000 
     27 OD1       -33.0500   18.3900   46.2600 O.co2     2 ASP3        0.0000 
     28 OD1       -33.1800   15.2200   47.3600 O.co2     2 ASP3        0.0000 
     29 OD1       -31.1600   21.1600   46.2700 O.co2     2 ASP3        0.0000 
     30 OD1       -33.3100   14.5000   49.3500 O.co2     2 ASP3        0.0000 
     31 NZ        -32.2400   17.8400   42.7200 N.4       3 LYS4        0.0000 
     32 NZ        -31.0200   19.4400   43.3900 N.4       3 LYS4        0.0000 
     33 CZ        -32.9200   16.6800   43.3800 C.ar      4 PHE5        0.0000 
     34 CZ        -34.1400   17.5100   43.6100 C.ar      4 PHE5        0.0000 
     35 CZ        -34.8200   16.3500   44.2700 C.ar      4 PHE5        0.0000 
     36 CA        -32.5200   21.3000   38.3100 C.3       5 GLY6        0.0000 
     37 CA        -35.3600   18.3500   43.8300 C.3       5 GLY6        0.0000 
     38 CA        -33.5900   15.5100   44.0400 C.3       5 GLY6        0.0000 
     39 CA        -35.4900   15.1900   44.9300 C.3       5 GLY6        0.0000 
     40 CA        -32.3700   17.1100   44.7100 C.3       5 GLY6        0.0000 
     41 CA        -34.8200   18.7900   45.1600 C.3       5 GLY6        0.0000 
     42 CA        -34.2700   16.7900   45.5900 C.3       5 GLY6        0.0000 
     43 CA        -34.9500   15.6200   46.2600 C.3       5 GLY6        0.0000 
     44 CA        -30.3500   23.0500   43.6200 C.3       5 GLY6        0.0000 
     45 CA        -31.0200   21.8800   44.2800 C.3       5 GLY6        0.0000 
     46 CA        -33.4700   23.5600   44.7300 C.3       5 GLY6        0.0000 
     47 CA        -32.9200   21.5600   45.1600 C.3       5 GLY6        0.0000 
     48 CA        -34.1500   22.3900   45.3900 C.3       5 GLY6        0.0000 
     49 CA        -33.6000   20.3900   45.8200 C.3       5 GLY6        0.0000 
     50 CA        -33.7300   17.2300   46.9200 C.3       5 GLY6        0.0000 
     51 CA        -34.4000   16.0600   47.5800 C.3       5 GLY6        0.0000 
     52 CA        -35.0800   14.9000   48.2400 C.3       5 GLY6        0.0000 
     53 CA        -30.4800   22.3200   45.6000 C.3       5 GLY6        0.0000 
     54 DU        -33.2000   22.5700   39.8600 H         6 CUB7        0.0000 
     55 DU        -32.6600   23.0100   41.1900 H         6 CUB7        0.0000 
     56 DU        -32.1200   23.4500   42.5100 H         6 CUB7        0.0000 
     57 DU        -30.9000   25.0500   43.1800 H         6 CUB7        0.0000 
     58 DU        -31.5700   23.8900   43.8400 H         6 CUB7        0.0000 
     59 DU        -32.2500   22.7200   44.5000 H         6 CUB7        0.0000 
@<TRIPOS>BOND
@<TRIPOS>SUBSTRUCTURE
     1 ALA2        1 GROUP   
     2 ASP3       17 GROUP   
     3 LYS4       31 GROUP   
     4 PHE5       33 GROUP   
     5 GLY6       36 GROUP   
     6 CUB7       54 GROUP   
@<TRIPOS>SET

