#    Name: 6h1b_3_AMP
#    Modification time : Fri May 22 19:24:00 2020

@<TRIPOS>MOLECULE
6h1b_3_AMP
   23    25     1     0     1
SMALL
NO_CHARGES


@<TRIPOS>ATOM
      1 P         -52.1590   -5.1000   84.9440 P.3       1 AMP501      0.0000 
      2 O1P       -52.4620   -4.6170   83.5040 O.co2     1 AMP501      0.0000 
      3 O2P       -52.7180   -4.1680   86.0030 O.co2     1 AMP501      0.0000 
      4 O3P       -52.4550   -6.5810   85.2180 O.co2     1 AMP501      0.0000 
      5 O5'       -50.5230   -5.0780   85.0330 O.3       1 AMP501      0.0000 
      6 C5'       -49.7690   -4.1190   84.2870 C.3       1 AMP501      0.0000 
      7 C4'       -49.2200   -4.6590   83.0090 C.3       1 AMP501      0.0000 
      8 O4'       -49.5830   -3.6930   82.0460 O.3       1 AMP501      0.0000 
      9 C3'       -47.7000   -4.6540   82.9950 C.3       1 AMP501      0.0000 
     10 O3'       -47.1220   -5.9240   83.2620 O.3       1 AMP501      0.0000 
     11 C2'       -47.2740   -4.2660   81.6020 C.3       1 AMP501      0.0000 
     12 O2'       -47.0270   -5.4260   80.7940 O.3       1 AMP501      0.0000 
     13 C1'       -48.4690   -3.4610   81.1300 C.3       1 AMP501      0.0000 
     14 N9        -48.0070   -2.0590   81.1530 N.pl3     1 AMP501      0.0000 
     15 C8        -48.2500   -1.1240   82.1220 C.2       1 AMP501      0.0000 
     16 N7        -47.6510    0.0740   81.8140 N.2       1 AMP501      0.0000 
     17 C5        -46.9850   -0.1220   80.6320 C.ar      1 AMP501      0.0000 
     18 C6        -46.1100    0.6660   79.7200 C.ar      1 AMP501      0.0000 
     19 N6        -45.8170    1.9590   79.9950 N.pl3     1 AMP501      0.0000 
     20 N1        -45.6000    0.0570   78.6100 N.ar      1 AMP501      0.0000 
     21 C2        -45.8420   -1.2230   78.3040 C.ar      1 AMP501      0.0000 
     22 N3        -46.6390   -2.0000   79.0920 N.ar      1 AMP501      0.0000 
     23 C4        -47.2190   -1.5300   80.2250 C.ar      1 AMP501      0.0000 
@<TRIPOS>BOND
     1    1    2 ar   
     2    1    3 ar   
     3    1    4 ar   
     4    1    5 1    
     5    5    6 1    
     6    6    7 1    
     7    7    8 1    
     8    7    9 1    
     9    8   13 1    
    10    9   10 1    
    11    9   11 1    
    12   11   12 1    
    13   11   13 1    
    14   13   14 1    
    15   14   15 1    
    16   14   23 1    
    17   15   16 2    
    18   16   17 1    
    19   17   18 ar   
    20   17   23 ar   
    21   18   19 1    
    22   18   20 ar   
    23   20   21 ar   
    24   21   22 ar   
    25   22   23 ar   
@<TRIPOS>SUBSTRUCTURE
     1 AMP501      1 GROUP   
@<TRIPOS>SET
ATOM$ORANGE STATIC     ATOMS   COLORGROUP SYSTEM 
20 6 6 7 7 9 9 11 11 13 13 15 15 17 17 18 18 21 \
21 23 23 

