#    Name: 6h1b_4_AMP
#    Modification time : Fri May 22 19:24:07 2020

@<TRIPOS>MOLECULE
6h1b_4_AMP
   23    25     1     0     1
SMALL
NO_CHARGES


@<TRIPOS>ATOM
      1 P         -54.1310   -4.6990   -8.9910 P.3       1 AMP501      0.0000 
      2 O1P       -53.4110   -4.2760  -10.2870 O.co2     1 AMP501      0.0000 
      3 O2P       -54.6990   -3.4940   -8.2200 O.co2     1 AMP501      0.0000 
      4 O3P       -55.0060   -5.9730   -9.1970 O.co2     1 AMP501      0.0000 
      5 O5'       -53.0780   -5.2890   -7.8740 O.3       1 AMP501      0.0000 
      6 C5'       -51.7560   -4.7970   -8.0520 C.3       1 AMP501      0.0000 
      7 C4'       -51.2890   -4.1350   -6.7950 C.3       1 AMP501      0.0000 
      8 O4'       -51.1100   -5.1240   -5.7700 O.3       1 AMP501      0.0000 
      9 C3'       -49.9530   -3.4530   -7.0020 C.3       1 AMP501      0.0000 
     10 O3'       -50.1910   -2.1690   -7.5480 O.3       1 AMP501      0.0000 
     11 C2'       -49.2820   -3.5100   -5.6300 C.3       1 AMP501      0.0000 
     12 O2'       -49.4680   -2.3630   -4.7590 O.3       1 AMP501      0.0000 
     13 C1'       -49.9290   -4.7630   -5.0400 C.3       1 AMP501      0.0000 
     14 N9        -49.0490   -5.9200   -5.1340 N.pl3     1 AMP501      0.0000 
     15 C8        -49.1120   -6.8970   -6.0770 C.2       1 AMP501      0.0000 
     16 N7        -48.1300   -7.8130   -5.8650 N.2       1 AMP501      0.0000 
     17 C5        -47.4780   -7.3810   -4.7530 C.ar      1 AMP501      0.0000 
     18 C6        -46.3590   -7.8800   -3.9840 C.ar      1 AMP501      0.0000 
     19 N6        -45.8010   -9.0250   -4.3970 N.pl3     1 AMP501      0.0000 
     20 N1        -45.9300   -7.1850   -2.9180 N.ar      1 AMP501      0.0000 
     21 C2        -46.5560   -6.0220   -2.5540 C.ar      1 AMP501      0.0000 
     22 N3        -47.6070   -5.4900   -3.2210 N.ar      1 AMP501      0.0000 
     23 C4        -48.0780   -6.1360   -4.2870 C.ar      1 AMP501      0.0000 
@<TRIPOS>BOND
     1    1    2 ar   
     2    1    3 ar   
     3    1    4 ar   
     4    1    5 1    
     5    5    6 1    
     6    6    7 1    
     7    7    8 1    
     8    7    9 1    
     9    8   13 1    
    10    9   10 1    
    11    9   11 1    
    12   11   12 1    
    13   11   13 1    
    14   13   14 1    
    15   14   15 1    
    16   14   23 1    
    17   15   16 2    
    18   16   17 1    
    19   17   18 ar   
    20   17   23 ar   
    21   18   19 1    
    22   18   20 ar   
    23   20   21 ar   
    24   21   22 ar   
    25   22   23 ar   
@<TRIPOS>SUBSTRUCTURE
     1 AMP501      1 GROUP   
@<TRIPOS>SET
ATOM$ORANGE STATIC     ATOMS   COLORGROUP SYSTEM 
20 6 6 7 7 9 9 11 11 13 13 15 15 17 17 18 18 21 \
21 23 23 

