#    Name: 6h1b_2_AMP
#    Modification time : Fri May 22 19:23:53 2020

@<TRIPOS>MOLECULE
6h1b_2_AMP
   23    25     1     0     1
SMALL
NO_CHARGES


@<TRIPOS>ATOM
      1 P         -24.5080  -24.1420   35.8040 P.3       1 AMP501      0.0000 
      2 O1P       -23.1440  -24.6620   35.2720 O.co2     1 AMP501      0.0000 
      3 O2P       -24.4280  -23.3510   37.1310 O.co2     1 AMP501      0.0000 
      4 O3P       -25.6200  -25.2150   35.7070 O.co2     1 AMP501      0.0000 
      5 O5'       -25.0360  -22.9470   34.7730 O.3       1 AMP501      0.0000 
      6 C5'       -24.6500  -21.5600   34.8600 C.3       1 AMP501      0.0000 
      7 C4'       -24.7580  -20.9200   33.4880 C.3       1 AMP501      0.0000 
      8 O4'       -25.9260  -21.3700   32.8130 O.3       1 AMP501      0.0000 
      9 C3'       -24.8330  -19.4040   33.5230 C.3       1 AMP501      0.0000 
     10 O3'       -23.5330  -18.8280   33.5260 O.3       1 AMP501      0.0000 
     11 C2'       -25.4660  -19.0870   32.2150 C.3       1 AMP501      0.0000 
     12 O2'       -24.4860  -18.8460   31.1920 O.3       1 AMP501      0.0000 
     13 C1'       -26.2460  -20.3530   31.8830 C.3       1 AMP501      0.0000 
     14 N9        -27.6530  -19.9570   31.9560 N.pl3     1 AMP501      0.0000 
     15 C8        -28.5590  -20.2500   32.8670 C.2       1 AMP501      0.0000 
     16 N7        -29.7240  -19.6420   32.5360 N.2       1 AMP501      0.0000 
     17 C5        -29.5690  -18.9570   31.4060 C.ar      1 AMP501      0.0000 
     18 C6        -30.3770  -18.1000   30.5120 C.ar      1 AMP501      0.0000 
     19 N6        -31.6800  -17.8560   30.7590 N.pl3     1 AMP501      0.0000 
     20 N1        -29.8020  -17.5500   29.4140 N.ar      1 AMP501      0.0000 
     21 C2        -28.5010  -17.7830   29.1330 C.ar      1 AMP501      0.0000 
     22 N3        -27.7070  -18.5600   29.9190 N.ar      1 AMP501      0.0000 
     23 C4        -28.1880  -19.1680   31.0340 C.ar      1 AMP501      0.0000 
@<TRIPOS>BOND
     1    1    2 ar   
     2    1    3 ar   
     3    1    4 ar   
     4    1    5 1    
     5    5    6 1    
     6    6    7 1    
     7    7    8 1    
     8    7    9 1    
     9    8   13 1    
    10    9   10 1    
    11    9   11 1    
    12   11   12 1    
    13   11   13 1    
    14   13   14 1    
    15   14   15 1    
    16   14   23 1    
    17   15   16 2    
    18   16   17 1    
    19   17   18 ar   
    20   17   23 ar   
    21   18   19 1    
    22   18   20 ar   
    23   20   21 ar   
    24   21   22 ar   
    25   22   23 ar   
@<TRIPOS>SUBSTRUCTURE
     1 AMP501      1 GROUP   
@<TRIPOS>SET
ATOM$ORANGE STATIC     ATOMS   COLORGROUP SYSTEM 
20 6 6 7 7 9 9 11 11 13 13 15 15 17 17 18 18 21 \
21 23 23 

