#    Name: 6h1b_5_AMP_CAVITY_N1_4
#    Modification time : Fri May 22 19:24:16 2020

@<TRIPOS>MOLECULE
6h1b_5_AMP_CAVITY_N1_4
   61     0     6     0     0
SMALL
NO_CHARGES


@<TRIPOS>ATOM
      1 N         -96.7500   -2.1400   16.4400 N.am      1 ALA2        0.0000 
      2 N         -96.8800   -0.4300   19.3200 N.am      1 ALA2        0.0000 
      3 O         -92.6700   -4.9500   19.0800 O.2       1 ALA2        0.0000 
      4 N         -85.8800   -5.5300   18.1800 N.am      1 ALA2        0.0000 
      5 N         -87.7800   -5.8600   19.0700 N.am      1 ALA2        0.0000 
      6 N         -89.0000   -5.0200   19.2900 N.am      1 ALA2        0.0000 
      7 N         -90.2200   -4.1800   19.5200 N.am      1 ALA2        0.0000 
      8 N         -92.6700   -2.5100   19.9700 N.am      1 ALA2        0.0000 
      9 N         -95.1200   -0.8300   20.4200 N.am      1 ALA2        0.0000 
     10 O         -88.4500   -7.0200   19.7300 O.2       1 ALA2        0.0000 
     11 N         -90.9000   -5.3500   20.1800 N.am      1 ALA2        0.0000 
     12 N         -95.7900   -1.9900   21.0800 N.am      1 ALA2        0.0000 
     13 N         -84.1100   -5.9300   19.2800 N.am      1 ALA2        0.0000 
     14 N         -86.5600   -4.2600   19.7300 N.am      1 ALA2        0.0000 
     15 N         -86.0100   -6.2600   20.1700 N.am      1 ALA2        0.0000 
     16 N         -87.2300   -5.4200   20.3900 N.am      1 ALA2        0.0000 
     17 N         -88.4600   -4.5800   20.6200 N.am      1 ALA2        0.0000 
     18 N         -89.6800   -3.7400   20.8400 N.am      1 ALA2        0.0000 
     19 N         -93.3500   -1.2300   21.5200 N.am      1 ALA2        0.0000 
     20 N         -92.8000   -3.2300   21.9600 N.am      1 ALA2        0.0000 
     21 N         -94.0200   -2.3900   22.1800 N.am      1 ALA2        0.0000 
     22 OD1       -91.8600   -5.5000   15.5300 O.co2     2 ASP3        0.0000 
     23 NZ        -91.1800   -4.3300   14.8700 N.4       3 LYS4        0.0000 
     24 NZ        -90.6400   -3.8900   16.2000 N.4       3 LYS4        0.0000 
     25 NZ        -87.6400   -5.1300   17.0800 N.4       3 LYS4        0.0000 
     26 NZ        -88.8700   -4.2900   17.3000 N.4       3 LYS4        0.0000 
     27 NZ        -90.0900   -3.4600   17.5300 N.4       3 LYS4        0.0000 
     28 NZ        -88.3200   -3.8600   18.6300 N.4       3 LYS4        0.0000 
     29 CZ        -89.5500   -3.0200   18.8600 C.ar      4 PHE5        0.0000 
     30 CZ        -91.9900   -1.3400   19.3100 C.ar      4 PHE5        0.0000 
     31 CZ        -91.4500   -3.3400   19.7400 C.ar      4 PHE5        0.0000 
     32 CZ        -90.9000   -2.9100   21.0700 C.ar      4 PHE5        0.0000 
     33 CZ        -92.1300   -2.0700   21.3000 C.ar      4 PHE5        0.0000 
     34 CA        -92.4000   -3.4900   15.1000 C.3       5 GLY6        0.0000 
     35 CA        -93.0800   -4.6600   15.7600 C.3       5 GLY6        0.0000 
     36 CA        -94.3000   -3.8200   15.9900 C.3       5 GLY6        0.0000 
     37 CA        -95.5300   -2.9800   16.2100 C.3       5 GLY6        0.0000 
     38 CA        -91.8600   -3.0600   16.4300 C.3       5 GLY6        0.0000 
     39 CA        -95.5300   -0.5400   17.1000 C.3       5 GLY6        0.0000 
     40 CA        -90.0900   -5.9000   16.6400 C.3       5 GLY6        0.0000 
     41 CA        -91.3100   -5.0600   16.8600 C.3       5 GLY6        0.0000 
     42 CA        -92.5400   -4.2200   17.0900 C.3       5 GLY6        0.0000 
     43 CA        -93.7600   -3.3800   17.3100 C.3       5 GLY6        0.0000 
     44 CA        -94.9800   -2.5400   17.5400 C.3       5 GLY6        0.0000 
     45 CA        -96.2100   -1.7100   17.7600 C.3       5 GLY6        0.0000 
     46 CA        -91.9900   -6.2200   17.5200 C.3       5 GLY6        0.0000 
     47 CA        -96.8800   -2.8700   18.4200 C.3       5 GLY6        0.0000 
     48 CA        -91.3100   -2.6200   17.7500 C.3       5 GLY6        0.0000 
     49 CA        -89.5400   -5.4600   17.9600 C.3       5 GLY6        0.0000 
     50 CA        -90.7700   -4.6200   18.1900 C.3       5 GLY6        0.0000 
     51 CA        -91.9900   -3.7800   18.4200 C.3       5 GLY6        0.0000 
     52 CA        -93.2100   -2.9400   18.6400 C.3       5 GLY6        0.0000 
     53 CA        -94.4400   -2.1100   18.8700 C.3       5 GLY6        0.0000 
     54 CA        -95.6600   -1.2700   19.0900 C.3       5 GLY6        0.0000 
     55 CA        -91.4400   -5.7800   18.8500 C.3       5 GLY6        0.0000 
     56 CA        -96.3400   -2.4300   19.7500 C.3       5 GLY6        0.0000 
     57 CA        -85.2000   -4.3700   17.5200 C.3       5 GLY6        0.0000 
     58 CA        -93.8900   -1.6700   20.1900 C.3       5 GLY6        0.0000 
     59 CA        -92.1200   -4.5100   20.4000 C.3       5 GLY6        0.0000 
     60 CA        -85.3300   -5.0900   19.5100 C.3       5 GLY6        0.0000 
     61 DU        -87.1000   -4.6900   18.4100 H         6 CUB7        0.0000 
@<TRIPOS>BOND
@<TRIPOS>SUBSTRUCTURE
     1 ALA2        1 GROUP   
     2 ASP3       22 GROUP   
     3 LYS4       23 GROUP   
     4 PHE5       29 GROUP   
     5 GLY6       34 GROUP   
     6 CUB7       61 GROUP   
@<TRIPOS>SET

