#    Name: 6h1b_4_AMP_CAVITY_N1_4
#    Modification time : Fri May 22 19:24:08 2020

@<TRIPOS>MOLECULE
6h1b_4_AMP_CAVITY_N1_4
   86     0     7     0     0
SMALL
NO_CHARGES


@<TRIPOS>ATOM
      1 OG        -55.2300   -1.2700  -11.0500 O.3       1 SER1        0.0000 
      2 OG        -54.6900   -3.2700  -10.6100 O.3       1 SER1        0.0000 
      3 OG        -55.3600   -4.4400   -9.9500 O.3       1 SER1        0.0000 
      4 OG        -55.3700   -2.0000   -9.0600 O.3       1 SER1        0.0000 
      5 O         -52.7900   -2.9500  -11.5000 O.2       2 ALA2        0.0000 
      6 O         -53.4600   -4.1100  -10.8300 O.2       2 ALA2        0.0000 
      7 N         -51.1500   -4.0700   -8.4100 N.am      2 ALA2        0.0000 
      8 N         -51.8300   -5.2400   -7.7400 N.am      2 ALA2        0.0000 
      9 N         -53.7300   -5.5600   -6.8600 N.am      2 ALA2        0.0000 
     10 N         -54.4000   -6.7300   -6.2000 N.am      2 ALA2        0.0000 
     11 N         -49.3800   -4.4700   -7.3000 N.am      2 ALA2        0.0000 
     12 N         -48.8400   -6.4800   -6.8700 N.am      2 ALA2        0.0000 
     13 N         -50.0600   -5.6400   -6.6400 N.am      2 ALA2        0.0000 
     14 N         -51.2800   -4.8000   -6.4200 N.am      2 ALA2        0.0000 
     15 N         -53.1800   -5.1300   -5.5300 N.am      2 ALA2        0.0000 
     16 N         -53.8600   -6.2900   -4.8700 N.am      2 ALA2        0.0000 
     17 N         -49.5200   -5.2000   -5.3100 N.am      2 ALA2        0.0000 
     18 N         -50.7400   -4.3600   -5.0900 N.am      2 ALA2        0.0000 
     19 O         -47.7400   -8.0400   -5.1000 O.2       2 ALA2        0.0000 
     20 O         -48.9700   -7.2000   -4.8800 O.2       2 ALA2        0.0000 
     21 N         -51.4100   -5.5300   -4.4300 N.am      2 ALA2        0.0000 
     22 N         -52.6400   -4.6900   -4.2000 N.am      2 ALA2        0.0000 
     23 N         -47.2000   -7.6000   -3.7800 N.am      2 ALA2        0.0000 
     24 N         -46.6600   -7.1700   -2.4500 N.am      2 ALA2        0.0000 
     25 OD1       -53.4700   -1.6700   -9.9400 O.co2     3 ASP3        0.0000 
     26 OD1       -54.6900   -0.8300   -9.7200 O.co2     3 ASP3        0.0000 
     27 OD1       -54.1400   -2.8300   -9.2800 O.co2     3 ASP3        0.0000 
     28 OD1       -55.3700    0.4400   -8.1700 O.co2     3 ASP3        0.0000 
     29 OD1       -52.3700   -3.2400   -8.1800 O.co2     3 ASP3        0.0000 
     30 OD1       -53.6000   -2.4000   -7.9500 O.co2     3 ASP3        0.0000 
     31 OD1       -54.8200   -1.5600   -7.7300 O.co2     3 ASP3        0.0000 
     32 OD1       -50.6100   -3.6400   -7.0800 O.co2     3 ASP3        0.0000 
     33 OD1       -51.8300   -2.8000   -6.8500 O.co2     3 ASP3        0.0000 
     34 OD1       -53.0500   -1.9600   -6.6300 O.co2     3 ASP3        0.0000 
     35 OD1       -54.2800   -1.1200   -6.4000 O.co2     3 ASP3        0.0000 
     36 OD1       -49.5200   -2.7600   -4.4200 O.co2     3 ASP3        0.0000 
     37 OD1       -48.9700   -4.7600   -3.9900 O.co2     3 ASP3        0.0000 
     38 OD1       -50.1900   -3.9200   -3.7600 O.co2     3 ASP3        0.0000 
     39 OD1       -51.4200   -3.0900   -3.5400 O.co2     3 ASP3        0.0000 
     40 OD1       -47.2000   -5.1600   -2.8800 O.co2     3 ASP3        0.0000 
     41 OD1       -52.1000   -1.8100   -1.9800 O.co2     3 ASP3        0.0000 
     42 NZ        -54.0100   -2.1100  -11.2700 N.4       4 LYS4        0.0000 
     43 NZ        -50.0600   -3.2000   -5.7500 N.4       4 LYS4        0.0000 
     44 CZ        -48.8400   -4.0400   -5.9800 C.ar      5 PHE5        0.0000 
     45 CZ        -47.0700   -6.8800   -5.7600 C.ar      5 PHE5        0.0000 
     46 CZ        -48.2900   -6.0400   -5.5400 C.ar      5 PHE5        0.0000 
     47 CZ        -46.5200   -6.4400   -4.4400 C.ar      5 PHE5        0.0000 
     48 CA        -54.1400   -5.2800  -10.1700 C.3       6 GLY6        0.0000 
     49 CA        -52.2400   -2.5100  -10.1700 C.3       6 GLY6        0.0000 
     50 CA        -51.7000   -4.5100   -9.7300 C.3       6 GLY6        0.0000 
     51 CA        -52.9200   -3.6700   -9.5100 C.3       6 GLY6        0.0000 
     52 CA        -55.6300   -5.8900   -5.9700 C.3       6 GLY6        0.0000 
     53 CA        -56.8500   -5.0500   -5.7500 C.3       6 GLY6        0.0000 
     54 CA        -55.0800   -5.4500   -4.6400 C.3       6 GLY6        0.0000 
     55 CA        -51.2900   -2.3600   -5.5200 C.3       6 GLY6        0.0000 
     56 CA        -53.1900   -2.6900   -4.6400 C.3       6 GLY6        0.0000 
     57 CA        -53.8600   -3.8500   -3.9800 C.3       6 GLY6        0.0000 
     58 CA        -53.3100   -5.8500   -3.5400 C.3       6 GLY6        0.0000 
     59 CA        -47.0700   -4.4400   -4.8700 C.3       6 GLY6        0.0000 
     60 CA        -48.3000   -3.6000   -4.6500 C.3       6 GLY6        0.0000 
     61 CA        -47.7500   -5.6000   -4.2100 C.3       6 GLY6        0.0000 
     62 CA        -52.6400   -2.2500   -3.3100 C.3       6 GLY6        0.0000 
     63 CA        -48.4200   -6.7700   -3.5500 C.3       6 GLY6        0.0000 
     64 CA        -49.6500   -5.9300   -3.3300 C.3       6 GLY6        0.0000 
     65 CA        -50.8700   -5.0900   -3.1000 C.3       6 GLY6        0.0000 
     66 CA        -52.0900   -4.2500   -2.8800 C.3       6 GLY6        0.0000 
     67 CA        -52.7700   -5.4200   -2.2100 C.3       6 GLY6        0.0000 
     68 CA        -45.9800   -6.0000   -3.1100 C.3       6 GLY6        0.0000 
     69 CA        -47.8800   -6.3300   -2.2200 C.3       6 GLY6        0.0000 
     70 CA        -51.5500   -3.8100   -1.5500 C.3       6 GLY6        0.0000 
     71 DU        -53.6000   -4.8400   -8.8500 H         7 CUB7        0.0000 
     72 DU        -54.8200   -4.0000   -8.6200 H         7 CUB7        0.0000 
     73 DU        -54.2700   -6.0000   -8.1800 H         7 CUB7        0.0000 
     74 DU        -55.4900   -5.1600   -7.9600 H         7 CUB7        0.0000 
     75 DU        -53.0500   -4.4000   -7.5200 H         7 CUB7        0.0000 
     76 DU        -54.2700   -3.5600   -7.2900 H         7 CUB7        0.0000 
     77 DU        -55.5000   -2.7200   -7.0700 H         7 CUB7        0.0000 
     78 DU        -54.9500   -4.7300   -6.6300 H         7 CUB7        0.0000 
     79 DU        -56.1700   -3.8900   -6.4100 H         7 CUB7        0.0000 
     80 DU        -52.5100   -3.9600   -6.1900 H         7 CUB7        0.0000 
     81 DU        -53.7300   -3.1200   -5.9700 H         7 CUB7        0.0000 
     82 DU        -54.9500   -2.2900   -5.7400 H         7 CUB7        0.0000 
     83 DU        -56.1800   -1.4500   -5.5200 H         7 CUB7        0.0000 
     84 DU        -54.4100   -4.2900   -5.3000 H         7 CUB7        0.0000 
     85 DU        -55.6300   -3.4500   -5.0800 H         7 CUB7        0.0000 
     86 DU        -51.9600   -3.5200   -4.8600 H         7 CUB7        0.0000 
@<TRIPOS>BOND
@<TRIPOS>SUBSTRUCTURE
     1 SER1        1 GROUP   
     2 ALA2        5 GROUP   
     3 ASP3       25 GROUP   
     4 LYS4       42 GROUP   
     5 PHE5       44 GROUP   
     6 GLY6       48 GROUP   
     7 CUB7       71 GROUP   
@<TRIPOS>SET

