#    Name: 6h1b_3_AMP_CAVITY_N1_4
#    Modification time : Fri May 22 19:24:01 2020

@<TRIPOS>MOLECULE
6h1b_3_AMP_CAVITY_N1_4
   90     0     7     0     0
SMALL
NO_CHARGES


@<TRIPOS>ATOM
      1 OG        -54.6800   -6.7000   82.0500 O.3       1 SER1        0.0000 
      2 OG        -55.9100   -5.8600   82.2700 O.3       1 SER1        0.0000 
      3 OG        -54.1400   -8.7000   82.4800 O.3       1 SER1        0.0000 
      4 OG        -54.1400   -6.2600   83.3800 O.3       1 SER1        0.0000 
      5 OG        -53.5900   -8.2600   83.8100 O.3       1 SER1        0.0000 
      6 OG        -54.8200   -7.4300   84.0400 O.3       1 SER1        0.0000 
      7 OG        -56.0400   -6.5900   84.2600 O.3       1 SER1        0.0000 
      8 OG        -54.2700   -6.9900   85.3600 O.3       1 SER1        0.0000 
      9 OG        -55.5000   -6.1500   85.5900 O.3       1 SER1        0.0000 
     10 OG        -52.6400   -8.1200   88.4600 O.3       1 SER1        0.0000 
     11 OG        -53.8600   -7.2800   88.6800 O.3       1 SER1        0.0000 
     12 N         -51.4300   -4.0400   79.8400 N.am      2 ALA2        0.0000 
     13 N         -48.9900   -3.2800   80.2800 N.am      2 ALA2        0.0000 
     14 N         -49.6700   -4.4400   80.9400 N.am      2 ALA2        0.0000 
     15 O         -47.0900   -0.5100   80.2900 O.2       2 ALA2        0.0000 
     16 N         -47.7700   -1.6800   80.9500 N.am      2 ALA2        0.0000 
     17 N         -48.4400   -2.8400   81.6100 N.am      2 ALA2        0.0000 
     18 N         -49.1200   -4.0100   82.2700 N.am      2 ALA2        0.0000 
     19 O         -54.9500   -8.1500   86.0300 O.2       2 ALA2        0.0000 
     20 N         -47.2200   -1.2400   82.2700 N.am      2 ALA2        0.0000 
     21 N         -50.4800   -3.9000   84.4800 N.am      2 ALA2        0.0000 
     22 O         -55.5000   -3.7100   86.4800 O.2       2 ALA2        0.0000 
     23 O         -56.1700   -4.8700   87.1400 O.2       2 ALA2        0.0000 
     24 O         -50.6100   -4.6200   86.4700 O.2       2 ALA2        0.0000 
     25 O         -51.2800   -5.7900   87.1300 O.2       2 ALA2        0.0000 
     26 OD1       -49.5300   -6.1600   78.0600 O.co2     3 ASP3        0.0000 
     27 OD1       -48.9900   -5.7200   79.3900 O.co2     3 ASP3        0.0000 
     28 OD1       -47.0900   -2.9500   79.3900 O.co2     3 ASP3        0.0000 
     29 OD1       -47.7700   -4.1200   80.0600 O.co2     3 ASP3        0.0000 
     30 OD1       -48.4400   -5.2800   80.7200 O.co2     3 ASP3        0.0000 
     31 OD1       -51.0200   -6.7700   82.2600 O.co2     3 ASP3        0.0000 
     32 OD1       -51.6900   -7.9400   82.9300 O.co2     3 ASP3        0.0000 
     33 OD1       -47.9000   -4.8500   82.0400 O.co2     3 ASP3        0.0000 
     34 OD1       -49.8000   -5.1700   82.9300 O.co2     3 ASP3        0.0000 
     35 OD1       -50.4700   -6.3400   83.5900 O.co2     3 ASP3        0.0000 
     36 OD1       -51.1500   -7.5000   84.2500 O.co2     3 ASP3        0.0000 
     37 OD1       -51.8200   -8.6600   84.9100 O.co2     3 ASP3        0.0000 
     38 OD1       -49.2500   -4.7300   84.2600 O.co2     3 ASP3        0.0000 
     39 OD1       -49.9300   -5.9000   84.9200 O.co2     3 ASP3        0.0000 
     40 OD1       -50.6000   -7.0600   85.5800 O.co2     3 ASP3        0.0000 
     41 OD1       -51.2800   -8.2300   86.2400 O.co2     3 ASP3        0.0000 
     42 NZ        -47.2200   -3.6800   81.3800 N.4       4 LYS4        0.0000 
     43 NZ        -50.0600   -6.6300   86.9100 N.4       4 LYS4        0.0000 
     44 NZ        -50.7400   -7.7900   87.5700 N.4       4 LYS4        0.0000 
     45 CZ        -46.5500   -2.5200   80.7200 C.ar      5 PHE5        0.0000 
     46 CZ        -46.6800   -3.2400   82.7100 C.ar      5 PHE5        0.0000 
     47 CA        -49.5300   -3.7200   78.9500 C.3       6 GLY6        0.0000 
     48 CA        -50.2100   -4.8800   79.6100 C.3       6 GLY6        0.0000 
     49 CA        -49.6600   -6.8900   80.0500 C.3       6 GLY6        0.0000 
     50 CA        -52.1100   -5.2100   80.5000 C.3       6 GLY6        0.0000 
     51 CA        -52.7800   -6.3700   81.1600 C.3       6 GLY6        0.0000 
     52 CA        -54.0100   -5.5400   81.3900 C.3       6 GLY6        0.0000 
     53 CA        -48.3100   -2.1200   79.6200 C.3       6 GLY6        0.0000 
     54 CA        -49.1200   -6.4500   81.3800 C.3       6 GLY6        0.0000 
     55 CA        -49.7900   -7.6100   82.0400 C.3       6 GLY6        0.0000 
     56 CA        -53.4600   -5.1000   82.7100 C.3       6 GLY6        0.0000 
     57 CA        -54.6900   -4.2600   82.9400 C.3       6 GLY6        0.0000 
     58 CA        -55.3600   -5.4200   83.6000 C.3       6 GLY6        0.0000 
     59 CA        -45.8700   -1.3500   80.0600 C.3       6 GLY6        0.0000 
     60 CA        -54.1400   -3.8200   84.2700 C.3       6 GLY6        0.0000 
     61 CA        -55.3700   -2.9800   84.4900 C.3       6 GLY6        0.0000 
     62 CA        -54.8200   -4.9900   84.9300 C.3       6 GLY6        0.0000 
     63 CA        -56.0400   -4.1500   85.1500 C.3       6 GLY6        0.0000 
     64 CA        -53.7200   -8.9900   85.8000 C.3       6 GLY6        0.0000 
     65 CA        -52.3800   -4.2200   85.3700 C.3       6 GLY6        0.0000 
     66 CA        -54.8200   -2.5500   85.8200 C.3       6 GLY6        0.0000 
     67 CA        -53.0500   -5.3900   86.0300 C.3       6 GLY6        0.0000 
     68 CA        -54.2700   -4.5500   86.2600 C.3       6 GLY6        0.0000 
     69 CA        -53.7300   -6.5500   86.6900 C.3       6 GLY6        0.0000 
     70 CA        -54.9500   -5.7100   86.9200 C.3       6 GLY6        0.0000 
     71 CA        -51.9600   -9.3900   86.9000 C.3       6 GLY6        0.0000 
     72 CA        -53.1800   -8.5500   87.1300 C.3       6 GLY6        0.0000 
     73 CA        -54.4000   -7.7200   87.3500 C.3       6 GLY6        0.0000 
     74 CA        -49.3800   -5.4600   86.2500 C.3       6 GLY6        0.0000 
     75 CA        -51.9600   -6.9500   87.7900 C.3       6 GLY6        0.0000 
     76 DU        -50.8900   -6.0500   80.2800 H         7 CUB7        0.0000 
     77 DU        -51.5600   -7.2100   80.9400 H         7 CUB7        0.0000 
     78 DU        -53.4600   -7.5400   81.8200 H         7 CUB7        0.0000 
     79 DU        -50.3400   -5.6100   81.6000 H         7 CUB7        0.0000 
     80 DU        -52.2400   -5.9400   82.4900 H         7 CUB7        0.0000 
     81 DU        -52.9200   -7.1000   83.1500 H         7 CUB7        0.0000 
     82 DU        -52.3700   -9.1000   83.5900 H         7 CUB7        0.0000 
     83 DU        -51.7000   -5.5000   83.8200 H         7 CUB7        0.0000 
     84 DU        -52.9200   -4.6600   84.0400 H         7 CUB7        0.0000 
     85 DU        -52.3700   -6.6600   84.4800 H         7 CUB7        0.0000 
     86 DU        -53.6000   -5.8200   84.7000 H         7 CUB7        0.0000 
     87 DU        -53.0500   -7.8300   85.1400 H         7 CUB7        0.0000 
     88 DU        -51.1500   -5.0600   85.1400 H         7 CUB7        0.0000 
     89 DU        -51.8300   -6.2200   85.8100 H         7 CUB7        0.0000 
     90 DU        -52.5000   -7.3900   86.4700 H         7 CUB7        0.0000 
@<TRIPOS>BOND
@<TRIPOS>SUBSTRUCTURE
     1 SER1        1 GROUP   
     2 ALA2       12 GROUP   
     3 ASP3       26 GROUP   
     4 LYS4       42 GROUP   
     5 PHE5       45 GROUP   
     6 GLY6       47 GROUP   
     7 CUB7       76 GROUP   
@<TRIPOS>SET

