#    Name: 6h1b_5_AMP
#    Modification time : Fri May 22 19:24:15 2020

@<TRIPOS>MOLECULE
6h1b_5_AMP
   19    21     1     0     1
SMALL
NO_CHARGES


@<TRIPOS>ATOM
      1 O5'       -85.3290   -6.1360   20.1010 O.3       1 AMP501      0.0000 
      2 C5'       -86.7160   -5.8250   20.4520 C.3       1 AMP501      0.0000 
      3 C4'       -87.6250   -5.6320   19.2270 C.3       1 AMP501      0.0000 
      4 O4'       -89.0260   -5.7980   19.5700 O.3       1 AMP501      0.0000 
      5 C3'       -87.4870   -4.2530   18.5020 C.3       1 AMP501      0.0000 
      6 O3'       -86.3910   -4.2560   17.5440 O.3       1 AMP501      0.0000 
      7 C2'       -88.9170   -3.9840   17.9200 C.3       1 AMP501      0.0000 
      8 O2'       -89.2830   -4.5360   16.6370 O.3       1 AMP501      0.0000 
      9 C1'       -89.8110   -4.7630   18.8520 C.3       1 AMP501      0.0000 
     10 N9        -90.4760   -3.8780   19.8550 N.pl3     1 AMP501      0.0000 
     11 C8        -89.9520   -3.4340   21.0500 C.2       1 AMP501      0.0000 
     12 N7        -90.8490   -2.7060   21.7840 N.2       1 AMP501      0.0000 
     13 C5        -91.9790   -2.6960   21.0410 C.ar      1 AMP501      0.0000 
     14 C6        -93.3150   -2.1130   21.1950 C.ar      1 AMP501      0.0000 
     15 N6        -93.6150   -1.3910   22.3010 N.pl3     1 AMP501      0.0000 
     16 N1        -94.1960   -2.3440   20.1630 N.ar      1 AMP501      0.0000 
     17 C2        -93.9320   -3.0580   19.0240 C.ar      1 AMP501      0.0000 
     18 N3        -92.7390   -3.6150   18.8100 N.ar      1 AMP501      0.0000 
     19 C4        -91.7530   -3.4670   19.7690 C.ar      1 AMP501      0.0000 
@<TRIPOS>BOND
     1    1    2 1    
     2    2    3 1    
     3    3    4 1    
     4    3    5 1    
     5    4    9 1    
     6    5    6 1    
     7    5    7 1    
     8    7    8 1    
     9    7    9 1    
    10    9   10 1    
    11   10   11 1    
    12   10   19 1    
    13   11   12 2    
    14   12   13 1    
    15   13   14 ar   
    16   13   19 ar   
    17   14   15 1    
    18   14   16 ar   
    19   16   17 ar   
    20   17   18 ar   
    21   18   19 ar   
@<TRIPOS>SUBSTRUCTURE
     1 AMP501      1 GROUP   
@<TRIPOS>SET
ATOM$ORANGE STATIC     ATOMS   COLORGROUP SYSTEM 
20 2 2 3 3 5 5 7 7 9 9 11 11 13 13 14 14 17 \
17 19 19 

