#    Name: 6e90_3_NAD
#    Modification time : Fri May 22 19:31:12 2020

@<TRIPOS>MOLECULE
6e90_3_NAD
   70    74     1     0     1
SMALL
NO_CHARGES


@<TRIPOS>ATOM
      1 PA         57.2390  228.0580   33.5660 P.3       1 NAD401      0.0000 
      2 O1A        57.4200  229.5370   33.9100 O.co2     1 NAD401      0.0000 
      3 O2A        58.0310  227.5700   32.4280 O.co2     1 NAD401      0.0000 
      4 O5B        55.6710  227.8800   33.1530 O.3       1 NAD401      0.0000 
      5 C5B        55.3720  226.8140   32.2930 C.3       1 NAD401      0.0000 
      6 C4B        54.4880  225.7380   33.0050 C.3       1 NAD401      0.0000 
      7 O4B        53.3450  226.2280   33.3960 O.3       1 NAD401      0.0000 
      8 C3B        54.1560  224.6430   31.9810 C.3       1 NAD401      0.0000 
      9 O3B        55.0000  223.5890   32.1170 O.3       1 NAD401      0.0000 
     10 C2B        52.6920  224.2710   32.3110 C.3       1 NAD401      0.0000 
     11 O2B        52.5470  222.7820   32.5580 O.3       1 NAD401      0.0000 
     12 C1B        52.3940  224.9340   33.3800 C.3       1 NAD401      0.0000 
     13 N9A        51.0180  225.3600   33.3160 N.pl3     1 NAD401      0.0000 
     14 C8A        50.4670  226.2810   32.4980 C.2       1 NAD401      0.0000 
     15 N7A        49.1620  226.3600   32.7830 N.2       1 NAD401      0.0000 
     16 C5A        48.9080  225.4900   33.7570 C.ar      1 NAD401      0.0000 
     17 C6A        47.7560  225.1730   34.3980 C.ar      1 NAD401      0.0000 
     18 N6A        46.4120  225.6950   34.2250 N.pl3     1 NAD401      0.0000 
     19 N1A        47.7730  224.2510   35.3650 N.ar      1 NAD401      0.0000 
     20 C2A        48.9250  223.6330   35.7150 C.ar      1 NAD401      0.0000 
     21 N3A        50.0830  223.9230   35.0900 N.ar      1 NAD401      0.0000 
     22 C4A        50.0510  224.8670   34.1000 C.ar      1 NAD401      0.0000 
     23 O3         57.4960  227.1690   34.9020 O.3       1 NAD401      0.0000 
     24 PN         58.9420  227.0130   35.6850 P.3       1 NAD401      0.0000 
     25 O1N        60.0980  227.6370   34.9390 O.co2     1 NAD401      0.0000 
     26 O2N        59.2630  225.5400   35.7070 O.co2     1 NAD401      0.0000 
     27 O5D        58.7010  227.7100   37.1050 O.3       1 NAD401      0.0000 
     28 C5D        58.1100  226.9970   38.1840 C.3       1 NAD401      0.0000 
     29 C4D        58.7160  227.6190   39.4560 C.3       1 NAD401      0.0000 
     30 O4D        60.0290  227.5540   39.3310 O.3       1 NAD401      0.0000 
     31 C3D        58.3680  229.1300   39.5980 C.3       1 NAD401      0.0000 
     32 O3D        58.0530  229.5100   40.8600 O.3       1 NAD401      0.0000 
     33 C2D        59.6780  229.8420   39.2430 C.3       1 NAD401      0.0000 
     34 O2D        59.7240  231.1630   39.9660 O.3       1 NAD401      0.0000 
     35 C1D        60.6200  229.0020   39.6880 C.3       1 NAD401      0.0000 
     36 N1N        61.8950  229.0480   39.0660 N.pl3     1 NAD401      0.0000 
     37 C2N        62.0510  229.2740   37.6980 C.ar      1 NAD401      0.0000 
     38 C3N        63.3450  229.2630   37.1600 C.ar      1 NAD401      0.0000 
     39 C7N        63.5380  229.5030   35.7070 C.2       1 NAD401      0.0000 
     40 O7N        64.5900  229.9140   35.3000 O.2       1 NAD401      0.0000 
     41 N7N        62.4030  229.1760   34.8060 N.am      1 NAD401      0.0000 
     42 C4N        64.4540  229.0330   37.9530 C.ar      1 NAD401      0.0000 
     43 C5N        64.3010  228.8150   39.3100 C.ar      1 NAD401      0.0000 
     44 C6N        62.9980  228.8230   39.8480 C.ar      1 NAD401      0.0000 
     45 H51A       56.1990  226.4010   31.9990 H         1 NAD401      0.0000 
     46 H52A       54.8950  227.1550   31.5210 H         1 NAD401      0.0000 
     47 H4B        54.9600  225.3540   33.7600 H         1 NAD401      0.0000 
     48 H3B        54.2100  225.0040   31.0830 H         1 NAD401      0.0000 
     49 HO3A       54.9970  223.3250   32.9240 H         1 NAD401      0.0000 
     50 H2B        52.1130  224.5470   31.5830 H         1 NAD401      0.0000 
     51 HO2A       52.4480  222.3790   31.8160 H         1 NAD401      0.0000 
     52 H1B        52.5480  224.3910   34.1690 H         1 NAD401      0.0000 
     53 H8A        50.9150  226.7780   31.8520 H         1 NAD401      0.0000 
     54 H61A       46.2410  226.2410   33.5830 H         1 NAD401      0.0000 
     55 H62A       45.7860  225.4580   34.7660 H         1 NAD401      0.0000 
     56 H2A        48.6940  223.0400   36.3930 H         1 NAD401      0.0000 
     57 H51N       57.1470  227.1140   38.1790 H         1 NAD401      0.0000 
     58 H52N       58.3370  226.0550   38.1310 H         1 NAD401      0.0000 
     59 H4D        58.4300  227.1320   40.2440 H         1 NAD401      0.0000 
     60 H3D        57.6670  229.3780   38.9750 H         1 NAD401      0.0000 
     61 HO3N       57.4030  230.0580   40.8370 H         1 NAD401      0.0000 
     62 H2D        59.7530  229.9650   38.2840 H         1 NAD401      0.0000 
     63 HO2N       60.0830  231.7490   39.4650 H         1 NAD401      0.0000 
     64 H1D        60.7140  229.0910   40.6490 H         1 NAD401      0.0000 
     65 H2N        61.3110  229.4140   37.1530 H         1 NAD401      0.0000 
     66 H71N       61.6660  228.8770   35.1330 H         1 NAD401      0.0000 
     67 H72N       62.4790  229.2980   33.9580 H         1 NAD401      0.0000 
     68 H4N        65.3050  229.0470   37.5770 H         1 NAD401      0.0000 
     69 H5N        65.0410  228.6660   39.8540 H         1 NAD401      0.0000 
     70 H6N        62.8830  228.6650   40.7570 H         1 NAD401      0.0000 
@<TRIPOS>BOND
     1    1    2 ar   
     2    1    3 ar   
     3    1    4 1    
     4    1   23 1    
     5    4    5 1    
     6    5    6 1    
     7    5   45 1    
     8    5   46 1    
     9    6    7 1    
    10    6    8 1    
    11    6   47 1    
    12    7   12 1    
    13    8    9 1    
    14    8   10 1    
    15    8   48 1    
    16    9   49 1    
    17   10   11 1    
    18   10   12 1    
    19   10   50 1    
    20   12   52 1    
    21   12   13 1    
    22   11   51 1    
    23   13   14 1    
    24   13   22 1    
    25   14   15 2    
    26   15   16 1    
    27   14   53 1    
    28   16   17 ar   
    29   16   22 ar   
    30   17   18 1    
    31   17   19 ar   
    32   19   20 ar   
    33   18   54 1    
    34   18   55 1    
    35   20   21 ar   
    36   21   22 ar   
    37   20   56 1    
    38   23   24 1    
    39   24   25 ar   
    40   24   26 ar   
    41   24   27 1    
    42   27   28 1    
    43   28   29 1    
    44   28   57 1    
    45   28   58 1    
    46   29   30 1    
    47   29   31 1    
    48   29   59 1    
    49   30   35 1    
    50   31   32 1    
    51   31   33 1    
    52   31   60 1    
    53   32   61 1    
    54   33   34 1    
    55   33   35 1    
    56   33   62 1    
    57   35   36 1    
    58   34   63 1    
    59   35   64 1    
    60   36   37 ar   
    61   36   44 ar   
    62   37   38 ar   
    63   38   39 1    
    64   37   65 1    
    65   38   42 ar   
    66   39   40 2    
    67   39   41 am   
    68   42   43 ar   
    69   41   66 1    
    70   41   67 1    
    71   43   44 ar   
    72   42   68 1    
    73   43   69 1    
    74   44   70 1    
@<TRIPOS>SUBSTRUCTURE
     1 NAD401      1 GROUP   
@<TRIPOS>SET
ATOM$ORANGE STATIC     ATOMS   COLORGROUP SYSTEM 
42 5 5 6 6 8 8 10 10 12 12 14 14 16 16 17 17 20 \
20 22 22 28 28 29 29 31 31 33 33 35 35 37 37 38 38 39 \
39 42 42 43 43 44 44 

