#    Name: 6e90_3_NAD_CAVITY_N1_6
#    Modification time : Fri May 22 19:31:15 2020

@<TRIPOS>MOLECULE
6e90_3_NAD_CAVITY_N1_6
   78     0     5     0     0
SMALL
NO_CHARGES


@<TRIPOS>ATOM
      1 O          58.8400  225.9100   34.6200 O.2       1 ALA2        0.0000 
      2 O          58.2700  227.0700   33.8500 O.2       1 ALA2        0.0000 
      3 O          59.4600  226.8700   35.5900 O.2       1 ALA2        0.0000 
      4 O          57.6100  227.7200   38.2600 O.2       1 ALA2        0.0000 
      5 N          58.8100  227.5100   40.0000 N.am      1 ALA2        0.0000 
      6 N          58.2400  228.6700   39.2300 N.am      1 ALA2        0.0000 
      7 N          57.6700  229.8300   38.4700 N.am      1 ALA2        0.0000 
      8 N          59.4300  228.4600   40.9700 N.am      1 ALA2        0.0000 
      9 N          60.6700  228.5200   40.1300 N.am      1 ALA2        0.0000 
     10 N          64.3900  228.6700   37.6000 N.am      1 ALA2        0.0000 
     11 N          58.8600  229.6200   40.2100 N.am      1 ALA2        0.0000 
     12 N          63.8200  229.8300   36.8300 N.am      1 ALA2        0.0000 
     13 O          64.3400  228.4200   40.1800 O.2       1 ALA2        0.0000 
     14 N          65.0100  229.6300   38.5700 N.am      1 ALA2        0.0000 
     15 N          64.4400  230.7800   37.8100 N.am      1 ALA2        0.0000 
     16 N          65.6800  230.8300   36.9600 N.am      1 ALA2        0.0000 
     17 O          66.3000  231.7900   37.9400 O.2       1 ALA2        0.0000 
     18 O          62.0200  232.7900   39.7100 O.2       1 ALA2        0.0000 
     19 O          61.4500  233.9500   38.9400 O.2       1 ALA2        0.0000 
     20 N          62.6900  234.0000   38.1000 N.am      1 ALA2        0.0000 
     21 O          62.1200  235.1600   37.3300 O.2       1 ALA2        0.0000 
     22 O          63.3600  235.2100   36.4900 O.2       1 ALA2        0.0000 
     23 OD1        57.7000  228.2300   33.0900 O.co2     2 ASP3        0.0000 
     24 OD1        58.8900  228.0300   34.8300 O.co2     2 ASP3        0.0000 
     25 OD1        58.2800  228.9300   36.6500 O.co2     2 ASP3        0.0000 
     26 OD1        59.5200  228.9800   35.8000 O.co2     2 ASP3        0.0000 
     27 OD1        58.9100  229.8800   37.6200 O.co2     2 ASP3        0.0000 
     28 OD1        61.3400  229.7300   38.5200 O.co2     2 ASP3        0.0000 
     29 OD1        62.5800  229.7800   37.6700 O.co2     2 ASP3        0.0000 
     30 OD1        59.5300  230.8300   38.6000 O.co2     2 ASP3        0.0000 
     31 OD1        63.2500  230.9900   36.0700 O.co2     2 ASP3        0.0000 
     32 OD1        63.7700  229.5700   39.4200 O.co2     2 ASP3        0.0000 
     33 OD1        63.2000  230.7300   38.6500 O.co2     2 ASP3        0.0000 
     34 OD1        61.3900  231.8400   38.7300 O.co2     2 ASP3        0.0000 
     35 OD1        62.6300  231.8900   37.8900 O.co2     2 ASP3        0.0000 
     36 OD1        63.8700  231.9400   37.0400 O.co2     2 ASP3        0.0000 
     37 OD1        60.8200  232.9900   37.9700 O.co2     2 ASP3        0.0000 
     38 OD1        62.0600  233.0500   37.1200 O.co2     2 ASP3        0.0000 
     39 OD1        63.3000  233.1000   36.2800 O.co2     2 ASP3        0.0000 
     40 OD1        61.4900  234.2000   36.3600 O.co2     2 ASP3        0.0000 
     41 OD1        62.7300  234.2500   35.5100 O.co2     2 ASP3        0.0000 
     42 OD1        65.6400  230.5800   39.5500 O.co2     2 ASP3        0.0000 
     43 OD1        65.0700  231.7400   38.7800 O.co2     2 ASP3        0.0000 
     44 OD1        63.2600  232.8400   38.8600 O.co2     2 ASP3        0.0000 
     45 OD1        64.5000  232.8900   38.0200 O.co2     2 ASP3        0.0000 
     46 OD1        63.9300  234.0500   37.2500 O.co2     2 ASP3        0.0000 
     47 OD1        65.6900  232.6900   39.7600 O.co2     2 ASP3        0.0000 
     48 CZ         57.0700  227.2800   32.1100 C.ar      3 PHE5        0.0000 
     49 CZ         60.0500  227.5600   39.1500 C.ar      3 PHE5        0.0000 
     50 CZ         61.2800  227.6200   38.3100 C.ar      3 PHE5        0.0000 
     51 CZ         61.9100  228.5700   39.2800 C.ar      3 PHE5        0.0000 
     52 CZ         63.1500  228.6200   38.4400 C.ar      3 PHE5        0.0000 
     53 CA         57.0300  227.0200   34.7000 C.3       4 GLY6        0.0000 
     54 CA         56.4600  228.1800   33.9300 C.3       4 GLY6        0.0000 
     55 CA         58.8000  225.6600   37.2000 C.3       4 GLY6        0.0000 
     56 CA         56.9900  226.7600   37.2800 C.3       4 GLY6        0.0000 
     57 CA         58.2300  226.8200   36.4400 C.3       4 GLY6        0.0000 
     58 CA         57.6600  227.9700   35.6700 C.3       4 GLY6        0.0000 
     59 CA         60.1300  228.0800   33.9800 C.3       4 GLY6        0.0000 
     60 CA         57.0900  229.1300   34.9100 C.3       4 GLY6        0.0000 
     61 CA         58.1800  226.5600   39.0200 C.3       4 GLY6        0.0000 
     62 CA         59.4200  226.6100   38.1800 C.3       4 GLY6        0.0000 
     63 CA         60.0900  227.8200   36.5700 C.3       4 GLY6        0.0000 
     64 CA         61.3300  227.8700   35.7200 C.3       4 GLY6        0.0000 
     65 CA         57.0400  228.8700   37.4900 C.3       4 GLY6        0.0000 
     66 CA         60.7100  228.7700   37.5400 C.3       4 GLY6        0.0000 
     67 CA         61.9500  228.8300   36.7000 C.3       4 GLY6        0.0000 
     68 CA         63.1900  228.8800   35.8500 C.3       4 GLY6        0.0000 
     69 CA         61.3000  229.4700   41.1000 C.3       4 GLY6        0.0000 
     70 CA         62.5300  229.5200   40.2600 C.3       4 GLY6        0.0000 
     71 CA         60.7300  230.6300   40.3400 C.3       4 GLY6        0.0000 
     72 CA         61.9600  230.6800   39.4900 C.3       4 GLY6        0.0000 
     73 CA         60.1500  231.7800   39.5700 C.3       4 GLY6        0.0000 
     74 CA         65.7300  232.9400   37.1700 C.3       4 GLY6        0.0000 
     75 CA         65.1600  234.1000   36.4100 C.3       4 GLY6        0.0000 
     76 DU         58.8500  227.7700   37.4100 H         5 CUB7        0.0000 
     77 DU         59.4800  228.7200   38.3900 H         5 CUB7        0.0000 
     78 DU         60.1000  229.6700   39.3600 H         5 CUB7        0.0000 
@<TRIPOS>BOND
@<TRIPOS>SUBSTRUCTURE
     1 ALA2        1 GROUP   
     2 ASP3       23 GROUP   
     3 PHE5       48 GROUP   
     4 GLY6       53 GROUP   
     5 CUB7       76 GROUP   
@<TRIPOS>SET

