#    Name: 6ecw_2_SAH
#    Modification time : Fri May 22 19:29:24 2020

@<TRIPOS>MOLECULE
6ecw_2_SAH
   26    28     1     0     0
SMALL
NO_CHARGES


@<TRIPOS>ATOM
      1 N          54.5850  -18.1420   24.2180 N.4       1 SAH1300     0.0000 
      2 CA         55.3430  -18.9070   25.1970 C.3       1 SAH1300     0.0000 
      3 CB         54.3930  -19.5440   26.1970 C.3       1 SAH1300     0.0000 
      4 CG         54.9480  -19.5490   27.6110 C.3       1 SAH1300     0.0000 
      5 SD         53.9630  -20.5400   28.7630 S.3       1 SAH1300     0.0000 
      6 C          56.2110  -19.9840   24.5410 C.2       1 SAH1300     0.0000 
      7 O          55.6940  -20.9900   24.0380 O.co2     1 SAH1300     0.0000 
      8 OXT        57.4430  -19.8830   24.5040 O.co2     1 SAH1300     0.0000 
      9 C5'        53.1410  -19.1410   29.5770 C.3       1 SAH1300     0.0000 
     10 C4'        53.6570  -17.7420   29.2350 C.3       1 SAH1300     0.0000 
     11 O4'        52.5360  -16.9030   29.3290 O.3       1 SAH1300     0.0000 
     12 C3'        54.6910  -17.1780   30.2100 C.3       1 SAH1300     0.0000 
     13 O3'        55.6060  -16.3430   29.5420 O.3       1 SAH1300     0.0000 
     14 C2'        53.9360  -16.2620   31.1320 C.3       1 SAH1300     0.0000 
     15 O2'        54.7470  -15.1520   31.4620 O.3       1 SAH1300     0.0000 
     16 C1'        52.7310  -15.8860   30.2830 C.3       1 SAH1300     0.0000 
     17 N9         51.5050  -15.7850   31.0760 N.pl3     1 SAH1300     0.0000 
     18 C8         50.9090  -16.7350   31.8650 C.2       1 SAH1300     0.0000 
     19 N7         49.7840  -16.1970   32.4080 N.2       1 SAH1300     0.0000 
     20 C5         49.6490  -14.9150   31.9630 C.ar      1 SAH1300     0.0000 
     21 C6         48.7110  -13.9020   32.1760 C.ar      1 SAH1300     0.0000 
     22 N6         47.6410  -14.0390   32.9660 N.pl3     1 SAH1300     0.0000 
     23 N1         48.8900  -12.6930   31.5360 N.ar      1 SAH1300     0.0000 
     24 C2         49.9790  -12.4720   30.7360 C.ar      1 SAH1300     0.0000 
     25 N3         50.9080  -13.4670   30.5090 N.ar      1 SAH1300     0.0000 
     26 C4         50.7350  -14.6590   31.1230 C.ar      1 SAH1300     0.0000 
@<TRIPOS>BOND
     1    1    2 1    
     2    2    3 1    
     3    2    6 1    
     4    3    4 1    
     5    4    5 1    
     6    5    9 1    
     7    6    7 ar   
     8    6    8 ar   
     9    9   10 1    
    10   10   11 1    
    11   10   12 1    
    12   11   16 1    
    13   12   13 1    
    14   12   14 1    
    15   14   15 1    
    16   14   16 1    
    17   16   17 1    
    18   17   18 1    
    19   17   26 1    
    20   18   19 2    
    21   19   20 1    
    22   20   21 ar   
    23   20   26 ar   
    24   21   22 1    
    25   21   23 ar   
    26   23   24 ar   
    27   24   25 ar   
    28   25   26 ar   
@<TRIPOS>SUBSTRUCTURE
     1 SAH1300     1 GROUP   
@<TRIPOS>SET

