#    Name: 6ecw_1_SAH
#    Modification time : Fri May 22 19:29:20 2020

@<TRIPOS>MOLECULE
6ecw_1_SAH
   26    28     1     0     0
SMALL
NO_CHARGES


@<TRIPOS>ATOM
      1 N          16.7250  -19.1210   -7.3030 N.4       1 SAH1300     0.0000 
      2 CA         15.4790  -18.8080   -7.9970 C.3       1 SAH1300     0.0000 
      3 CB         15.5960  -19.3040   -9.4320 C.3       1 SAH1300     0.0000 
      4 CG         16.9920  -19.7920   -9.7890 C.3       1 SAH1300     0.0000 
      5 SD         17.0570  -20.4360  -11.4800 S.3       1 SAH1300     0.0000 
      6 C          14.2020  -19.3690   -7.3400 C.2       1 SAH1300     0.0000 
      7 O          13.0930  -19.0750   -7.7960 O.co2     1 SAH1300     0.0000 
      8 OXT        14.2150  -20.1030   -6.3450 O.co2     1 SAH1300     0.0000 
      9 C5'        18.0870  -19.0860  -12.1200 C.3       1 SAH1300     0.0000 
     10 C4'        17.5260  -17.6680  -11.9420 C.3       1 SAH1300     0.0000 
     11 O4'        18.6320  -16.8090  -12.0730 O.3       1 SAH1300     0.0000 
     12 C3'        16.4980  -17.1940  -12.9760 C.3       1 SAH1300     0.0000 
     13 O3'        15.5030  -16.4070  -12.3650 O.3       1 SAH1300     0.0000 
     14 C2'        17.2410  -16.2580  -13.9040 C.3       1 SAH1300     0.0000 
     15 O2'        16.4460  -15.1600  -14.3050 O.3       1 SAH1300     0.0000 
     16 C1'        18.4120  -15.8140  -13.0450 C.3       1 SAH1300     0.0000 
     17 N9         19.6480  -15.7310  -13.8140 N.pl3     1 SAH1300     0.0000 
     18 C8         20.2410  -16.6920  -14.5880 C.2       1 SAH1300     0.0000 
     19 N7         21.3820  -16.1740  -15.1080 N.2       1 SAH1300     0.0000 
     20 C5         21.5260  -14.8960  -14.6630 C.ar      1 SAH1300     0.0000 
     21 C6         22.4850  -13.9020  -14.8660 C.ar      1 SAH1300     0.0000 
     22 N6         23.5690  -14.0630  -15.6330 N.pl3     1 SAH1300     0.0000 
     23 N1         22.3150  -12.6930  -14.2360 N.ar      1 SAH1300     0.0000 
     24 C2         21.2150  -12.4530  -13.4570 C.ar      1 SAH1300     0.0000 
     25 N3         20.2580  -13.4250  -13.2520 N.ar      1 SAH1300     0.0000 
     26 C4         20.4330  -14.6220  -13.8470 C.ar      1 SAH1300     0.0000 
@<TRIPOS>BOND
     1    1    2 1    
     2    2    3 1    
     3    2    6 1    
     4    3    4 1    
     5    4    5 1    
     6    5    9 1    
     7    6    7 ar   
     8    6    8 ar   
     9    9   10 1    
    10   10   11 1    
    11   10   12 1    
    12   11   16 1    
    13   12   13 1    
    14   12   14 1    
    15   14   15 1    
    16   14   16 1    
    17   16   17 1    
    18   17   18 1    
    19   17   26 1    
    20   18   19 2    
    21   19   20 1    
    22   20   21 ar   
    23   20   26 ar   
    24   21   22 1    
    25   21   23 ar   
    26   23   24 ar   
    27   24   25 ar   
    28   25   26 ar   
@<TRIPOS>SUBSTRUCTURE
     1 SAH1300     1 GROUP   
@<TRIPOS>SET

