#    Name: 6vjd_3_C3D
#    Modification time : Fri May 22 19:25:35 2020

@<TRIPOS>MOLECULE
6vjd_3_C3D
   31    35     1     0     0
SMALL
NO_CHARGES


@<TRIPOS>ATOM
      1 C1         -1.6070  -15.4580  -59.5630 C.3       1 C3D601      0.0000 
      2 C2         -2.1150  -16.7820  -59.1390 C.3       1 C3D601      0.0000 
      3 C3         -1.3470  -18.0030  -59.5370 C.3       1 C3D601      0.0000 
      4 C4          0.1590  -17.9980  -59.3720 C.3       1 C3D601      0.0000 
      5 C5          0.7510  -16.5950  -59.6870 C.ar      1 C3D601      0.0000 
      6 C6          2.1600  -16.4980  -59.9270 C.ar      1 C3D601      0.0000 
      7 C7          2.7240  -15.2480  -60.2340 C.ar      1 C3D601      0.0000 
      8 C8          1.9310  -14.0690  -60.3170 C.ar      1 C3D601      0.0000 
      9 C9          0.5270  -14.1680  -60.0950 C.ar      1 C3D601      0.0000 
     10 C10        -0.0460  -15.4350  -59.7870 C.ar      1 C3D601      0.0000 
     11 C11        -3.6230  -16.9060  -59.1470 C.ar      1 C3D601      0.0000 
     12 C12        -4.3800  -16.3940  -58.0970 C.ar      1 C3D601      0.0000 
     13 C13        -5.7730  -16.5110  -58.1480 C.ar      1 C3D601      0.0000 
     14 C14        -6.3900  -17.1320  -59.2390 C.ar      1 C3D601      0.0000 
     15 C15        -5.6230  -17.6330  -60.2830 C.ar      1 C3D601      0.0000 
     16 C16        -4.2300  -17.5190  -60.2310 C.ar      1 C3D601      0.0000 
     17 C17        -2.2200  -15.0610  -60.9160 C.ar      1 C3D601      0.0000 
     18 C18        -1.7810  -15.6830  -62.1070 C.ar      1 C3D601      0.0000 
     19 C19        -2.3450  -15.3260  -63.3300 C.ar      1 C3D601      0.0000 
     20 C20        -3.3310  -14.3480  -63.3900 C.ar      1 C3D601      0.0000 
     21 C21        -3.7770  -13.7110  -62.2080 C.ar      1 C3D601      0.0000 
     22 C22        -3.2240  -14.0690  -60.9900 C.ar      1 C3D601      0.0000 
     23 C24        -4.1580  -12.6210  -64.9630 C.3       1 C3D601      0.0000 
     24 C25        -4.5380  -12.5540  -66.4510 C.3       1 C3D601      0.0000 
     25 C27        -2.4520  -13.2630  -67.1980 C.3       1 C3D601      0.0000 
     26 C28        -1.9690  -13.3060  -68.4200 C.3       1 C3D601      0.0000 
     27 O7          4.0930  -15.1950  -60.4660 O.3       1 C3D601      0.0000 
     28 O23        -3.8930  -14.0000  -64.6800 O.3       1 C3D601      0.0000 
     29 N26        -3.6380  -12.2390  -67.1770 N.4       1 C3D601      0.0000 
     30 C29        -2.9130  -12.6090  -69.2810 C.3       1 C3D601      0.0000 
     31 C30        -4.0560  -12.1350  -68.3560 C.3       1 C3D601      0.0000 
@<TRIPOS>BOND
     1    1    2 1    
     2    1   10 1    
     3    1   17 1    
     4    2    3 1    
     5    2   11 1    
     6    3    4 1    
     7    4    5 1    
     8    5    6 ar   
     9    5   10 ar   
    10    6    7 ar   
    11    7    8 ar   
    12    7   27 1    
    13    8    9 ar   
    14    9   10 ar   
    15   11   12 ar   
    16   11   16 ar   
    17   12   13 ar   
    18   13   14 ar   
    19   14   15 ar   
    20   15   16 ar   
    21   17   18 ar   
    22   17   22 ar   
    23   18   19 ar   
    24   19   20 ar   
    25   20   21 ar   
    26   20   28 1    
    27   21   22 ar   
    28   23   24 1    
    29   23   28 1    
    30   24   29 1    
    31   25   26 1    
    32   25   29 1    
    33   26   30 1    
    34   29   31 1    
    35   30   31 1    
@<TRIPOS>SUBSTRUCTURE
     1 C3D601      1 GROUP   
@<TRIPOS>SET

