#    Name: 6vjd_4_C3D
#    Modification time : Fri May 22 19:25:38 2020

@<TRIPOS>MOLECULE
6vjd_4_C3D
   31    35     1     0     0
SMALL
NO_CHARGES


@<TRIPOS>ATOM
      1 C1        -16.6420  -41.4250  -69.1300 C.3       1 C3D601      0.0000 
      2 C2        -15.7360  -40.3260  -69.5510 C.3       1 C3D601      0.0000 
      3 C3        -14.2930  -40.4060  -69.1700 C.3       1 C3D601      0.0000 
      4 C4        -13.5630  -41.7350  -69.3120 C.3       1 C3D601      0.0000 
      5 C5        -14.5000  -42.9340  -68.9990 C.ar      1 C3D601      0.0000 
      6 C6        -13.8890  -44.2090  -68.7700 C.ar      1 C3D601      0.0000 
      7 C7        -14.6870  -45.3220  -68.4630 C.ar      1 C3D601      0.0000 
      8 C8        -16.1040  -45.2090  -68.3780 C.ar      1 C3D601      0.0000 
      9 C9        -16.7210  -43.9340  -68.5990 C.ar      1 C3D601      0.0000 
     10 C10       -15.9080  -42.8060  -68.9100 C.ar      1 C3D601      0.0000 
     11 C11       -16.3630  -38.9450  -69.5300 C.ar      1 C3D601      0.0000 
     12 C12       -16.1440  -38.1350  -68.4240 C.ar      1 C3D601      0.0000 
     13 C13       -16.7190  -36.8620  -68.3660 C.ar      1 C3D601      0.0000 
     14 C14       -17.5100  -36.4150  -69.4280 C.ar      1 C3D601      0.0000 
     15 C15       -17.7250  -37.2330  -70.5280 C.ar      1 C3D601      0.0000 
     16 C16       -17.1560  -38.5070  -70.5860 C.ar      1 C3D601      0.0000 
     17 C17       -17.2730  -41.0900  -67.7710 C.ar      1 C3D601      0.0000 
     18 C18       -18.6240  -40.7060  -67.6710 C.ar      1 C3D601      0.0000 
     19 C19       -19.1900  -40.4220  -66.4320 C.ar      1 C3D601      0.0000 
     20 C20       -18.4130  -40.5180  -65.2850 C.ar      1 C3D601      0.0000 
     21 C21       -17.0580  -40.9140  -65.3730 C.ar      1 C3D601      0.0000 
     22 C22       -16.4920  -41.1960  -66.5960 C.ar      1 C3D601      0.0000 
     23 C24       -20.3500  -40.5870  -63.7470 C.3       1 C3D601      0.0000 
     24 C25       -20.6650  -40.3580  -62.2570 C.3       1 C3D601      0.0000 
     25 C27       -18.9840  -41.7010  -61.4020 C.3       1 C3D601      0.0000 
     26 C28       -18.7760  -42.0890  -60.1560 C.3       1 C3D601      0.0000 
     27 O7        -14.0390  -46.5350  -68.2350 O.3       1 C3D601      0.0000 
     28 O23       -18.9780  -40.2230  -63.9860 O.3       1 C3D601      0.0000 
     29 N26       -20.4940  -41.3130  -61.5470 N.4       1 C3D601      0.0000 
     30 C29       -19.9710  -41.7710  -59.3840 C.3       1 C3D601      0.0000 
     31 C30       -20.9020  -41.0470  -60.3850 C.3       1 C3D601      0.0000 
@<TRIPOS>BOND
     1    1    2 1    
     2    1   10 1    
     3    1   17 1    
     4    2    3 1    
     5    2   11 1    
     6    3    4 1    
     7    4    5 1    
     8    5    6 ar   
     9    5   10 ar   
    10    6    7 ar   
    11    7    8 ar   
    12    7   27 1    
    13    8    9 ar   
    14    9   10 ar   
    15   11   12 ar   
    16   11   16 ar   
    17   12   13 ar   
    18   13   14 ar   
    19   14   15 ar   
    20   15   16 ar   
    21   17   18 ar   
    22   17   22 ar   
    23   18   19 ar   
    24   19   20 ar   
    25   20   21 ar   
    26   20   28 1    
    27   21   22 ar   
    28   23   24 1    
    29   23   28 1    
    30   24   29 1    
    31   25   26 1    
    32   25   29 1    
    33   26   30 1    
    34   29   31 1    
    35   30   31 1    
@<TRIPOS>SUBSTRUCTURE
     1 C3D601      1 GROUP   
@<TRIPOS>SET

