#    Name: 6vjd_2_C3D
#    Modification time : Fri May 22 19:25:31 2020

@<TRIPOS>MOLECULE
6vjd_2_C3D
   31    35     1     0     0
SMALL
NO_CHARGES


@<TRIPOS>ATOM
      1 C1        -14.9950   10.5290  -23.2060 C.3       1 C3D601      0.0000 
      2 C2        -13.5970   10.2840  -23.6230 C.3       1 C3D601      0.0000 
      3 C3        -12.9420    9.0020  -23.2180 C.3       1 C3D601      0.0000 
      4 C4        -13.7250    7.7210  -23.4360 C.3       1 C3D601      0.0000 
      5 C5        -15.2260    7.9260  -23.1020 C.ar      1 C3D601      0.0000 
      6 C6        -16.0340    6.7650  -22.8710 C.ar      1 C3D601      0.0000 
      7 C7        -17.3910    6.9210  -22.5430 C.ar      1 C3D601      0.0000 
      8 C8        -17.9900    8.2050  -22.4420 C.ar      1 C3D601      0.0000 
      9 C9        -17.1850    9.3650  -22.6600 C.ar      1 C3D601      0.0000 
     10 C10       -15.8140    9.2080  -22.9890 C.ar      1 C3D601      0.0000 
     11 C11       -12.7260   11.5150  -23.5940 C.ar      1 C3D601      0.0000 
     12 C12       -12.7530   12.4210  -24.6460 C.ar      1 C3D601      0.0000 
     13 C13       -11.9330   13.5530  -24.5720 C.ar      1 C3D601      0.0000 
     14 C14       -11.1260   13.7710  -23.4530 C.ar      1 C3D601      0.0000 
     15 C15       -11.1230   12.8620  -22.4040 C.ar      1 C3D601      0.0000 
     16 C16       -11.9290   11.7270  -22.4780 C.ar      1 C3D601      0.0000 
     17 C17       -15.0260   11.2470  -21.8450 C.ar      1 C3D601      0.0000 
     18 C18       -14.7040   10.5500  -20.6640 C.ar      1 C3D601      0.0000 
     19 C19       -14.7380   11.2180  -19.4420 C.ar      1 C3D601      0.0000 
     20 C20       -15.0850   12.5610  -19.3720 C.ar      1 C3D601      0.0000 
     21 C21       -15.4150   13.2660  -20.5490 C.ar      1 C3D601      0.0000 
     22 C22       -15.3800   12.6100  -21.7640 C.ar      1 C3D601      0.0000 
     23 C24       -16.2340   14.0930  -17.8230 C.3       1 C3D601      0.0000 
     24 C25       -16.1720   14.5420  -16.3500 C.3       1 C3D601      0.0000 
     25 C27       -16.5260   12.4180  -15.5020 C.3       1 C3D601      0.0000 
     26 C28       -16.7980   12.0270  -14.2730 C.3       1 C3D601      0.0000 
     27 O7        -18.1500    5.7730  -22.3090 O.3       1 C3D601      0.0000 
     28 O23       -15.1110   13.2400  -18.0900 O.3       1 C3D601      0.0000 
     29 N26       -16.8980   13.9360  -15.6170 N.4       1 C3D601      0.0000 
     30 C29       -17.0230   13.2270  -13.4750 C.3       1 C3D601      0.0000 
     31 C30       -16.8240   14.4060  -14.4530 C.3       1 C3D601      0.0000 
@<TRIPOS>BOND
     1    1    2 1    
     2    1   10 1    
     3    1   17 1    
     4    2    3 1    
     5    2   11 1    
     6    3    4 1    
     7    4    5 1    
     8    5    6 ar   
     9    5   10 ar   
    10    6    7 ar   
    11    7    8 ar   
    12    7   27 1    
    13    8    9 ar   
    14    9   10 ar   
    15   11   12 ar   
    16   11   16 ar   
    17   12   13 ar   
    18   13   14 ar   
    19   14   15 ar   
    20   15   16 ar   
    21   17   18 ar   
    22   17   22 ar   
    23   18   19 ar   
    24   19   20 ar   
    25   20   21 ar   
    26   20   28 1    
    27   21   22 ar   
    28   23   24 1    
    29   23   28 1    
    30   24   29 1    
    31   25   26 1    
    32   25   29 1    
    33   26   30 1    
    34   29   31 1    
    35   30   31 1    
@<TRIPOS>SUBSTRUCTURE
     1 C3D601      1 GROUP   
@<TRIPOS>SET

