#    Name: 6vjd_1_C3D
#    Modification time : Fri May 22 19:25:28 2020

@<TRIPOS>MOLECULE
6vjd_1_C3D
   31    35     1     0     0
SMALL
NO_CHARGES


@<TRIPOS>ATOM
      1 C1         14.9840   10.5620  -13.6210 C.3       1 C3D601      0.0000 
      2 C2         13.5750   10.3260  -13.2220 C.3       1 C3D601      0.0000 
      3 C3         12.9440    9.0370  -13.6500 C.3       1 C3D601      0.0000 
      4 C4         13.7260    7.7490  -13.4250 C.3       1 C3D601      0.0000 
      5 C5         15.2340    7.9510  -13.7510 C.ar      1 C3D601      0.0000 
      6 C6         16.0390    6.7880  -13.9870 C.ar      1 C3D601      0.0000 
      7 C7         17.3980    6.9560  -14.3080 C.ar      1 C3D601      0.0000 
      8 C8         17.9940    8.2460  -14.3940 C.ar      1 C3D601      0.0000 
      9 C9         17.1940    9.4040  -14.1570 C.ar      1 C3D601      0.0000 
     10 C10        15.8170    9.2390  -13.8420 C.ar      1 C3D601      0.0000 
     11 C11        12.6990   11.5660  -13.2620 C.ar      1 C3D601      0.0000 
     12 C12        12.7070   12.4630  -12.2030 C.ar      1 C3D601      0.0000 
     13 C13        11.9010   13.6060  -12.2630 C.ar      1 C3D601      0.0000 
     14 C14        11.1100   13.8490  -13.3880 C.ar      1 C3D601      0.0000 
     15 C15        11.1180   12.9550  -14.4510 C.ar      1 C3D601      0.0000 
     16 C16        11.9160   11.8050  -14.3870 C.ar      1 C3D601      0.0000 
     17 C17        15.0130   11.2800  -14.9780 C.ar      1 C3D601      0.0000 
     18 C18        14.7210   10.5550  -16.1540 C.ar      1 C3D601      0.0000 
     19 C19        14.7480   11.2030  -17.3790 C.ar      1 C3D601      0.0000 
     20 C20        15.0620   12.5550  -17.4450 C.ar      1 C3D601      0.0000 
     21 C21        15.3610   13.2960  -16.2770 C.ar      1 C3D601      0.0000 
     22 C22        15.3330   12.6580  -15.0530 C.ar      1 C3D601      0.0000 
     23 C24        16.1710   14.0830  -18.9970 C.3       1 C3D601      0.0000 
     24 C25        16.0680   14.4870  -20.4740 C.3       1 C3D601      0.0000 
     25 C27        16.4040   12.3650  -21.3050 C.3       1 C3D601      0.0000 
     26 C28        16.5340   11.9980  -22.5610 C.3       1 C3D601      0.0000 
     27 O7         18.1550    5.8100  -14.5310 O.3       1 C3D601      0.0000 
     28 O23        15.0770   13.2010  -18.7360 O.3       1 C3D601      0.0000 
     29 N26        16.8070   13.8750  -21.1830 N.4       1 C3D601      0.0000 
     30 C29        16.9070   13.1790  -23.3250 C.3       1 C3D601      0.0000 
     31 C30        16.7970   14.3650  -22.3390 C.3       1 C3D601      0.0000 
@<TRIPOS>BOND
     1    1    2 1    
     2    1   10 1    
     3    1   17 1    
     4    2    3 1    
     5    2   11 1    
     6    3    4 1    
     7    4    5 1    
     8    5    6 ar   
     9    5   10 ar   
    10    6    7 ar   
    11    7    8 ar   
    12    7   27 1    
    13    8    9 ar   
    14    9   10 ar   
    15   11   12 ar   
    16   11   16 ar   
    17   12   13 ar   
    18   13   14 ar   
    19   14   15 ar   
    20   15   16 ar   
    21   17   18 ar   
    22   17   22 ar   
    23   18   19 ar   
    24   19   20 ar   
    25   20   21 ar   
    26   20   28 1    
    27   21   22 ar   
    28   23   24 1    
    29   23   28 1    
    30   24   29 1    
    31   25   26 1    
    32   25   29 1    
    33   26   30 1    
    34   29   31 1    
    35   30   31 1    
@<TRIPOS>SUBSTRUCTURE
     1 C3D601      1 GROUP   
@<TRIPOS>SET

