#    Name: 6o1e_1_ANP
#    Modification time : Fri May 22 19:35:21 2020

@<TRIPOS>MOLECULE
6o1e_1_ANP
   31    33     1     0     1
SMALL
NO_CHARGES


@<TRIPOS>ATOM
      1 PG         10.5570  166.9240    9.4300 P.3       1 ANP503      0.0000 
      2 O1G        10.6320  166.4610    7.9950 O.co2     1 ANP503      0.0000 
      3 O2G        11.5170  168.0710    9.6750 O.co2     1 ANP503      0.0000 
      4 O3G        10.9100  165.7110   10.2720 O.co2     1 ANP503      0.0000 
      5 PB          8.0370  168.2680    8.6770 P.3       1 ANP503      0.0000 
      6 O1B         7.8630  167.3540    7.4940 O.co2     1 ANP503      0.0000 
      7 O2B         6.7210  168.6970    9.2620 O.co2     1 ANP503      0.0000 
      8 N3B         8.9930  167.4870    9.8430 N.3       1 ANP503      0.0000 
      9 PA          9.3360  169.9450    6.6830 P.3       1 ANP503      0.0000 
     10 O1A         9.8470  168.7420    5.9000 O.co2     1 ANP503      0.0000 
     11 O2A        10.3070  171.1040    6.7230 O.co2     1 ANP503      0.0000 
     12 O3A         8.9450  169.5830    8.2480 O.3       1 ANP503      0.0000 
     13 O5'         7.9250  170.4580    5.9800 O.3       1 ANP503      0.0000 
     14 C5'         7.3260  171.5260    6.6640 C.3       1 ANP503      0.0000 
     15 C4'         5.8290  171.5570    6.2310 C.3       1 ANP503      0.0000 
     16 O4'         5.7370  171.8300    4.9560 O.3       1 ANP503      0.0000 
     17 C3'         5.3000  170.1350    6.3750 C.3       1 ANP503      0.0000 
     18 O3'         4.8460  169.9970    7.6600 O.3       1 ANP503      0.0000 
     19 C2'         4.1840  170.0960    5.2990 C.3       1 ANP503      0.0000 
     20 O2'         2.9080  170.4790    5.9930 O.3       1 ANP503      0.0000 
     21 C1'         4.5090  170.9750    4.3700 C.3       1 ANP503      0.0000 
     22 N9          5.0080  170.3610    3.1400 N.pl3     1 ANP503      0.0000 
     23 C8          6.2810  169.9980    2.8750 C.2       1 ANP503      0.0000 
     24 N7          6.3350  169.4710    1.6350 N.2       1 ANP503      0.0000 
     25 C5          5.0800  169.5290    1.1300 C.ar      1 ANP503      0.0000 
     26 C6          4.5560  169.1360   -0.0890 C.ar      1 ANP503      0.0000 
     27 N6          5.1720  168.5120   -1.2400 N.pl3     1 ANP503      0.0000 
     28 N1          3.2660  169.2890   -0.3630 N.ar      1 ANP503      0.0000 
     29 C2          2.4530  169.8620    0.5680 C.ar      1 ANP503      0.0000 
     30 N3          2.9460  170.2360    1.7730 N.ar      1 ANP503      0.0000 
     31 C4          4.2650  170.0770    2.0490 C.ar      1 ANP503      0.0000 
@<TRIPOS>BOND
     1    1    2 ar   
     2    1    3 ar   
     3    1    4 ar   
     4    1    8 1    
     5    5    6 ar   
     6    5    7 ar   
     7    5    8 1    
     8    5   12 1    
     9    9   10 ar   
    10    9   11 ar   
    11    9   12 1    
    12    9   13 1    
    13   13   14 1    
    14   14   15 1    
    15   15   16 1    
    16   15   17 1    
    17   16   21 1    
    18   17   18 1    
    19   17   19 1    
    20   19   20 1    
    21   19   21 1    
    22   21   22 1    
    23   22   23 1    
    24   22   31 1    
    25   23   24 2    
    26   24   25 1    
    27   25   26 ar   
    28   25   31 ar   
    29   26   27 1    
    30   26   28 ar   
    31   28   29 ar   
    32   29   30 ar   
    33   30   31 ar   
@<TRIPOS>SUBSTRUCTURE
     1 ANP503      1 GROUP   
@<TRIPOS>SET
ATOM$ORANGE STATIC     ATOMS   COLORGROUP SYSTEM 
20 14 14 15 15 17 17 19 19 21 21 23 23 25 25 26 26 29 \
29 31 31 

