#    Name: 6ig0_1_ATP
#    Modification time : Fri May 22 19:25:50 2020

@<TRIPOS>MOLECULE
6ig0_1_ATP
   31    33     1     0     1
SMALL
NO_CHARGES


@<TRIPOS>ATOM
      1 PG         -2.2250  -19.4330  -48.2920 P.3       1 ATP802      0.0000 
      2 O1G        -2.0830  -18.7910  -49.6520 O.co2     1 ATP802      0.0000 
      3 O2G        -2.5630  -20.9050  -48.3300 O.co2     1 ATP802      0.0000 
      4 O3G        -3.0520  -18.6320  -47.3160 O.co2     1 ATP802      0.0000 
      5 PB          0.5380  -20.1060  -48.3440 P.3       1 ATP802      0.0000 
      6 O1B         0.5420  -21.5600  -47.9510 O.co2     1 ATP802      0.0000 
      7 O2B         0.6430  -19.7020  -49.7940 O.co2     1 ATP802      0.0000 
      8 O3B        -0.7400  -19.3870  -47.6690 O.3       1 ATP802      0.0000 
      9 PA          2.1060  -19.7000  -46.0620 P.3       1 ATP802      0.0000 
     10 O1A         3.0760  -20.8500  -45.9680 O.co2     1 ATP802      0.0000 
     11 O2A         0.8140  -19.7250  -45.2920 O.co2     1 ATP802      0.0000 
     12 O3A         1.7610  -19.3900  -47.5960 O.3       1 ATP802      0.0000 
     13 O5'         2.8450  -18.3270  -45.6710 O.3       1 ATP802      0.0000 
     14 C5'         2.0500  -17.1540  -45.4850 C.3       1 ATP802      0.0000 
     15 C4'         2.8640  -16.0420  -44.8320 C.3       1 ATP802      0.0000 
     16 O4'         4.1180  -16.5750  -44.4340 O.3       1 ATP802      0.0000 
     17 C3'         3.1760  -14.8710  -45.7510 C.3       1 ATP802      0.0000 
     18 O3'         2.3220  -13.7550  -45.4690 O.3       1 ATP802      0.0000 
     19 C2'         4.6240  -14.5130  -45.4660 C.3       1 ATP802      0.0000 
     20 O2'         4.6880  -13.3100  -44.6950 O.3       1 ATP802      0.0000 
     21 C1'         5.1820  -15.6560  -44.6400 C.3       1 ATP802      0.0000 
     22 N9          6.2530  -16.3520  -45.3910 N.pl3     1 ATP802      0.0000 
     23 C8          6.0860  -17.0160  -46.5470 C.2       1 ATP802      0.0000 
     24 N7          7.2590  -17.5410  -46.9800 N.2       1 ATP802      0.0000 
     25 C5          8.2090  -17.2100  -46.0890 C.ar      1 ATP802      0.0000 
     26 C6          9.6630  -17.4450  -45.9390 C.ar      1 ATP802      0.0000 
     27 N6         10.3630  -18.1540  -46.8510 N.pl3     1 ATP802      0.0000 
     28 N1         10.2710  -16.9330  -44.8550 N.ar      1 ATP802      0.0000 
     29 C2          9.5900  -16.2280  -43.9350 C.ar      1 ATP802      0.0000 
     30 N3          8.2740  -15.9710  -44.0090 N.ar      1 ATP802      0.0000 
     31 C4          7.5380  -16.4260  -45.0440 C.ar      1 ATP802      0.0000 
@<TRIPOS>BOND
     1    1    2 ar   
     2    1    3 ar   
     3    1    4 ar   
     4    1    8 1    
     5    5    6 ar   
     6    5    7 ar   
     7    5    8 1    
     8    5   12 1    
     9    9   10 ar   
    10    9   11 ar   
    11    9   12 1    
    12    9   13 1    
    13   13   14 1    
    14   14   15 1    
    15   15   16 1    
    16   15   17 1    
    17   16   21 1    
    18   17   18 1    
    19   17   19 1    
    20   19   20 1    
    21   19   21 1    
    22   21   22 1    
    23   22   23 1    
    24   22   31 1    
    25   23   24 2    
    26   24   25 1    
    27   25   26 ar   
    28   25   31 ar   
    29   26   27 1    
    30   26   28 ar   
    31   28   29 ar   
    32   29   30 ar   
    33   30   31 ar   
@<TRIPOS>SUBSTRUCTURE
     1 ATP802      1 GROUP   
@<TRIPOS>SET
ATOM$ORANGE STATIC     ATOMS   COLORGROUP SYSTEM 
20 14 14 15 15 17 17 19 19 21 21 23 23 25 25 26 26 29 \
29 31 31 

