#    Name: 6ig0_1_ATP_CAVITY_N1_4
#    Modification time : Fri May 22 19:25:52 2020

@<TRIPOS>MOLECULE
6ig0_1_ATP_CAVITY_N1_4
   58     0     7     0     0
SMALL
NO_CHARGES


@<TRIPOS>ATOM
      1 OG          9.7400  -15.8900  -46.4800 O.3       1 SER1        0.0000 
      2 OG          6.4600  -14.9100  -41.1100 O.3       1 SER1        0.0000 
      3 N           6.6600  -15.3600  -49.7200 N.am      2 ALA2        0.0000 
      4 N           5.3100  -15.7800  -49.2000 N.am      2 ALA2        0.0000 
      5 N           6.7900  -17.4900  -46.7200 N.am      2 ALA2        0.0000 
      6 N           6.1800  -16.2600  -47.3300 N.am      2 ALA2        0.0000 
      7 N           5.5700  -15.0300  -47.9300 N.am      2 ALA2        0.0000 
      8 N           4.8400  -16.6800  -46.8100 N.am      2 ALA2        0.0000 
      9 N           9.1200  -14.6600  -47.0800 N.am      2 ALA2        0.0000 
     10 N           7.0500  -16.7400  -45.4500 N.am      2 ALA2        0.0000 
     11 N           5.0900  -15.9300  -45.5400 N.am      2 ALA2        0.0000 
     12 N           7.3000  -15.9900  -44.1800 N.am      2 ALA2        0.0000 
     13 N           5.3400  -15.1800  -44.2600 N.am      2 ALA2        0.0000 
     14 O           3.9900  -15.6000  -43.7500 O.2       2 ALA2        0.0000 
     15 N           8.1700  -16.4600  -42.3000 N.am      2 ALA2        0.0000 
     16 N           6.8200  -16.8800  -41.7900 N.am      2 ALA2        0.0000 
     17 N           6.2100  -15.6600  -42.3900 N.am      2 ALA2        0.0000 
     18 OD1         4.4700  -14.7000  -46.1400 O.co2     3 ASP3        0.0000 
     19 OD1         4.7200  -13.9500  -44.8700 O.co2     3 ASP3        0.0000 
     20 OD1         3.6300  -13.6200  -43.0800 O.co2     3 ASP3        0.0000 
     21 NZ          4.9500  -13.8000  -48.5300 N.4       4 LYS4        0.0000 
     22 NZ          3.6100  -14.2200  -48.0200 N.4       4 LYS4        0.0000 
     23 NZ          7.1600  -13.8600  -47.1700 N.4       4 LYS4        0.0000 
     24 NZ          5.8200  -14.2800  -46.6500 N.4       4 LYS4        0.0000 
     25 NZ          7.4100  -13.1100  -45.8900 N.4       4 LYS4        0.0000 
     26 NZ          6.0700  -13.5300  -45.3800 N.4       4 LYS4        0.0000 
     27 NZ          9.5100  -16.0400  -42.8100 N.4       4 LYS4        0.0000 
     28 NZ          8.9000  -14.8100  -43.4200 N.4       4 LYS4        0.0000 
     29 NZ          7.5500  -15.2300  -42.9000 N.4       4 LYS4        0.0000 
     30 NZ          7.8000  -14.4800  -41.6300 N.4       4 LYS4        0.0000 
     31 NZ          5.8400  -13.6800  -41.7200 N.4       4 LYS4        0.0000 
     32 NZ          3.8800  -12.8700  -41.8000 N.4       4 LYS4        0.0000 
     33 CZ          3.9700  -16.2000  -48.6900 C.ar      5 PHE5        0.0000 
     34 CZ          3.3500  -14.9700  -49.2900 C.ar      5 PHE5        0.0000 
     35 CZ         10.3500  -17.1200  -45.8800 C.ar      5 PHE5        0.0000 
     36 CZ         10.6000  -16.3700  -44.6000 C.ar      5 PHE5        0.0000 
     37 CZ          9.3700  -13.9100  -45.8100 C.ar      5 PHE5        0.0000 
     38 CZ          8.6400  -15.5600  -44.6900 C.ar      5 PHE5        0.0000 
     39 CZ          7.0700  -16.1300  -40.5100 C.ar      5 PHE5        0.0000 
     40 CA          5.2000  -18.6600  -47.4900 C.3       6 GLY6        0.0000 
     41 CA          2.0100  -15.3900  -48.7800 C.3       6 GLY6        0.0000 
     42 CA          8.1400  -17.0600  -47.2400 C.3       6 GLY6        0.0000 
     43 CA          7.5300  -15.8400  -47.8400 C.3       6 GLY6        0.0000 
     44 CA          6.9100  -14.6100  -48.4400 C.3       6 GLY6        0.0000 
     45 CA          9.0100  -17.5400  -45.3600 C.3       6 GLY6        0.0000 
     46 CA          8.3900  -16.3100  -45.9600 C.3       6 GLY6        0.0000 
     47 CA          7.7800  -15.0900  -46.5700 C.3       6 GLY6        0.0000 
     48 CA          9.2600  -16.7900  -44.0900 C.3       6 GLY6        0.0000 
     49 CA          8.0300  -14.3400  -45.2900 C.3       6 GLY6        0.0000 
     50 CA          6.6800  -14.7600  -44.7800 C.3       6 GLY6        0.0000 
     51 CA         10.1200  -17.2700  -42.2100 C.3       6 GLY6        0.0000 
     52 CA          6.9400  -14.0100  -43.5000 C.3       6 GLY6        0.0000 
     53 CA          4.8600  -16.0800  -41.8700 C.3       6 GLY6        0.0000 
     54 DU          4.2200  -15.4500  -47.4100 H         7 CUB7        0.0000 
     55 DU          6.4300  -15.5100  -46.0500 H         7 CUB7        0.0000 
     56 DU          5.5900  -14.4300  -42.9900 H         7 CUB7        0.0000 
     57 DU          4.2500  -14.8500  -42.4800 H         7 CUB7        0.0000 
     58 DU          4.5000  -14.1000  -41.2000 H         7 CUB7        0.0000 
@<TRIPOS>BOND
@<TRIPOS>SUBSTRUCTURE
     1 SER1        1 GROUP   
     2 ALA2        3 GROUP   
     3 ASP3       18 GROUP   
     4 LYS4       21 GROUP   
     5 PHE5       33 GROUP   
     6 GLY6       40 GROUP   
     7 CUB7       54 GROUP   
@<TRIPOS>SET

