#    Name: 6j38_2_FAD
#    Modification time : Fri May 22 19:34:53 2020

@<TRIPOS>MOLECULE
6j38_2_FAD
   53    58     1     0     1
SMALL
NO_CHARGES


@<TRIPOS>ATOM
      1 PA          5.1420    0.6760  -14.6640 P.3       1 FAD501      0.0000 
      2 O1A         3.7740    1.2240  -15.0900 O.co2     1 FAD501      0.0000 
      3 O2A         5.8670   -0.2180  -15.6170 O.co2     1 FAD501      0.0000 
      4 O5B         6.0580    1.8950  -14.1810 O.3       1 FAD501      0.0000 
      5 C5B         7.4390    1.6550  -13.8640 C.3       1 FAD501      0.0000 
      6 C4B         8.1780    2.9720  -14.0400 C.3       1 FAD501      0.0000 
      7 O4B         9.5210    2.8550  -13.5360 O.3       1 FAD501      0.0000 
      8 C3B         8.2870    3.3850  -15.5090 C.3       1 FAD501      0.0000 
      9 O3B         7.5420    4.5740  -15.7520 O.3       1 FAD501      0.0000 
     10 C2B         9.7840    3.5940  -15.7510 C.3       1 FAD501      0.0000 
     11 O2B        10.1080    4.7730  -16.4900 O.3       1 FAD501      0.0000 
     12 C1B        10.3340    3.6890  -14.3460 C.3       1 FAD501      0.0000 
     13 N9A        11.7480    3.3030  -14.2830 N.pl3     1 FAD501      0.0000 
     14 C8A        12.2990    2.1930  -14.7650 C.2       1 FAD501      0.0000 
     15 N7A        13.6330    2.1990  -14.5270 N.2       1 FAD501      0.0000 
     16 C5A        13.9270    3.3350  -13.8770 C.ar      1 FAD501      0.0000 
     17 C6A        15.1420    3.9650  -13.3270 C.ar      1 FAD501      0.0000 
     18 N6A        16.3430    3.3430  -13.4440 N.pl3     1 FAD501      0.0000 
     19 N1A        15.0020    5.1630  -12.7130 N.ar      1 FAD501      0.0000 
     20 C2A        13.8170    5.7960  -12.6110 C.ar      1 FAD501      0.0000 
     21 N3A        12.6820    5.2680  -13.0870 N.ar      1 FAD501      0.0000 
     22 C4A        12.6820    4.0640  -13.7150 C.ar      1 FAD501      0.0000 
     23 N1         -4.1180   -3.8620  -14.5550 N.2       1 FAD501      0.0000 
     24 C2         -5.4200   -3.7270  -14.2380 C.2       1 FAD501      0.0000 
     25 O2         -5.7160   -3.5340  -13.0380 O.2       1 FAD501      0.0000 
     26 N3         -6.4080   -3.7710  -15.1600 N.am      1 FAD501      0.0000 
     27 C4         -6.1610   -3.9740  -16.4530 C.2       1 FAD501      0.0000 
     28 O4         -7.0880   -4.0160  -17.2960 O.2       1 FAD501      0.0000 
     29 C4X        -4.7610   -4.1380  -16.8720 C.2       1 FAD501      0.0000 
     30 N5         -4.4480   -4.3450  -18.1540 N.2       1 FAD501      0.0000 
     31 C5X        -3.1760   -4.4920  -18.5360 C.ar      1 FAD501      0.0000 
     32 C6         -2.8980   -4.6960  -19.8750 C.ar      1 FAD501      0.0000 
     33 C7         -1.5890   -4.8510  -20.3130 C.ar      1 FAD501      0.0000 
     34 C7M        -1.2900   -5.0810  -21.7680 C.3       1 FAD501      0.0000 
     35 C8         -0.5000   -4.7900  -19.3450 C.ar      1 FAD501      0.0000 
     36 C8M         0.9130   -4.9690  -19.8110 C.3       1 FAD501      0.0000 
     37 C9         -0.7680   -4.5840  -18.0070 C.ar      1 FAD501      0.0000 
     38 C9A        -2.0660   -4.4220  -17.5470 C.ar      1 FAD501      0.0000 
     39 N10        -2.3810   -4.2030  -16.1810 N.pl3     1 FAD501      0.0000 
     40 C10        -3.7340   -4.0600  -15.8270 C.2       1 FAD501      0.0000 
     41 C1'        -1.3660   -4.1780  -15.1270 C.3       1 FAD501      0.0000 
     42 C2'        -0.9180   -2.7910  -14.7280 C.3       1 FAD501      0.0000 
     43 O2'        -1.0240   -1.9410  -15.8650 O.3       1 FAD501      0.0000 
     44 C3'         0.5180   -2.8560  -14.1830 C.3       1 FAD501      0.0000 
     45 O3'         0.6660   -3.8860  -13.1810 O.3       1 FAD501      0.0000 
     46 C4'         0.8660   -1.5170  -13.5770 C.3       1 FAD501      0.0000 
     47 O4'         0.8500   -0.5810  -14.6510 O.3       1 FAD501      0.0000 
     48 C5'         2.2110   -1.5220  -12.8790 C.3       1 FAD501      0.0000 
     49 O5'         2.5520   -0.1920  -12.4980 O.3       1 FAD501      0.0000 
     50 P           4.0880    0.1060  -12.0790 P.3       1 FAD501      0.0000 
     51 O1P         4.1440    1.5850  -11.8530 O.co2     1 FAD501      0.0000 
     52 O2P         4.5300   -0.9130  -11.0570 O.co2     1 FAD501      0.0000 
     53 O3P         5.0450   -0.2120  -13.3270 O.3       1 FAD501      0.0000 
@<TRIPOS>BOND
     1    1    2 ar   
     2    1    3 ar   
     3    1    4 1    
     4    1   53 1    
     5    4    5 1    
     6    5    6 1    
     7    6    7 1    
     8    6    8 1    
     9    7   12 1    
    10    8    9 1    
    11    8   10 1    
    12   10   11 1    
    13   10   12 1    
    14   12   13 1    
    15   13   14 1    
    16   13   22 1    
    17   14   15 2    
    18   15   16 1    
    19   16   17 ar   
    20   16   22 ar   
    21   17   18 1    
    22   17   19 ar   
    23   19   20 ar   
    24   20   21 ar   
    25   21   22 ar   
    26   23   24 1    
    27   23   40 2    
    28   24   25 2    
    29   24   26 am   
    30   26   27 am   
    31   27   28 2    
    32   27   29 1    
    33   29   30 2    
    34   29   40 1    
    35   30   31 1    
    36   31   32 ar   
    37   31   38 ar   
    38   32   33 ar   
    39   33   34 1    
    40   33   35 ar   
    41   35   36 1    
    42   35   37 ar   
    43   37   38 ar   
    44   38   39 1    
    45   39   40 1    
    46   39   41 1    
    47   41   42 1    
    48   42   43 1    
    49   42   44 1    
    50   44   45 1    
    51   44   46 1    
    52   46   47 1    
    53   46   48 1    
    54   48   49 1    
    55   49   50 1    
    56   50   51 ar   
    57   50   52 ar   
    58   50   53 1    
@<TRIPOS>SUBSTRUCTURE
     1 FAD501      1 GROUP   
@<TRIPOS>SET
ATOM$ORANGE STATIC     ATOMS   COLORGROUP SYSTEM 
54 5 5 6 6 8 8 10 10 12 12 14 14 16 16 17 17 20 \
20 22 22 24 24 27 27 29 29 31 31 32 32 33 33 34 34 35 \
35 36 36 37 37 38 38 40 40 41 41 42 42 44 44 46 46 48 \
48 

