#    Name: 6j38_1_FAD
#    Modification time : Fri May 22 19:34:48 2020

@<TRIPOS>MOLECULE
6j38_1_FAD
   53    58     1     0     1
SMALL
NO_CHARGES


@<TRIPOS>ATOM
      1 PA        -14.0400    6.4810   31.8910 P.3       1 FAD501      0.0000 
      2 O1A       -12.7860    5.8100   32.4130 O.co2     1 FAD501      0.0000 
      3 O2A       -15.3110    6.4200   32.6930 O.co2     1 FAD501      0.0000 
      4 O5B       -13.6280    7.9930   31.6070 O.3       1 FAD501      0.0000 
      5 C5B       -14.6040    8.9510   31.2720 C.3       1 FAD501      0.0000 
      6 C4B       -13.9700   10.2860   31.6240 C.3       1 FAD501      0.0000 
      7 O4B       -14.8010   11.3390   31.1340 O.3       1 FAD501      0.0000 
      8 C3B       -13.7720   10.5080   33.1210 C.3       1 FAD501      0.0000 
      9 O3B       -12.3680   10.7790   33.4240 O.3       1 FAD501      0.0000 
     10 C2B       -14.6850   11.6990   33.4080 C.3       1 FAD501      0.0000 
     11 O2B       -14.1560   12.5990   34.3770 O.3       1 FAD501      0.0000 
     12 C1B       -14.8140   12.3930   32.0740 C.3       1 FAD501      0.0000 
     13 N9A       -16.0460   13.1910   31.9250 N.pl3     1 FAD501      0.0000 
     14 C8A       -17.2920   12.8200   32.2320 C.2       1 FAD501      0.0000 
     15 N7A       -18.1430   13.8320   31.9510 N.2       1 FAD501      0.0000 
     16 C5A       -17.4580   14.8430   31.4330 C.ar      1 FAD501      0.0000 
     17 C6A       -17.7480   16.1840   30.9470 C.ar      1 FAD501      0.0000 
     18 N6A       -18.9950   16.6490   30.9480 N.pl3     1 FAD501      0.0000 
     19 N1A       -16.7500   16.9460   30.4930 N.ar      1 FAD501      0.0000 
     20 C2A       -15.4920   16.5010   30.5080 C.ar      1 FAD501      0.0000 
     21 N3A       -15.1550   15.2850   30.9440 N.ar      1 FAD501      0.0000 
     22 C4A       -16.0740   14.4240   31.4140 C.ar      1 FAD501      0.0000 
     23 N1        -11.5110   -3.3430   31.0610 N.2       1 FAD501      0.0000 
     24 C2        -10.5750   -4.1890   30.6470 C.2       1 FAD501      0.0000 
     25 O2        -10.2030   -4.0840   29.4560 O.2       1 FAD501      0.0000 
     26 N3        -10.0590   -5.1040   31.4890 N.am      1 FAD501      0.0000 
     27 C4        -10.4570   -5.2160   32.7680 C.2       1 FAD501      0.0000 
     28 O4        -10.0240   -6.0580   33.5480 O.2       1 FAD501      0.0000 
     29 C4X       -11.4690   -4.3150   33.2830 C.2       1 FAD501      0.0000 
     30 N5        -11.9030   -4.3750   34.5530 N.2       1 FAD501      0.0000 
     31 C5X       -12.8670   -3.5160   34.9560 C.ar      1 FAD501      0.0000 
     32 C6        -13.3210   -3.5780   36.2620 C.ar      1 FAD501      0.0000 
     33 C7        -14.2850   -2.6940   36.7030 C.ar      1 FAD501      0.0000 
     34 C7M       -14.7550   -2.7610   38.1160 C.3       1 FAD501      0.0000 
     35 C8        -14.8460   -1.6930   35.7920 C.ar      1 FAD501      0.0000 
     36 C8M       -15.8890   -0.7330   36.2800 C.3       1 FAD501      0.0000 
     37 C9        -14.4090   -1.6240   34.4810 C.ar      1 FAD501      0.0000 
     38 C9A       -13.4300   -2.5010   34.0170 C.ar      1 FAD501      0.0000 
     39 N10       -12.9370   -2.4540   32.6870 N.pl3     1 FAD501      0.0000 
     40 C10       -11.9800   -3.3610   32.3100 C.2       1 FAD501      0.0000 
     41 C1'       -13.4300   -1.5830   31.6290 C.3       1 FAD501      0.0000 
     42 C2'       -12.7620   -0.2790   31.5610 C.3       1 FAD501      0.0000 
     43 O2'       -12.5440    0.1210   32.9120 O.3       1 FAD501      0.0000 
     44 C3'       -13.7380    0.6250   30.8400 C.3       1 FAD501      0.0000 
     45 O3'       -14.3490   -0.0320   29.7280 O.3       1 FAD501      0.0000 
     46 C4'       -12.9660    1.8280   30.3800 C.3       1 FAD501      0.0000 
     47 O4'       -12.5330    2.4710   31.5610 O.3       1 FAD501      0.0000 
     48 C5'       -13.8380    2.8140   29.6570 C.3       1 FAD501      0.0000 
     49 O5'       -13.1240    4.0200   29.8130 O.3       1 FAD501      0.0000 
     50 P         -13.5920    5.4010   29.2040 P.3       1 FAD501      0.0000 
     51 O1P       -12.2790    6.1210   28.9830 O.co2     1 FAD501      0.0000 
     52 O2P       -14.5780    5.1950   28.1100 O.co2     1 FAD501      0.0000 
     53 O3P       -14.4490    6.0270   30.3920 O.3       1 FAD501      0.0000 
@<TRIPOS>BOND
     1    1    2 ar   
     2    1    3 ar   
     3    1    4 1    
     4    1   53 1    
     5    4    5 1    
     6    5    6 1    
     7    6    7 1    
     8    6    8 1    
     9    7   12 1    
    10    8    9 1    
    11    8   10 1    
    12   10   11 1    
    13   10   12 1    
    14   12   13 1    
    15   13   14 1    
    16   13   22 1    
    17   14   15 2    
    18   15   16 1    
    19   16   17 ar   
    20   16   22 ar   
    21   17   18 1    
    22   17   19 ar   
    23   19   20 ar   
    24   20   21 ar   
    25   21   22 ar   
    26   23   24 1    
    27   23   40 2    
    28   24   25 2    
    29   24   26 am   
    30   26   27 am   
    31   27   28 2    
    32   27   29 1    
    33   29   30 2    
    34   29   40 1    
    35   30   31 1    
    36   31   32 ar   
    37   31   38 ar   
    38   32   33 ar   
    39   33   34 1    
    40   33   35 ar   
    41   35   36 1    
    42   35   37 ar   
    43   37   38 ar   
    44   38   39 1    
    45   39   40 1    
    46   39   41 1    
    47   41   42 1    
    48   42   43 1    
    49   42   44 1    
    50   44   45 1    
    51   44   46 1    
    52   46   47 1    
    53   46   48 1    
    54   48   49 1    
    55   49   50 1    
    56   50   51 ar   
    57   50   52 ar   
    58   50   53 1    
@<TRIPOS>SUBSTRUCTURE
     1 FAD501      1 GROUP   
@<TRIPOS>SET
ATOM$ORANGE STATIC     ATOMS   COLORGROUP SYSTEM 
54 5 5 6 6 8 8 10 10 12 12 14 14 16 16 17 17 20 \
20 22 22 24 24 27 27 29 29 31 31 32 32 33 33 34 34 35 \
35 36 36 37 37 38 38 40 40 41 41 42 42 44 44 46 46 48 \
48 

