#    Name: 5osp_1_ATP
#    Modification time : Fri May 22 19:13:33 2020

@<TRIPOS>MOLECULE
5osp_1_ATP
   31    33     1     0     1
SMALL
NO_CHARGES


@<TRIPOS>ATOM
      1 PG       -121.9880 -181.8290  297.8680 P.3       1 ATP401      0.0000 
      2 O1G      -121.9670 -182.4400  296.4890 O.co2     1 ATP401      0.0000 
      3 O2G      -122.1840 -180.3340  297.8750 O.co2     1 ATP401      0.0000 
      4 O3G      -120.8760 -182.3150  298.7560 O.co2     1 ATP401      0.0000 
      5 PB       -123.4840 -183.8460  299.2020 P.3       1 ATP401      0.0000 
      6 O1B      -124.5770 -184.5840  298.4760 O.co2     1 ATP401      0.0000 
      7 O2B      -122.1180 -184.4710  299.3180 O.co2     1 ATP401      0.0000 
      8 O3B      -123.3470 -182.3810  298.5450 O.3       1 ATP401      0.0000 
      9 PA       -123.0630 -183.2380  301.9240 P.3       1 ATP401      0.0000 
     10 O1A      -121.6560 -183.0750  301.4060 O.co2     1 ATP401      0.0000 
     11 O2A      -123.3360 -184.2580  303.0010 O.co2     1 ATP401      0.0000 
     12 O3A      -124.0380 -183.4650  300.6630 O.3       1 ATP401      0.0000 
     13 O5'      -123.5530 -181.7960  302.4360 O.3       1 ATP401      0.0000 
     14 C5'      -123.3340 -180.6730  301.5860 C.3       1 ATP401      0.0000 
     15 C4'      -123.3730 -179.3530  302.3450 C.3       1 ATP401      0.0000 
     16 O4'      -124.5020 -179.2390  303.2190 O.3       1 ATP401      0.0000 
     17 C3'      -122.1620 -179.1670  303.2370 C.3       1 ATP401      0.0000 
     18 O3'      -121.0410 -178.6750  302.5020 O.3       1 ATP401      0.0000 
     19 C2'      -122.6650 -178.1700  304.2570 C.3       1 ATP401      0.0000 
     20 O2'      -122.5020 -176.8480  303.7450 O.3       1 ATP401      0.0000 
     21 C1'      -124.1490 -178.4690  304.3710 C.3       1 ATP401      0.0000 
     22 N9       -124.3250 -179.2850  305.5940 N.pl3     1 ATP401      0.0000 
     23 C8       -124.3120 -180.6280  305.6200 C.2       1 ATP401      0.0000 
     24 N7       -124.4820 -181.0960  306.8790 N.2       1 ATP401      0.0000 
     25 C5       -124.6030 -180.0330  307.6870 C.ar      1 ATP401      0.0000 
     26 C6       -124.8050 -179.8290  309.1370 C.ar      1 ATP401      0.0000 
     27 N6       -124.9130 -180.8910  309.9630 N.pl3     1 ATP401      0.0000 
     28 N1       -124.8790 -178.5590  309.5930 N.ar      1 ATP401      0.0000 
     29 C2       -124.7710 -177.5080  308.7590 C.ar      1 ATP401      0.0000 
     30 N3       -124.5860 -177.6240  307.4310 N.ar      1 ATP401      0.0000 
     31 C4       -124.4950 -178.8390  306.8410 C.ar      1 ATP401      0.0000 
@<TRIPOS>BOND
     1    1    2 ar   
     2    1    3 ar   
     3    1    4 ar   
     4    1    8 1    
     5    5    6 ar   
     6    5    7 ar   
     7    5    8 1    
     8    5   12 1    
     9    9   10 ar   
    10    9   11 ar   
    11    9   12 1    
    12    9   13 1    
    13   13   14 1    
    14   14   15 1    
    15   15   16 1    
    16   15   17 1    
    17   16   21 1    
    18   17   18 1    
    19   17   19 1    
    20   19   20 1    
    21   19   21 1    
    22   21   22 1    
    23   22   23 1    
    24   22   31 1    
    25   23   24 2    
    26   24   25 1    
    27   25   26 ar   
    28   25   31 ar   
    29   26   27 1    
    30   26   28 ar   
    31   28   29 ar   
    32   29   30 ar   
    33   30   31 ar   
@<TRIPOS>SUBSTRUCTURE
     1 ATP401      1 GROUP   
@<TRIPOS>SET
ATOM$ORANGE STATIC     ATOMS   COLORGROUP SYSTEM 
20 14 14 15 15 17 17 19 19 21 21 23 23 25 25 26 26 29 \
29 31 31 

