#    Name: 5yrt_3_5AD_CAVITY_N1_4
#    Modification time : Fri May 22 19:17:19 2020

@<TRIPOS>MOLECULE
5yrt_3_5AD_CAVITY_N1_4
   77     0     5     0     0
SMALL
NO_CHARGES


@<TRIPOS>ATOM
      1 OG       -143.8800  211.1800    8.4800 O.3       1 SER1        0.0000 
      2 OG       -143.0000  210.0000    8.7500 O.3       1 SER1        0.0000 
      3 OG       -142.1100  208.8200    9.0200 O.3       1 SER1        0.0000 
      4 OG       -145.3900  206.9100   11.4400 O.3       1 SER1        0.0000 
      5 OG       -142.3200  207.0000   10.1000 O.3       1 SER1        0.0000 
      6 OG       -143.4100  206.3700   10.9100 O.3       1 SER1        0.0000 
      7 OG       -144.5000  205.7300   11.7100 O.3       1 SER1        0.0000 
      8 OG       -140.2900  211.9500    8.3800 O.3       1 SER1        0.0000 
      9 OG       -142.4800  210.6700    9.9900 O.3       1 SER1        0.0000 
     10 OG       -143.5700  210.0400   10.7900 O.3       1 SER1        0.0000 
     11 OG       -140.5000  210.1300    9.4500 O.3       1 SER1        0.0000 
     12 OG       -141.5900  209.4900   10.2600 O.3       1 SER1        0.0000 
     13 OG       -142.6800  208.8600   11.0700 O.3       1 SER1        0.0000 
     14 OG       -143.7800  208.2200   11.8700 O.3       1 SER1        0.0000 
     15 OG       -139.6100  208.9500    9.7200 O.3       1 SER1        0.0000 
     16 OG       -141.8000  207.6800   11.3400 O.3       1 SER1        0.0000 
     17 OG       -142.8900  207.0400   12.1400 O.3       1 SER1        0.0000 
     18 OG       -139.8200  207.1300   10.8000 O.3       1 SER1        0.0000 
     19 OG       -140.9100  206.5000   11.6100 O.3       1 SER1        0.0000 
     20 OG       -142.0100  205.8600   12.4100 O.3       1 SER1        0.0000 
     21 OG       -138.9300  205.9600   11.0700 O.3       1 SER1        0.0000 
     22 OG       -144.1500  210.0700   12.8400 O.3       1 SER1        0.0000 
     23 OG       -137.7900  212.0800    9.0800 O.3       1 SER1        0.0000 
     24 OG       -138.8900  211.4400    9.8800 O.3       1 SER1        0.0000 
     25 OG       -138.0000  210.2600   10.1500 O.3       1 SER1        0.0000 
     26 OG       -140.1900  208.9900   11.7700 O.3       1 SER1        0.0000 
     27 OG       -141.2800  208.3500   12.5700 O.3       1 SER1        0.0000 
     28 OG       -139.3000  207.8100   12.0400 O.3       1 SER1        0.0000 
     29 OG       -138.7800  208.4800   13.2700 O.3       1 SER1        0.0000 
     30 N        -142.7900  211.8200    7.6800 N.am      2 ALA2        0.0000 
     31 N        -140.8100  211.2700    7.1400 N.am      2 ALA2        0.0000 
     32 N        -141.9000  210.6400    7.9500 N.am      2 ALA2        0.0000 
     33 N        -143.6200  204.5500   11.9800 N.am      2 ALA2        0.0000 
     34 O        -139.4500  205.2800    9.8400 O.2       2 ALA2        0.0000 
     35 N        -141.1800  213.1300    8.1100 N.am      2 ALA2        0.0000 
     36 N        -142.2700  212.4900    8.9100 N.am      2 ALA2        0.0000 
     37 O        -139.2000  212.5800    7.5700 O.2       2 ALA2        0.0000 
     38 O        -143.1000  205.2200   13.2200 O.2       2 ALA2        0.0000 
     39 N        -144.1900  204.5900   14.0200 N.am      2 ALA2        0.0000 
     40 O        -141.1200  204.6800   12.6800 O.2       2 ALA2        0.0000 
     41 N        -138.6800  213.2600    8.8100 N.am      2 ALA2        0.0000 
     42 N        -143.4700  207.0800   14.1800 N.am      2 ALA2        0.0000 
     43 N        -144.5600  206.4400   14.9900 N.am      2 ALA2        0.0000 
     44 N        -142.9500  207.7500   15.4200 N.am      2 ALA2        0.0000 
     45 N        -142.0600  206.5700   15.6900 N.am      2 ALA2        0.0000 
     46 CZ       -144.8700  207.5800   12.6800 C.ar      3 PHE5        0.0000 
     47 CZ       -145.9600  206.9500   13.4800 C.ar      3 PHE5        0.0000 
     48 CZ       -137.8400  206.5900   10.2700 C.ar      3 PHE5        0.0000 
     49 CZ       -144.3500  208.2600   13.9100 C.ar      3 PHE5        0.0000 
     50 CZ       -138.2100  208.4400   11.2300 C.ar      3 PHE5        0.0000 
     51 CZ       -137.3200  207.2700   11.5000 C.ar      3 PHE5        0.0000 
     52 CZ       -137.6900  209.1200   12.4700 C.ar      3 PHE5        0.0000 
     53 CA       -141.0200  209.4600    8.2200 C.3       4 GLY6        0.0000 
     54 CA       -141.2200  207.6400    9.2900 C.3       4 GLY6        0.0000 
     55 CA       -145.6000  205.0900   12.5200 C.3       4 GLY6        0.0000 
     56 CA       -140.3400  206.4600    9.5700 C.3       4 GLY6        0.0000 
     57 CA       -141.4300  205.8200   10.3700 C.3       4 GLY6        0.0000 
     58 CA       -142.5200  205.1900   11.1800 C.3       4 GLY6        0.0000 
     59 CA       -140.5400  204.6400   10.6400 C.3       4 GLY6        0.0000 
     60 CA       -145.0800  205.7700   13.7500 C.3       4 GLY6        0.0000 
     61 CA       -138.7300  207.7700   10.0000 C.3       4 GLY6        0.0000 
     62 CA       -145.4500  207.6200   14.7200 C.3       4 GLY6        0.0000 
     63 CA       -142.3700  207.7100   13.3800 C.3       4 GLY6        0.0000 
     64 CA       -142.5800  205.9000   14.4500 C.3       4 GLY6        0.0000 
     65 CA       -141.8500  208.3900   14.6100 C.3       4 GLY6        0.0000 
     66 DU       -143.3600  211.8500    9.7200 H         5 CUB7        0.0000 
     67 DU       -141.3800  211.3100    9.1800 H         5 CUB7        0.0000 
     68 DU       -140.7100  208.3100   10.5300 H         5 CUB7        0.0000 
     69 DU       -143.9900  206.4000   12.9500 H         5 CUB7        0.0000 
     70 DU       -141.7500  213.1600   10.1500 H         5 CUB7        0.0000 
     71 DU       -139.7700  212.6200    9.6100 H         5 CUB7        0.0000 
     72 DU       -140.8700  211.9800   10.4200 H         5 CUB7        0.0000 
     73 DU       -141.9600  211.3500   11.2200 H         5 CUB7        0.0000 
     74 DU       -139.9800  210.8000   10.6900 H         5 CUB7        0.0000 
     75 DU       -142.1700  209.5300   12.3000 H         5 CUB7        0.0000 
     76 DU       -143.2600  208.8900   13.1100 H         5 CUB7        0.0000 
     77 DU       -139.0900  209.6200   10.9600 H         5 CUB7        0.0000 
@<TRIPOS>BOND
@<TRIPOS>SUBSTRUCTURE
     1 SER1        1 GROUP   
     2 ALA2       30 GROUP   
     3 PHE5       46 GROUP   
     4 GLY6       53 GROUP   
     5 CUB7       66 GROUP   
@<TRIPOS>SET

