#    Name: 5yrt_1_5AD
#    Modification time : Fri May 22 19:17:06 2020

@<TRIPOS>MOLECULE
5yrt_1_5AD
   18    20     1     0     0
SMALL
NO_CHARGES


@<TRIPOS>ATOM
      1 N1       -102.3040  158.2320  -18.2410 N.ar      1 5AD604      0.0000 
      2 C2       -101.5910  157.1410  -17.9130 C.ar      1 5AD604      0.0000 
      3 N3       -101.2220  156.2080  -18.7990 N.ar      1 5AD604      0.0000 
      4 C4       -101.5710  156.3390  -20.1050 C.ar      1 5AD604      0.0000 
      5 N9       -101.3590  155.6000  -21.1860 N.pl3     1 5AD604      0.0000 
      6 C8       -101.9380  156.1920  -22.2520 C.2       1 5AD604      0.0000 
      7 N7       -102.5410  157.3490  -21.8810 N.2       1 5AD604      0.0000 
      8 C5       -102.3400  157.5080  -20.5510 C.ar      1 5AD604      0.0000 
      9 C6       -102.7170  158.4890  -19.5050 C.ar      1 5AD604      0.0000 
     10 N6       -103.4300  159.6090  -19.8020 N.pl3     1 5AD604      0.0000 
     11 C1'      -100.5780  154.3410  -21.2120 C.3       1 5AD604      0.0000 
     12 C2'      -101.3820  153.1310  -20.8180 C.3       1 5AD604      0.0000 
     13 C3'      -101.9480  152.6740  -22.1430 C.3       1 5AD604      0.0000 
     14 C4'      -100.8390  153.0360  -23.1320 C.3       1 5AD604      0.0000 
     15 C5'      -101.3530  153.3900  -24.5270 C.3       1 5AD604      0.0000 
     16 O4'      -100.1360  154.1520  -22.5620 O.3       1 5AD604      0.0000 
     17 O2'      -100.3910  152.2140  -20.3070 O.3       1 5AD604      0.0000 
     18 O3'      -102.2180  151.2650  -22.1290 O.3       1 5AD604      0.0000 
@<TRIPOS>BOND
     1    1    2 ar   
     2    1    9 ar   
     3    2    3 ar   
     4    3    4 ar   
     5    4    5 1    
     6    4    8 ar   
     7    5    6 1    
     8    5   11 1    
     9    6    7 2    
    10    7    8 1    
    11    8    9 ar   
    12    9   10 1    
    13   11   12 1    
    14   11   16 1    
    15   12   13 1    
    16   12   17 1    
    17   13   14 1    
    18   13   18 1    
    19   14   15 1    
    20   14   16 1    
@<TRIPOS>SUBSTRUCTURE
     1 5AD604      1 GROUP   
@<TRIPOS>SET

