#    Name: 5yrt_4_5AD_CAVITY_N1_4
#    Modification time : Fri May 22 19:17:25 2020

@<TRIPOS>MOLECULE
5yrt_4_5AD_CAVITY_N1_4
   61     0     5     0     0
SMALL
NO_CHARGES


@<TRIPOS>ATOM
      1 OG       -117.7000  164.4300   26.6200 O.3       1 SER1        0.0000 
      2 OG       -118.9600  167.4600   27.3100 O.3       1 SER1        0.0000 
      3 OG       -117.1800  165.1100   27.8500 O.3       1 SER1        0.0000 
      4 OG       -115.2000  164.5600   27.3200 O.3       1 SER1        0.0000 
      5 OG       -116.3000  163.9300   28.1200 O.3       1 SER1        0.0000 
      6 OG       -119.5300  167.5000   29.3500 O.3       1 SER1        0.0000 
      7 OG       -117.5500  166.9600   28.8200 O.3       1 SER1        0.0000 
      8 OG       -117.7600  165.1400   29.8900 O.3       1 SER1        0.0000 
      9 OG       -115.7800  164.6000   29.3600 O.3       1 SER1        0.0000 
     10 OG       -116.8700  163.9600   30.1700 O.3       1 SER1        0.0000 
     11 OG       -117.9700  163.3300   30.9700 O.3       1 SER1        0.0000 
     12 OG       -119.9000  169.3500   30.3200 O.3       1 SER1        0.0000 
     13 OG       -119.0100  168.1800   30.5900 O.3       1 SER1        0.0000 
     14 OG       -115.9400  168.2700   29.2500 O.3       1 SER1        0.0000 
     15 OG       -117.0300  167.6300   30.0500 O.3       1 SER1        0.0000 
     16 OG       -117.4000  169.4900   31.0200 O.3       1 SER1        0.0000 
     17 OG       -116.5100  168.3100   31.2900 O.3       1 SER1        0.0000 
     18 OG       -117.6100  167.6700   32.1000 O.3       1 SER1        0.0000 
     19 OG       -116.7200  166.4900   32.3700 O.3       1 SER1        0.0000 
     20 OG       -116.9300  164.6700   33.4400 O.3       1 SER1        0.0000 
     21 OG       -116.2000  167.1600   33.6000 O.3       1 SER1        0.0000 
     22 N        -119.1100  164.9400   25.1100 N.am      2 ALA2        0.0000 
     23 O        -118.3800  167.4300   25.2700 O.2       2 ALA2        0.0000 
     24 N        -119.4800  166.7900   26.0800 N.am      2 ALA2        0.0000 
     25 N        -117.5000  166.2500   25.5400 N.am      2 ALA2        0.0000 
     26 N        -115.5200  165.7100   25.0100 N.am      2 ALA2        0.0000 
     27 N        -115.8800  167.5600   25.9700 N.am      2 ALA2        0.0000 
     28 CZ       -118.2200  163.7600   25.3800 C.ar      3 PHE5        0.0000 
     29 CZ       -116.6100  165.0700   25.8100 C.ar      3 PHE5        0.0000 
     30 CZ       -115.7200  163.8900   26.0800 C.ar      3 PHE5        0.0000 
     31 CZ       -118.4900  168.8500   31.8200 C.ar      3 PHE5        0.0000 
     32 CZ       -116.0000  168.9800   32.5300 C.ar      3 PHE5        0.0000 
     33 CZ       -117.0900  168.3400   33.3300 C.ar      3 PHE5        0.0000 
     34 CA       -118.0100  165.5700   24.3000 C.3       4 GLY6        0.0000 
     35 CA       -117.1300  164.4000   24.5800 C.3       4 GLY6        0.0000 
     36 CA       -118.5900  165.6100   26.3500 C.3       4 GLY6        0.0000 
     37 CA       -119.6800  164.9800   27.1500 C.3       4 GLY6        0.0000 
     38 CA       -120.0500  166.8300   28.1200 C.3       4 GLY6        0.0000 
     39 CA       -116.9800  166.9200   26.7800 C.3       4 GLY6        0.0000 
     40 CA       -119.1600  165.6500   28.3900 C.3       4 GLY6        0.0000 
     41 CA       -120.2600  165.0100   29.1900 C.3       4 GLY6        0.0000 
     42 CA       -120.6200  166.8600   30.1600 C.3       4 GLY6        0.0000 
     43 CA       -115.3700  168.2300   27.2100 C.3       4 GLY6        0.0000 
     44 CA       -116.4600  167.6000   28.0100 C.3       4 GLY6        0.0000 
     45 CA       -119.7400  165.6900   30.4300 C.3       4 GLY6        0.0000 
     46 CA       -118.8500  164.5100   30.7000 C.3       4 GLY6        0.0000 
     47 CA       -120.1100  167.5400   31.3900 C.3       4 GLY6        0.0000 
     48 CA       -119.2200  166.3600   31.6700 C.3       4 GLY6        0.0000 
     49 CA       -118.3300  165.1800   31.9400 C.3       4 GLY6        0.0000 
     50 CA       -117.4500  164.0000   32.2100 C.3       4 GLY6        0.0000 
     51 DU       -118.0700  166.2900   27.5800 H         5 CUB7        0.0000 
     52 DU       -116.0900  165.7400   27.0500 H         5 CUB7        0.0000 
     53 DU       -118.6500  166.3200   29.6200 H         5 CUB7        0.0000 
     54 DU       -115.5700  166.4200   28.2800 H         5 CUB7        0.0000 
     55 DU       -116.6700  165.7800   29.0900 H         5 CUB7        0.0000 
     56 DU       -118.1300  167.0000   30.8600 H         5 CUB7        0.0000 
     57 DU       -115.0500  167.0900   29.5200 H         5 CUB7        0.0000 
     58 DU       -116.1500  166.4500   30.3200 H         5 CUB7        0.0000 
     59 DU       -117.2400  165.8200   31.1300 H         5 CUB7        0.0000 
     60 DU       -116.3500  164.6400   31.4000 H         5 CUB7        0.0000 
     61 DU       -115.6300  167.1300   31.5600 H         5 CUB7        0.0000 
@<TRIPOS>BOND
@<TRIPOS>SUBSTRUCTURE
     1 SER1        1 GROUP   
     2 ALA2       22 GROUP   
     3 PHE5       28 GROUP   
     4 GLY6       34 GROUP   
     5 CUB7       51 GROUP   
@<TRIPOS>SET

