#    Name: 5yrt_2_5AD
#    Modification time : Fri May 22 19:17:11 2020

@<TRIPOS>MOLECULE
5yrt_2_5AD
   18    20     1     0     0
SMALL
NO_CHARGES


@<TRIPOS>ATOM
      1 N1        -99.2810  191.5150  -54.8150 N.ar      1 5AD604      0.0000 
      2 C2        -99.9160  192.6810  -55.0540 C.ar      1 5AD604      0.0000 
      3 N3       -101.2480  192.8370  -54.9660 N.ar      1 5AD604      0.0000 
      4 C4       -102.0350  191.7920  -54.6020 C.ar      1 5AD604      0.0000 
      5 N9       -103.3430  191.6140  -54.4200 N.pl3     1 5AD604      0.0000 
      6 C8       -103.5690  190.3350  -54.0520 C.2       1 5AD604      0.0000 
      7 N7       -102.4100  189.6430  -53.9840 N.2       1 5AD604      0.0000 
      8 C5       -101.4100  190.4890  -54.3100 C.ar      1 5AD604      0.0000 
      9 C6        -99.9390  190.3950  -54.4440 C.ar      1 5AD604      0.0000 
     10 N6        -99.2700  189.2370  -54.1780 N.pl3     1 5AD604      0.0000 
     11 C1'      -104.4020  192.6370  -54.5640 C.3       1 5AD604      0.0000 
     12 C2'      -104.7950  192.8450  -56.0060 C.3       1 5AD604      0.0000 
     13 C3'      -105.9790  191.9290  -56.1690 C.3       1 5AD604      0.0000 
     14 C4'      -106.6020  191.8530  -54.7750 C.3       1 5AD604      0.0000 
     15 C5'      -107.2460  190.5080  -54.4390 C.3       1 5AD604      0.0000 
     16 O4'      -105.5350  192.1430  -53.8550 O.3       1 5AD604      0.0000 
     17 O2'      -105.1910  194.2130  -56.1750 O.3       1 5AD604      0.0000 
     18 O3'      -106.8750  192.4720  -57.1410 O.3       1 5AD604      0.0000 
@<TRIPOS>BOND
     1    1    2 ar   
     2    1    9 ar   
     3    2    3 ar   
     4    3    4 ar   
     5    4    5 1    
     6    4    8 ar   
     7    5    6 1    
     8    5   11 1    
     9    6    7 2    
    10    7    8 1    
    11    8    9 ar   
    12    9   10 1    
    13   11   12 1    
    14   11   16 1    
    15   12   13 1    
    16   12   17 1    
    17   13   14 1    
    18   13   18 1    
    19   14   15 1    
    20   14   16 1    
@<TRIPOS>SUBSTRUCTURE
     1 5AD604      1 GROUP   
@<TRIPOS>SET

