#    Name: 5yrt_4_5AD
#    Modification time : Fri May 22 19:17:24 2020

@<TRIPOS>MOLECULE
5yrt_4_5AD
   18    20     1     0     0
SMALL
NO_CHARGES


@<TRIPOS>ATOM
      1 N1       -118.9660  164.5100   24.2800 N.ar      1 5AD604      0.0000 
      2 C2       -118.9820  163.6670   25.3250 C.ar      1 5AD604      0.0000 
      3 N3       -119.0510  164.0770   26.6000 N.ar      1 5AD604      0.0000 
      4 C4       -119.0870  165.4000   26.8720 C.ar      1 5AD604      0.0000 
      5 N9       -119.1470  166.0970   27.9920 N.pl3     1 5AD604      0.0000 
      6 C8       -119.1630  167.4170   27.7170 C.2       1 5AD604      0.0000 
      7 N7       -119.1040  167.6130   26.3740 N.2       1 5AD604      0.0000 
      8 C5       -119.0660  166.3920   25.7890 C.ar      1 5AD604      0.0000 
      9 C6       -119.0000  165.8530   24.4150 C.ar      1 5AD604      0.0000 
     10 N6       -118.9840  166.6740   23.3340 N.pl3     1 5AD604      0.0000 
     11 C1'      -119.2230  165.4820   29.3220 C.3       1 5AD604      0.0000 
     12 C2'      -117.8580  165.0850   29.8210 C.3       1 5AD604      0.0000 
     13 C3'      -117.4490  166.2900   30.6340 C.3       1 5AD604      0.0000 
     14 C4'      -118.7630  166.8690   31.1330 C.3       1 5AD604      0.0000 
     15 C5'      -118.6990  168.3810   31.2830 C.3       1 5AD604      0.0000 
     16 O4'      -119.7640  166.4700   30.1840 O.3       1 5AD604      0.0000 
     17 O2'      -118.0880  163.9520   30.6670 O.3       1 5AD604      0.0000 
     18 O3'      -116.6110  165.9050   31.7270 O.3       1 5AD604      0.0000 
@<TRIPOS>BOND
     1    1    2 ar   
     2    1    9 ar   
     3    2    3 ar   
     4    3    4 ar   
     5    4    5 1    
     6    4    8 ar   
     7    5    6 1    
     8    5   11 1    
     9    6    7 2    
    10    7    8 1    
    11    8    9 ar   
    12    9   10 1    
    13   11   12 1    
    14   11   16 1    
    15   12   13 1    
    16   12   17 1    
    17   13   14 1    
    18   13   18 1    
    19   14   15 1    
    20   14   16 1    
@<TRIPOS>SUBSTRUCTURE
     1 5AD604      1 GROUP   
@<TRIPOS>SET

