#    Name: 5yrt_2_5AD_CAVITY_N1_6
#    Modification time : Fri May 22 19:17:13 2020

@<TRIPOS>MOLECULE
5yrt_2_5AD_CAVITY_N1_6
  102     0     5     0     0
SMALL
NO_CHARGES


@<TRIPOS>ATOM
      1 OG       -111.8700  192.7000  -60.4200 O.3       1 SER1        0.0000 
      2 OG       -112.0800  190.8800  -59.3400 O.3       1 SER1        0.0000 
      3 OG       -110.4700  192.1900  -58.9100 O.3       1 SER1        0.0000 
      4 OG       -110.6800  190.3800  -57.8300 O.3       1 SER1        0.0000 
      5 OG       -108.8600  193.5000  -58.4800 O.3       1 SER1        0.0000 
      6 OG       -109.9500  192.8700  -57.6800 O.3       1 SER1        0.0000 
      7 OG       -111.0400  192.2300  -56.8700 O.3       1 SER1        0.0000 
      8 OG       -109.0600  191.6900  -57.4000 O.3       1 SER1        0.0000 
      9 OG       -102.9200  191.8800  -60.0900 O.3       1 SER1        0.0000 
     10 OG       -106.2000  189.9700  -57.6700 O.3       1 SER1        0.0000 
     11 OG       -107.2900  189.3300  -56.8600 O.3       1 SER1        0.0000 
     12 OG       -105.3100  188.7900  -57.4000 O.3       1 SER1        0.0000 
     13 OG       -107.5000  187.5100  -55.7900 O.3       1 SER1        0.0000 
     14 OG       -108.3400  194.1800  -57.2500 O.3       1 SER1        0.0000 
     15 OG       -105.2700  194.2700  -58.5900 O.3       1 SER1        0.0000 
     16 OG       -107.4500  193.0000  -56.9700 O.3       1 SER1        0.0000 
     17 OG       -108.5500  192.3600  -56.1700 O.3       1 SER1        0.0000 
     18 OG       -103.2900  193.7300  -59.1200 O.3       1 SER1        0.0000 
     19 OG       -104.3800  193.0900  -58.3200 O.3       1 SER1        0.0000 
     20 OG       -107.6600  191.1800  -55.9000 O.3       1 SER1        0.0000 
     21 OG       -102.4000  192.5500  -58.8500 O.3       1 SER1        0.0000 
     22 OG       -103.4900  191.9100  -58.0400 O.3       1 SER1        0.0000 
     23 OG       -105.6800  190.6400  -56.4300 O.3       1 SER1        0.0000 
     24 OG       -106.7700  190.0000  -55.6300 O.3       1 SER1        0.0000 
     25 OG       -101.5100  191.3700  -58.5800 O.3       1 SER1        0.0000 
     26 OG       -104.7500  194.9500  -57.3500 O.3       1 SER1        0.0000 
     27 OG       -104.9500  193.1300  -56.2700 O.3       1 SER1        0.0000 
     28 OG       -102.9700  192.5900  -56.8100 O.3       1 SER1        0.0000 
     29 OG       -104.0700  191.9500  -56.0000 O.3       1 SER1        0.0000 
     30 OG       -105.1600  191.3100  -55.2000 O.3       1 SER1        0.0000 
     31 OG       -106.2500  190.6800  -54.3900 O.3       1 SER1        0.0000 
     32 OG       -107.3500  190.0400  -53.5900 O.3       1 SER1        0.0000 
     33 OG       -102.0900  191.4100  -56.5400 O.3       1 SER1        0.0000 
     34 OG       -103.1800  190.7700  -55.7300 O.3       1 SER1        0.0000 
     35 OG       -104.2700  190.1300  -54.9300 O.3       1 SER1        0.0000 
     36 OG       -103.5500  192.6200  -54.7700 O.3       1 SER1        0.0000 
     37 OG       -101.5700  192.0800  -55.3000 O.3       1 SER1        0.0000 
     38 N        -111.1900  189.7000  -59.0700 N.am      2 ALA2        0.0000 
     39 N        -110.3100  188.5300  -58.8000 N.am      2 ALA2        0.0000 
     40 N        -111.3600  193.3700  -59.1800 N.am      2 ALA2        0.0000 
     41 N        -108.0200  186.8400  -57.0200 N.am      2 ALA2        0.0000 
     42 N        -102.2400  188.8800  -58.7400 N.am      2 ALA2        0.0000 
     43 N        -102.4500  187.0700  -57.6600 N.am      2 ALA2        0.0000 
     44 N        -107.0400  196.6300  -59.1300 N.am      2 ALA2        0.0000 
     45 N        -106.1500  195.4500  -58.8600 N.am      2 ALA2        0.0000 
     46 N        -107.2500  194.8200  -58.0500 N.am      2 ALA2        0.0000 
     47 N        -100.6300  190.1900  -58.3100 N.am      2 ALA2        0.0000 
     48 N        -101.7200  189.5500  -57.5000 N.am      2 ALA2        0.0000 
     49 N        -101.9300  187.7400  -56.4300 N.am      2 ALA2        0.0000 
     50 N        -105.6300  196.1300  -57.6200 N.am      2 ALA2        0.0000 
     51 N        -106.7300  195.4900  -56.8200 N.am      2 ALA2        0.0000 
     52 N        -105.8400  194.3100  -56.5400 N.am      2 ALA2        0.0000 
     53 N        -101.2000  190.2300  -56.2700 N.am      2 ALA2        0.0000 
     54 N        -100.3100  189.0500  -56.0000 N.am      2 ALA2        0.0000 
     55 N        -101.4100  188.4100  -55.1900 N.am      2 ALA2        0.0000 
     56 O        -105.7400  191.3500  -53.1600 O.2       2 ALA2        0.0000 
     57 N        -100.6800  190.9000  -55.0300 N.am      2 ALA2        0.0000 
     58 N        -100.8900  189.0900  -53.9500 N.am      2 ALA2        0.0000 
     59 CZ       -109.7900  189.2000  -57.5600 C.ar      3 PHE5        0.0000 
     60 CZ       -110.8800  188.5600  -56.7600 C.ar      3 PHE5        0.0000 
     61 CZ       -108.9000  188.0200  -57.2900 C.ar      3 PHE5        0.0000 
     62 CZ       -110.1600  191.0500  -56.6000 C.ar      3 PHE5        0.0000 
     63 CZ       -109.2700  189.8700  -56.3300 C.ar      3 PHE5        0.0000 
     64 CZ       -108.3800  188.6900  -56.0600 C.ar      3 PHE5        0.0000 
     65 CZ       -107.8700  189.3700  -54.8200 C.ar      3 PHE5        0.0000 
     66 CZ       -108.2300  191.2200  -53.8600 C.ar      3 PHE5        0.0000 
     67 CZ       -100.9900  192.0400  -57.3400 C.ar      3 PHE5        0.0000 
     68 CZ       -100.4800  192.7200  -56.1100 C.ar      3 PHE5        0.0000 
     69 CA       -111.1500  195.1900  -60.2600 C.3       4 GLY6        0.0000 
     70 CA       -110.2600  194.0100  -59.9900 C.3       4 GLY6        0.0000 
     71 CA       -111.7700  189.7400  -57.0300 C.3       4 GLY6        0.0000 
     72 CA       -107.5600  195.9600  -60.3600 C.3       4 GLY6        0.0000 
     73 CA       -109.7400  194.6800  -58.7500 C.3       4 GLY6        0.0000 
     74 CA       -105.5800  195.4100  -60.9000 C.3       4 GLY6        0.0000 
     75 CA       -100.9400  191.3300  -60.6200 C.3       4 GLY6        0.0000 
     76 CA       -101.1400  189.5200  -59.5400 C.3       4 GLY6        0.0000 
     77 CA       -103.3300  188.2400  -57.9300 C.3       4 GLY6        0.0000 
     78 CA       -103.7000  190.1000  -56.9700 C.3       4 GLY6        0.0000 
     79 CA       -102.8100  188.9200  -56.7000 C.3       4 GLY6        0.0000 
     80 CA       -106.9300  193.6700  -55.7400 C.3       4 GLY6        0.0000 
     81 CA       -106.0500  192.4900  -55.4700 C.3       4 GLY6        0.0000 
     82 CA       -107.1400  191.8600  -54.6600 C.3       4 GLY6        0.0000 
     83 CA       -100.1100  190.8700  -57.0700 C.3       4 GLY6        0.0000 
     84 CA       -102.2900  189.5900  -55.4600 C.3       4 GLY6        0.0000 
     85 CA       -105.5300  193.1700  -54.2300 C.3       4 GLY6        0.0000 
     86 CA       -104.6400  191.9900  -53.9600 C.3       4 GLY6        0.0000 
     87 CA       -102.6600  191.4400  -54.5000 C.3       4 GLY6        0.0000 
     88 CA       -103.7600  190.8100  -53.6900 C.3       4 GLY6        0.0000 
     89 CA        -99.5900  191.5400  -55.8400 C.3       4 GLY6        0.0000 
     90 CA       -101.7800  190.2700  -54.2300 C.3       4 GLY6        0.0000 
     91 CA        -99.8000  189.7200  -54.7600 C.3       4 GLY6        0.0000 
     92 DU       -109.5800  191.0200  -58.6400 H         5 CUB7        0.0000 
     93 DU       -108.7000  189.8400  -58.3700 H         5 CUB7        0.0000 
     94 DU       -107.9700  192.3300  -58.2100 H         5 CUB7        0.0000 
     95 DU       -108.1800  190.5100  -57.1300 H         5 CUB7        0.0000 
     96 DU       -103.1200  190.0600  -59.0100 H         5 CUB7        0.0000 
     97 DU       -105.0600  196.0900  -59.6600 H         5 CUB7        0.0000 
     98 DU       -106.3600  193.6400  -57.7800 H         5 CUB7        0.0000 
     99 DU       -105.4700  192.4600  -57.5100 H         5 CUB7        0.0000 
    100 DU       -106.5700  191.8200  -56.7000 H         5 CUB7        0.0000 
    101 DU       -104.5900  191.2800  -57.2400 H         5 CUB7        0.0000 
    102 DU       -102.6100  190.7300  -57.7700 H         5 CUB7        0.0000 
@<TRIPOS>BOND
@<TRIPOS>SUBSTRUCTURE
     1 SER1        1 GROUP   
     2 ALA2       38 GROUP   
     3 PHE5       59 GROUP   
     4 GLY6       69 GROUP   
     5 CUB7       92 GROUP   
@<TRIPOS>SET

