#    Name: 5yrt_1_5AD_CAVITY_N1_6
#    Modification time : Fri May 22 19:17:07 2020

@<TRIPOS>MOLECULE
5yrt_1_5AD_CAVITY_N1_6
   91     0     5     0     0
SMALL
NO_CHARGES


@<TRIPOS>ATOM
      1 OG       -102.1100  148.8000  -26.0200 O.3       1 SER1        0.0000 
      2 OG       -103.2100  148.1600  -25.2100 O.3       1 SER1        0.0000 
      3 OG       -102.6900  148.8300  -23.9800 O.3       1 SER1        0.0000 
      4 OG       -102.8500  152.5000  -24.0900 O.3       1 SER1        0.0000 
      5 OG       -104.3100  153.7200  -22.3200 O.3       1 SER1        0.0000 
      6 OG       -101.2400  153.8100  -23.6600 O.3       1 SER1        0.0000 
      7 OG       -102.3300  153.1800  -22.8500 O.3       1 SER1        0.0000 
      8 OG        -99.6700  149.6400  -22.0400 O.3       1 SER1        0.0000 
      9 OG       -101.6100  155.6600  -22.6900 O.3       1 SER1        0.0000 
     10 OG       -102.7000  155.0300  -21.8900 O.3       1 SER1        0.0000 
     11 OG       -101.8100  153.8500  -21.6200 O.3       1 SER1        0.0000 
     12 OG       -100.9300  152.6700  -21.3500 O.3       1 SER1        0.0000 
     13 OG       -102.0200  152.0300  -20.5400 O.3       1 SER1        0.0000 
     14 OG       -101.1300  150.8500  -20.2700 O.3       1 SER1        0.0000 
     15 OG       -102.1800  155.7000  -20.6500 O.3       1 SER1        0.0000 
     16 OG       -103.2700  155.0700  -19.8500 O.3       1 SER1        0.0000 
     17 OG       -104.3700  154.4300  -19.0400 O.3       1 SER1        0.0000 
     18 OG       -105.4600  153.7900  -18.2300 O.3       1 SER1        0.0000 
     19 OG       -101.2900  154.5200  -20.3800 O.3       1 SER1        0.0000 
     20 OG       -102.3900  153.8900  -19.5700 O.3       1 SER1        0.0000 
     21 OG       -103.4800  153.2500  -18.7700 O.3       1 SER1        0.0000 
     22 OG       -104.5700  152.6100  -17.9600 O.3       1 SER1        0.0000 
     23 OG       -102.5900  152.0700  -18.5000 O.3       1 SER1        0.0000 
     24 OG       -101.7100  150.8900  -18.2300 O.3       1 SER1        0.0000 
     25 OG       -102.8000  150.2500  -17.4200 O.3       1 SER1        0.0000 
     26 OG       -101.6600  156.3800  -19.4200 O.3       1 SER1        0.0000 
     27 OG       -102.7600  155.7400  -18.6100 O.3       1 SER1        0.0000 
     28 N        -105.5000  149.8400  -26.9900 N.am      2 ALA2        0.0000 
     29 N        -104.6100  148.6600  -26.7200 N.am      2 ALA2        0.0000 
     30 N        -101.2800  148.3300  -22.4700 N.am      2 ALA2        0.0000 
     31 N        -108.0600  156.6200  -22.3200 N.am      2 ALA2        0.0000 
     32 N        -100.7700  149.0000  -21.2300 N.am      2 ALA2        0.0000 
     33 N        -106.6600  156.1100  -20.8200 N.am      2 ALA2        0.0000 
     34 N        -107.7500  155.4800  -20.0100 N.am      2 ALA2        0.0000 
     35 N        -100.2500  149.6700  -20.0000 N.am      2 ALA2        0.0000 
     36 N        -101.3400  149.0400  -19.1900 N.am      2 ALA2        0.0000 
     37 O        -103.9500  158.0600  -21.1900 O.2       2 ALA2        0.0000 
     38 N        -107.2300  156.1500  -18.7800 N.am      2 ALA2        0.0000 
     39 N        -104.1600  156.2400  -20.1200 N.am      2 ALA2        0.0000 
     40 N        -105.2500  155.6100  -19.3100 N.am      2 ALA2        0.0000 
     41 N        -103.4300  158.7300  -19.9600 N.am      2 ALA2        0.0000 
     42 N        -102.5500  157.5500  -19.6900 N.am      2 ALA2        0.0000 
     43 CZ       -103.8900  151.1500  -26.5600 C.ar      3 PHE5        0.0000 
     44 CZ       -103.0000  149.9700  -26.2900 C.ar      3 PHE5        0.0000 
     45 CZ       -103.3700  151.8300  -25.3200 C.ar      3 PHE5        0.0000 
     46 CZ       -102.4800  150.6500  -25.0500 C.ar      3 PHE5        0.0000 
     47 CZ       -101.6000  149.4700  -24.7800 C.ar      3 PHE5        0.0000 
     48 CZ       -101.7600  153.1400  -24.8900 C.ar      3 PHE5        0.0000 
     49 CZ       -100.8700  151.9600  -24.6200 C.ar      3 PHE5        0.0000 
     50 CZ       -101.9600  151.3200  -23.8200 C.ar      3 PHE5        0.0000 
     51 CZ       -104.7400  156.2800  -18.0800 C.ar      3 PHE5        0.0000 
     52 CZ       -103.8500  155.1000  -17.8000 C.ar      3 PHE5        0.0000 
     53 CA        -99.9800  150.7800  -24.3500 C.3       4 GLY6        0.0000 
     54 CA       -101.0800  150.1400  -23.5500 C.3       4 GLY6        0.0000 
     55 CA       -100.1900  148.9600  -23.2800 C.3       4 GLY6        0.0000 
     56 CA       -107.1800  155.4400  -22.0500 C.3       4 GLY6        0.0000 
     57 CA       -100.3500  152.6300  -23.3900 C.3       4 GLY6        0.0000 
     58 CA       -101.4400  152.0000  -22.5800 C.3       4 GLY6        0.0000 
     59 CA       -100.5600  150.8200  -22.3100 C.3       4 GLY6        0.0000 
     60 CA       -105.5700  156.7500  -21.6200 C.3       4 GLY6        0.0000 
     61 CA       -104.6800  155.5700  -21.3500 C.3       4 GLY6        0.0000 
     62 CA       -105.7700  154.9300  -20.5500 C.3       4 GLY6        0.0000 
     63 CA       -103.7900  154.3900  -21.0800 C.3       4 GLY6        0.0000 
     64 CA       -100.7200  154.4900  -22.4200 C.3       4 GLY6        0.0000 
     65 CA        -99.8300  153.3100  -22.1500 C.3       4 GLY6        0.0000 
     66 CA       -100.0400  151.4900  -21.0700 C.3       4 GLY6        0.0000 
     67 CA       -101.9700  157.5200  -21.7300 C.3       4 GLY6        0.0000 
     68 CA       -103.0700  156.8800  -20.9200 C.3       4 GLY6        0.0000 
     69 CA       -106.3500  154.9700  -18.5100 C.3       4 GLY6        0.0000 
     70 CA       -101.0900  156.3400  -21.4600 C.3       4 GLY6        0.0000 
     71 CA       -100.2000  155.1600  -21.1900 C.3       4 GLY6        0.0000 
     72 CA       -104.5300  158.1000  -19.1500 C.3       4 GLY6        0.0000 
     73 CA       -103.6400  156.9200  -18.8800 C.3       4 GLY6        0.0000 
     74 CA       -105.8300  155.6400  -17.2700 C.3       4 GLY6        0.0000 
     75 CA       -102.0300  158.2300  -18.4500 C.3       4 GLY6        0.0000 
     76 CA       -103.1200  157.5900  -17.6500 C.3       4 GLY6        0.0000 
     77 DU       -104.0900  149.3400  -25.4800 H         5 CUB7        0.0000 
     78 DU       -103.5800  150.0100  -24.2500 H         5 CUB7        0.0000 
     79 DU       -102.9000  147.0200  -22.9000 H         5 CUB7        0.0000 
     80 DU       -102.1700  149.5100  -22.7400 H         5 CUB7        0.0000 
     81 DU       -103.4200  152.5400  -22.0500 H         5 CUB7        0.0000 
     82 DU       -101.6500  150.1800  -21.5000 H         5 CUB7        0.0000 
     83 DU       -102.7500  149.5400  -20.7000 H         5 CUB7        0.0000 
     84 DU       -106.8700  154.3000  -19.7400 H         5 CUB7        0.0000 
     85 DU       -104.8900  153.7500  -20.2800 H         5 CUB7        0.0000 
     86 DU       -105.9800  153.1200  -19.4700 H         5 CUB7        0.0000 
     87 DU       -102.9100  153.2100  -20.8100 H         5 CUB7        0.0000 
     88 DU       -104.0000  152.5800  -20.0100 H         5 CUB7        0.0000 
     89 DU       -103.1100  151.4000  -19.7300 H         5 CUB7        0.0000 
     90 DU       -102.2300  150.2200  -19.4600 H         5 CUB7        0.0000 
     91 DU       -102.4300  148.4000  -18.3900 H         5 CUB7        0.0000 
@<TRIPOS>BOND
@<TRIPOS>SUBSTRUCTURE
     1 SER1        1 GROUP   
     2 ALA2       28 GROUP   
     3 PHE5       43 GROUP   
     4 GLY6       53 GROUP   
     5 CUB7       77 GROUP   
@<TRIPOS>SET

