#    Name: 5yrt_3_5AD
#    Modification time : Fri May 22 19:17:18 2020

@<TRIPOS>MOLECULE
5yrt_3_5AD
   18    20     1     0     0
SMALL
NO_CHARGES


@<TRIPOS>ATOM
      1 N1       -145.7450  204.8440   12.7620 N.ar      1 5AD604      0.0000 
      2 C2       -145.7620  205.6320   11.6630 C.ar      1 5AD604      0.0000 
      3 N3       -144.6510  206.1040   11.0670 N.ar      1 5AD604      0.0000 
      4 C4       -143.4190  205.7840   11.5450 C.ar      1 5AD604      0.0000 
      5 N9       -142.1680  206.0760   11.1930 N.pl3     1 5AD604      0.0000 
      6 C8       -141.3050  205.4780   12.0540 C.2       1 5AD604      0.0000 
      7 N7       -141.9920  204.7720   12.9950 N.2       1 5AD604      0.0000 
      8 C5       -143.3140  204.9130   12.7330 C.ar      1 5AD604      0.0000 
      9 C6       -144.5870  204.4520   13.3370 C.ar      1 5AD604      0.0000 
     10 N6       -144.5950  203.6480   14.4300 N.pl3     1 5AD604      0.0000 
     11 C1'      -141.8120  206.9060   10.0250 C.3       1 5AD604      0.0000 
     12 C2'      -141.9070  208.3810   10.3310 C.3       1 5AD604      0.0000 
     13 C3'      -140.4930  208.7160   10.7420 C.3       1 5AD604      0.0000 
     14 C4'      -139.6540  207.7740    9.8910 C.3       1 5AD604      0.0000 
     15 C5'      -138.3690  207.3560   10.5940 C.3       1 5AD604      0.0000 
     16 O4'      -140.4690  206.6150    9.6450 O.3       1 5AD604      0.0000 
     17 O2'      -142.2420  209.0270    9.0940 O.3       1 5AD604      0.0000 
     18 O3'      -140.1990  210.1050   10.5340 O.3       1 5AD604      0.0000 
@<TRIPOS>BOND
     1    1    2 ar   
     2    1    9 ar   
     3    2    3 ar   
     4    3    4 ar   
     5    4    5 1    
     6    4    8 ar   
     7    5    6 1    
     8    5   11 1    
     9    6    7 2    
    10    7    8 1    
    11    8    9 ar   
    12    9   10 1    
    13   11   12 1    
    14   11   16 1    
    15   12   13 1    
    16   12   17 1    
    17   13   14 1    
    18   13   18 1    
    19   14   15 1    
    20   14   16 1    
@<TRIPOS>SUBSTRUCTURE
     1 5AD604      1 GROUP   
@<TRIPOS>SET

