#    Name: 6opz_1_017
#    Modification time : Fri May 22 19:26:28 2020

@<TRIPOS>MOLECULE
6opz_1_017
   75    78     1     0     0
SMALL
NO_CHARGES


@<TRIPOS>ATOM
      1 N1         10.3840  -15.6620   14.9800 N.pl3     1 017101      0.0000 
      2 C2         10.0990  -15.5060   13.5240 C.ar      1 017101      0.0000 
      3 C3         10.7360  -14.5140   12.8070 C.ar      1 017101      0.0000 
      4 C4         10.4770  -14.3670   11.4620 C.ar      1 017101      0.0000 
      5 C5          9.5720  -15.2210   10.8300 C.ar      1 017101      0.0000 
      6 C6          8.9430  -16.2040   11.5350 C.ar      1 017101      0.0000 
      7 C7          9.2030  -16.3540   12.8950 C.ar      1 017101      0.0000 
      8 S8          9.2350  -15.0130    9.0380 S.o2      1 017101      0.0000 
      9 O9          7.9950  -15.6670    8.6650 O.2       1 017101      0.0000 
     10 O10         8.9190  -13.5940    8.7100 O.2       1 017101      0.0000 
     11 N11        10.5630  -15.6580    8.1230 N.pl3     1 017101      0.0000 
     12 C12        11.8810  -15.0000    8.2730 C.3       1 017101      0.0000 
     13 C13        12.3630  -14.3480    6.9720 C.3       1 017101      0.0000 
     14 C14        11.3270  -13.3250    6.4070 C.3       1 017101      0.0000 
     15 C15        13.7370  -13.6700    7.2150 C.3       1 017101      0.0000 
     16 C16        10.5250  -17.2000    7.9660 C.3       1 017101      0.0000 
     17 C17        10.2110  -17.6000    6.4970 C.3       1 017101      0.0000 
     18 O18        10.3860  -18.9580    6.2890 O.3       1 017101      0.0000 
     19 C19         8.7600  -17.2770    6.1200 C.3       1 017101      0.0000 
     20 N20         8.6250  -17.5950    4.6980 N.am      1 017101      0.0000 
     21 C21         8.5830  -16.5460    3.6730 C.2       1 017101      0.0000 
     22 O22         8.6610  -15.4070    3.9990 O.2       1 017101      0.0000 
     23 O23         8.4450  -16.9320    2.3370 O.3       1 017101      0.0000 
     24 C24         8.0340  -15.9520    1.4060 C.3       1 017101      0.0000 
     25 C25         9.0810  -16.0430    0.1080 C.3       1 017101      0.0000 
     26 O26         8.7230  -17.1820   -0.5130 O.3       1 017101      0.0000 
     27 C27         7.1790  -17.3400   -0.2130 C.3       1 017101      0.0000 
     28 O28         6.9180  -18.4180    0.3780 O.3       1 017101      0.0000 
     29 C29         5.6530  -18.0740    1.3490 C.3       1 017101      0.0000 
     30 C30         5.8660  -16.8570    1.8030 C.3       1 017101      0.0000 
     31 C31         6.8420  -16.2180    0.8710 C.3       1 017101      0.0000 
     32 C32         7.7110  -18.1080    6.8440 C.3       1 017101      0.0000 
     33 C33         5.7440  -16.6390    6.3090 C.ar      1 017101      0.0000 
     34 C34         4.4900  -16.4030    5.7210 C.ar      1 017101      0.0000 
     35 C35         3.8450  -17.4290    5.0110 C.ar      1 017101      0.0000 
     36 C36         4.4400  -18.6660    4.8950 C.ar      1 017101      0.0000 
     37 C37         5.6900  -18.9040    5.4820 C.ar      1 017101      0.0000 
     38 C38         6.3390  -17.8720    6.2000 C.ar      1 017101      0.0000 
     39 H11        11.1960  -15.8070   15.2500 H         1 017101      0.0000 
     40 H12         9.7380  -15.6090   15.5570 H         1 017101      0.0000 
     41 H3         11.3380  -13.9460   13.2300 H         1 017101      0.0000 
     42 H4         10.9040  -13.7000   10.9760 H         1 017101      0.0000 
     43 H6          8.3430  -16.7710   11.1090 H         1 017101      0.0000 
     44 H7          8.7760  -17.0220   13.3800 H         1 017101      0.0000 
     45 H121       12.5100  -15.6440    8.5400 H         1 017101      0.0000 
     46 H122       11.8130  -14.3390    8.9360 H         1 017101      0.0000 
     47 H13        12.4570  -15.0210    6.3230 H         1 017101      0.0000 
     48 H141       10.6120  -13.2360    7.0100 H         1 017101      0.0000 
     49 H142       11.0010  -13.6310    5.5810 H         1 017101      0.0000 
     50 H143       11.7410  -12.4910    6.2890 H         1 017101      0.0000 
     51 H151       14.4140  -14.3210    7.2070 H         1 017101      0.0000 
     52 H152       13.7300  -13.2380    8.0490 H         1 017101      0.0000 
     53 H153       13.9000  -13.0410    6.5380 H         1 017101      0.0000 
     54 H161        9.8610  -17.5510    8.5300 H         1 017101      0.0000 
     55 H162       11.3590  -17.5560    8.2100 H         1 017101      0.0000 
     56 H17        10.8060  -17.1060    5.9650 H         1 017101      0.0000 
     57 H18        11.1130  -19.1960    6.6150 H         1 017101      0.0000 
     58 H19         8.6060  -16.3810    6.3520 H         1 017101      0.0000 
     59 H20         8.5690  -18.4260    4.4540 H         1 017101      0.0000 
     60 H24         8.0000  -15.1070    1.8160 H         1 017101      0.0000 
     61 H251        9.9710  -16.0950    0.4040 H         1 017101      0.0000 
     62 H252        8.9660  -15.3060   -0.4620 H         1 017101      0.0000 
     63 H27         6.6780  -17.2470   -1.0020 H         1 017101      0.0000 
     64 H291        5.6200  -18.6830    2.0620 H         1 017101      0.0000 
     65 H292        4.8540  -18.0990    0.8560 H         1 017101      0.0000 
     66 H301        5.0630  -16.3710    1.8050 H         1 017101      0.0000 
     67 H302        6.2310  -16.8980    2.6670 H         1 017101      0.0000 
     68 H31         6.4580  -15.4400    0.5130 H         1 017101      0.0000 
     69 H321        7.9350  -19.0180    6.7850 H         1 017101      0.0000 
     70 H322        7.6830  -17.8590    7.7490 H         1 017101      0.0000 
     71 H33         6.1730  -15.9580    6.7740 H         1 017101      0.0000 
     72 H34         4.0890  -15.5690    5.8020 H         1 017101      0.0000 
     73 H35         3.0170  -17.2740    4.6190 H         1 017101      0.0000 
     74 H36         4.0110  -19.3430    4.4260 H         1 017101      0.0000 
     75 H37         6.0920  -19.7380    5.4000 H         1 017101      0.0000 
@<TRIPOS>BOND
     1    1    2 1    
     2    2    3 ar   
     3    1   39 1    
     4    1   40 1    
     5    2    7 ar   
     6    3    4 ar   
     7    4    5 ar   
     8    3   41 1    
     9    5    6 ar   
    10    4   42 1    
    11    5    8 1    
    12    6    7 ar   
    13    8    9 2    
    14    6   43 1    
    15    7   44 1    
    16    8   10 2    
    17    8   11 1    
    18   11   12 1    
    19   11   16 1    
    20   12   13 1    
    21   13   14 1    
    22   12   45 1    
    23   12   46 1    
    24   13   15 1    
    25   16   17 1    
    26   13   47 1    
    27   14   48 1    
    28   14   49 1    
    29   14   50 1    
    30   15   51 1    
    31   15   52 1    
    32   15   53 1    
    33   17   18 1    
    34   16   54 1    
    35   16   55 1    
    36   17   19 1    
    37   19   20 1    
    38   17   56 1    
    39   18   57 1    
    40   19   32 1    
    41   20   21 am   
    42   19   58 1    
    43   21   22 2    
    44   20   59 1    
    45   21   23 1    
    46   23   24 1    
    47   24   25 1    
    48   24   31 1    
    49   25   26 1    
    50   24   60 1    
    51   31   68 1    
    52   26   27 1    
    53   25   61 1    
    54   25   62 1    
    55   27   28 1    
    56   27   31 1    
    57   28   29 1    
    58   27   63 1    
    59   29   30 1    
    60   30   66 1    
    61   30   31 1    
    62   29   64 1    
    63   29   65 1    
    64   30   67 1    
    65   32   38 1    
    66   33   34 ar   
    67   32   69 1    
    68   32   70 1    
    69   33   38 ar   
    70   34   35 ar   
    71   33   71 1    
    72   35   36 ar   
    73   34   72 1    
    74   36   37 ar   
    75   35   73 1    
    76   37   38 ar   
    77   36   74 1    
    78   37   75 1    
@<TRIPOS>SUBSTRUCTURE
     1 017101      1 GROUP   
@<TRIPOS>SET

