#    Name: 6rk0_1_FAD_CAVITY_N1_4
#    Modification time : Fri May 22 19:26:12 2020

@<TRIPOS>MOLECULE
6rk0_1_FAD_CAVITY_N1_4
   71     0     6     0     0
SMALL
NO_CHARGES


@<TRIPOS>ATOM
      1 OG         15.3300  -23.8600   -4.4600 O.3       1 SER1        0.0000 
      2 OG         14.4300  -20.7000   -3.8000 O.3       1 SER1        0.0000 
      3 OG         15.1200  -21.9900   -3.4800 O.3       1 SER1        0.0000 
      4 OG         15.0500  -23.2100   -1.1900 O.3       1 SER1        0.0000 
      5 OG         15.7400  -24.5000   -0.8700 O.3       1 SER1        0.0000 
      6 OG         15.5300  -22.6400    0.1100 O.3       1 SER1        0.0000 
      7 OG         20.8400  -22.5000    3.2900 O.3       1 SER1        0.0000 
      8 N          14.5700  -23.7900   -2.4900 N.am      2 ALA2        0.0000 
      9 N          16.8400  -20.9200   -2.8600 N.am      2 ALA2        0.0000 
     10 O          14.8400  -21.3400   -0.2000 O.2       2 ALA2        0.0000 
     11 N          16.2200  -23.9300    0.4300 N.am      2 ALA2        0.0000 
     12 N          16.9100  -25.2200    0.7500 N.am      2 ALA2        0.0000 
     13 N          15.3900  -19.5500   -1.2000 N.am      2 ALA2        0.0000 
     14 N          18.1500  -24.7300    0.0700 N.am      2 ALA2        0.0000 
     15 N          17.3200  -20.3500   -1.5600 N.am      2 ALA2        0.0000 
     16 N          19.2600  -21.1400   -1.9200 N.am      2 ALA2        0.0000 
     17 O          15.3200  -20.7700    1.1000 O.2       2 ALA2        0.0000 
     18 N          16.5600  -20.2700    0.4200 N.am      2 ALA2        0.0000 
     19 N          17.9400  -22.8600    1.0500 N.am      2 ALA2        0.0000 
     20 N          18.6300  -24.1500    1.3700 N.am      2 ALA2        0.0000 
     21 N          17.8000  -19.7700   -0.2600 N.am      2 ALA2        0.0000 
     22 N          15.8000  -20.1900    2.4000 N.am      2 ALA2        0.0000 
     23 N          16.4900  -21.4900    2.7100 N.am      2 ALA2        0.0000 
     24 N          17.0400  -19.7000    1.7200 N.am      2 ALA2        0.0000 
     25 N          17.7300  -20.9900    2.0400 N.am      2 ALA2        0.0000 
     26 N          18.4200  -22.2800    2.3500 N.am      2 ALA2        0.0000 
     27 N          19.1100  -23.5800    2.6700 N.am      2 ALA2        0.0000 
     28 N          17.5200  -19.1200    3.0200 N.am      2 ALA2        0.0000 
     29 OD1        18.9200  -24.8000   -1.9100 O.co2     3 ASP3        0.0000 
     30 OD1        19.4700  -23.0100   -2.9000 O.co2     3 ASP3        0.0000 
     31 OD1        20.1600  -24.3000   -2.5900 O.co2     3 ASP3        0.0000 
     32 OD1        19.4000  -24.2300   -0.6100 O.co2     3 ASP3        0.0000 
     33 CZ         13.6700  -20.6200   -1.8200 C.ar      4 PHE5        0.0000 
     34 CZ         14.3600  -21.9200   -1.5000 C.ar      4 PHE5        0.0000 
     35 CZ         14.9100  -20.1300   -2.5000 C.ar      4 PHE5        0.0000 
     36 CZ         14.1500  -20.0500   -0.5200 C.ar      4 PHE5        0.0000 
     37 CZ         14.6300  -19.4800    0.7800 C.ar      4 PHE5        0.0000 
     38 CZ         18.4900  -21.0700    0.0600 C.ar      4 PHE5        0.0000 
     39 CZ         14.5600  -20.6900    3.0800 C.ar      4 PHE5        0.0000 
     40 CZ         15.1100  -18.9000    2.0800 C.ar      4 PHE5        0.0000 
     41 CZ         18.9700  -20.4900    1.3600 C.ar      4 PHE5        0.0000 
     42 CZ         19.6600  -21.7900    1.6700 C.ar      4 PHE5        0.0000 
     43 CZ         15.5900  -18.3300    3.3800 C.ar      4 PHE5        0.0000 
     44 CZ         18.2100  -20.4200    3.3400 C.ar      4 PHE5        0.0000 
     45 CZ         19.4500  -19.9200    2.6600 C.ar      4 PHE5        0.0000 
     46 CZ         20.1400  -21.2100    2.9700 C.ar      4 PHE5        0.0000 
     47 CA         16.0100  -22.0600    1.4100 C.3       5 GLY6        0.0000 
     48 CA         16.2800  -19.6200    3.7000 C.3       5 GLY6        0.0000 
     49 CA         16.9700  -20.9100    4.0100 C.3       5 GLY6        0.0000 
     50 CA         18.9000  -21.7100    3.6500 C.3       5 GLY6        0.0000 
     51 CA         16.7600  -19.0500    5.0000 C.3       5 GLY6        0.0000 
     52 CA         17.4500  -20.3400    5.3100 C.3       5 GLY6        0.0000 
     53 CA         18.0000  -18.5500    4.3200 C.3       5 GLY6        0.0000 
     54 CA         18.6900  -19.8400    4.6400 C.3       5 GLY6        0.0000 
     55 CA         19.3800  -21.1300    4.9500 C.3       5 GLY6        0.0000 
     56 DU         16.5700  -23.3700   -5.1400 H         6 CUB7        0.0000 
     57 DU         15.8100  -23.2900   -3.1600 H         6 CUB7        0.0000 
     58 DU         16.5000  -24.5800   -2.8500 H         6 CUB7        0.0000 
     59 DU         17.0500  -22.7900   -3.8400 H         6 CUB7        0.0000 
     60 DU         15.6000  -21.4200   -2.1800 H         6 CUB7        0.0000 
     61 DU         16.2900  -22.7100   -1.8600 H         6 CUB7        0.0000 
     62 DU         16.9800  -24.0100   -1.5500 H         6 CUB7        0.0000 
     63 DU         17.6700  -25.3000   -1.2300 H         6 CUB7        0.0000 
     64 DU         17.5300  -22.2200   -2.5400 H         6 CUB7        0.0000 
     65 DU         18.2300  -23.5100   -2.2300 H         6 CUB7        0.0000 
     66 DU         16.0800  -20.8500   -0.8800 H         6 CUB7        0.0000 
     67 DU         16.7700  -22.1400   -0.5600 H         6 CUB7        0.0000 
     68 DU         17.4600  -23.4300   -0.2500 H         6 CUB7        0.0000 
     69 DU         18.0100  -21.6400   -1.2400 H         6 CUB7        0.0000 
     70 DU         18.7000  -22.9300   -0.9300 H         6 CUB7        0.0000 
     71 DU         17.2500  -21.5600    0.7400 H         6 CUB7        0.0000 
@<TRIPOS>BOND
@<TRIPOS>SUBSTRUCTURE
     1 SER1        1 GROUP   
     2 ALA2        8 GROUP   
     3 ASP3       29 GROUP   
     4 PHE5       33 GROUP   
     5 GLY6       47 GROUP   
     6 CUB7       56 GROUP   
@<TRIPOS>SET

