#    Name: 6rk0_1_FAD
#    Modification time : Fri May 22 19:26:10 2020

@<TRIPOS>MOLECULE
6rk0_1_FAD
   53    58     1     0     1
SMALL
NO_CHARGES


@<TRIPOS>ATOM
      1 PA         23.7620  -30.5490   -1.6050 P.3       1 FAD403      0.0000 
      2 O1A        24.6190  -29.5710   -2.3060 O.co2     1 FAD403      0.0000 
      3 O2A        23.4300  -31.8170   -2.2830 O.co2     1 FAD403      0.0000 
      4 O5B        24.3550  -30.8640   -0.1640 O.3       1 FAD403      0.0000 
      5 C5B        25.7180  -31.3280   -0.0450 C.3       1 FAD403      0.0000 
      6 C4B        26.3480  -30.7110    1.1620 C.3       1 FAD403      0.0000 
      7 O4B        26.3700  -29.2720    1.0280 O.3       1 FAD403      0.0000 
      8 C3B        25.6000  -30.9370    2.4730 C.3       1 FAD403      0.0000 
      9 O3B        25.8250  -32.2340    3.0170 O.3       1 FAD403      0.0000 
     10 C2B        26.1290  -29.7850    3.3310 C.3       1 FAD403      0.0000 
     11 O2B        27.3880  -30.1290    3.8840 O.3       1 FAD403      0.0000 
     12 C1B        26.2980  -28.6570    2.3020 C.3       1 FAD403      0.0000 
     13 N9A        25.1640  -27.7280    2.2990 N.pl3     1 FAD403      0.0000 
     14 C8A        23.9900  -27.8510    1.6150 C.2       1 FAD403      0.0000 
     15 N7A        23.1370  -26.8870    1.8650 N.2       1 FAD403      0.0000 
     16 C5A        23.7980  -26.0770    2.7810 C.ar      1 FAD403      0.0000 
     17 C6A        23.4220  -24.8930    3.4470 C.ar      1 FAD403      0.0000 
     18 N6A        22.2290  -24.2930    3.3140 N.pl3     1 FAD403      0.0000 
     19 N1A        24.3120  -24.3650    4.3230 N.ar      1 FAD403      0.0000 
     20 C2A        25.4970  -24.9660    4.4920 C.ar      1 FAD403      0.0000 
     21 N3A        25.9530  -26.0860    3.9140 N.ar      1 FAD403      0.0000 
     22 C4A        25.0470  -26.5890    3.0690 C.ar      1 FAD403      0.0000 
     23 N1         16.6580  -24.3990   -0.9150 N.2       1 FAD403      0.0000 
     24 C2         15.5780  -24.7100   -1.6940 C.2       1 FAD403      0.0000 
     25 O2         15.6290  -25.6100   -2.5330 O.2       1 FAD403      0.0000 
     26 N3         14.4040  -24.0310   -1.5420 N.am      1 FAD403      0.0000 
     27 C4         14.1930  -23.0150   -0.6300 C.2       1 FAD403      0.0000 
     28 O4         13.0780  -22.4990   -0.5010 O.2       1 FAD403      0.0000 
     29 C4X        15.3620  -22.6450    0.1440 C.2       1 FAD403      0.0000 
     30 N5         15.2520  -21.6310    1.0060 N.2       1 FAD403      0.0000 
     31 C5X        16.3510  -21.3660    1.8270 C.ar      1 FAD403      0.0000 
     32 C6         16.2510  -20.3530    2.7900 C.ar      1 FAD403      0.0000 
     33 C7         17.3180  -20.0630    3.6420 C.ar      1 FAD403      0.0000 
     34 C7M        17.1870  -18.9520    4.6500 C.3       1 FAD403      0.0000 
     35 C8         18.5170  -20.7810    3.5100 C.ar      1 FAD403      0.0000 
     36 C8M        19.6830  -20.5380    4.4220 C.3       1 FAD403      0.0000 
     37 C9         18.6310  -21.7690    2.5280 C.ar      1 FAD403      0.0000 
     38 C9A        17.5660  -22.0630    1.6770 C.ar      1 FAD403      0.0000 
     39 N10        17.6510  -23.0470    0.6670 N.pl3     1 FAD403      0.0000 
     40 C10        16.5490  -23.4040   -0.0570 C.2       1 FAD403      0.0000 
     41 C1'        18.8820  -23.8170    0.4290 C.3       1 FAD403      0.0000 
     42 C2'        18.8900  -25.1500    1.1670 C.3       1 FAD403      0.0000 
     43 O2'        19.2310  -24.9430    2.5300 O.3       1 FAD403      0.0000 
     44 C3'        19.9000  -26.1120    0.5450 C.3       1 FAD403      0.0000 
     45 O3'        21.1910  -25.5100    0.5710 O.3       1 FAD403      0.0000 
     46 C4'        19.5660  -26.5180   -0.8860 C.3       1 FAD403      0.0000 
     47 O4'        18.1960  -26.9240   -0.9650 O.3       1 FAD403      0.0000 
     48 C5'        20.4710  -27.6150   -1.3870 C.3       1 FAD403      0.0000 
     49 O5'        20.3590  -28.7510   -0.4890 O.3       1 FAD403      0.0000 
     50 P          20.9120  -30.1530   -0.9150 P.3       1 FAD403      0.0000 
     51 O1P        20.2850  -30.6190   -2.2050 O.co2     1 FAD403      0.0000 
     52 O2P        20.8030  -31.0500    0.2890 O.co2     1 FAD403      0.0000 
     53 O3P        22.4460  -29.7940   -1.1690 O.3       1 FAD403      0.0000 
@<TRIPOS>BOND
     1    1    2 ar   
     2    1    3 ar   
     3    1    4 1    
     4    1   53 1    
     5    4    5 1    
     6    5    6 1    
     7    6    7 1    
     8    6    8 1    
     9    7   12 1    
    10    8    9 1    
    11    8   10 1    
    12   10   11 1    
    13   10   12 1    
    14   12   13 1    
    15   13   14 1    
    16   13   22 1    
    17   14   15 2    
    18   15   16 1    
    19   16   17 ar   
    20   16   22 ar   
    21   17   18 1    
    22   17   19 ar   
    23   19   20 ar   
    24   20   21 ar   
    25   21   22 ar   
    26   23   24 1    
    27   23   40 2    
    28   24   25 2    
    29   24   26 am   
    30   26   27 am   
    31   27   28 2    
    32   27   29 1    
    33   29   30 2    
    34   29   40 1    
    35   30   31 1    
    36   31   32 ar   
    37   31   38 ar   
    38   32   33 ar   
    39   33   34 1    
    40   33   35 ar   
    41   35   36 1    
    42   35   37 ar   
    43   37   38 ar   
    44   38   39 1    
    45   39   40 1    
    46   39   41 1    
    47   41   42 1    
    48   42   43 1    
    49   42   44 1    
    50   44   45 1    
    51   44   46 1    
    52   46   47 1    
    53   46   48 1    
    54   48   49 1    
    55   49   50 1    
    56   50   51 ar   
    57   50   52 ar   
    58   50   53 1    
@<TRIPOS>SUBSTRUCTURE
     1 FAD403      1 GROUP   
@<TRIPOS>SET
ATOM$ORANGE STATIC     ATOMS   COLORGROUP SYSTEM 
54 5 5 6 6 8 8 10 10 12 12 14 14 16 16 17 17 20 \
20 22 22 24 24 27 27 29 29 31 31 32 32 33 33 34 34 35 \
35 36 36 37 37 38 38 40 40 41 41 42 42 44 44 46 46 48 \
48 

