#    Name: 6rk0_2_FAD
#    Modification time : Fri May 22 19:26:16 2020

@<TRIPOS>MOLECULE
6rk0_2_FAD
   53    58     1     0     1
SMALL
NO_CHARGES


@<TRIPOS>ATOM
      1 PA         10.5430  -33.7870   24.5390 P.3       1 FAD404      0.0000 
      2 O1A         9.4840  -33.1680   25.3720 O.co2     1 FAD404      0.0000 
      3 O2A        11.1830  -35.0420   25.0380 O.co2     1 FAD404      0.0000 
      4 O5B        10.0020  -34.0020   23.0600 O.3       1 FAD404      0.0000 
      5 C5B         8.8140  -34.7960   22.8520 C.3       1 FAD404      0.0000 
      6 C4B         8.0110  -34.1990   21.7270 C.3       1 FAD404      0.0000 
      7 O4B         7.6540  -32.8430   22.0680 O.3       1 FAD404      0.0000 
      8 C3B         8.7380  -34.0510   20.4000 C.3       1 FAD404      0.0000 
      9 O3B         8.8280  -35.2720   19.6950 O.3       1 FAD404      0.0000 
     10 C2B         7.9240  -32.9560   19.7170 C.3       1 FAD404      0.0000 
     11 O2B         6.7910  -33.5310   19.1140 O.3       1 FAD404      0.0000 
     12 C1B         7.5370  -32.0600   20.8940 C.3       1 FAD404      0.0000 
     13 N9A         8.4200  -30.9030   21.0400 N.pl3     1 FAD404      0.0000 
     14 C8A         9.6010  -30.8190   21.7210 C.2       1 FAD404      0.0000 
     15 N7A        10.1870  -29.6560   21.5990 N.2       1 FAD404      0.0000 
     16 C5A         9.3480  -28.9320   20.7730 C.ar      1 FAD404      0.0000 
     17 C6A         9.4180  -27.6150   20.2600 C.ar      1 FAD404      0.0000 
     18 N6A        10.4380  -26.7650   20.4860 N.pl3     1 FAD404      0.0000 
     19 N1A         8.4140  -27.2100   19.4470 N.ar      1 FAD404      0.0000 
     20 C2A         7.4110  -28.0540   19.1930 C.ar      1 FAD404      0.0000 
     21 N3A         7.2340  -29.3100   19.6070 N.ar      1 FAD404      0.0000 
     22 C4A         8.2510  -29.6860   20.4220 C.ar      1 FAD404      0.0000 
     23 N1         15.8970  -26.0840   24.7180 N.2       1 FAD404      0.0000 
     24 C2         17.0330  -26.2480   25.4620 C.2       1 FAD404      0.0000 
     25 O2         17.2040  -27.2460   26.1760 O.2       1 FAD404      0.0000 
     26 N3         18.0380  -25.3080   25.4030 N.am      1 FAD404      0.0000 
     27 C4         18.0090  -24.1780   24.6450 C.2       1 FAD404      0.0000 
     28 O4         18.9710  -23.4120   24.5900 O.2       1 FAD404      0.0000 
     29 C4X        16.7780  -23.9900   23.9090 C.2       1 FAD404      0.0000 
     30 N5         16.6430  -22.8790   23.1600 N.2       1 FAD404      0.0000 
     31 C5X        15.4870  -22.7530   22.3870 C.ar      1 FAD404      0.0000 
     32 C6         15.3540  -21.6360   21.5420 C.ar      1 FAD404      0.0000 
     33 C7         14.2330  -21.4810   20.7280 C.ar      1 FAD404      0.0000 
     34 C7M        14.1020  -20.2600   19.8430 C.3       1 FAD404      0.0000 
     35 C8         13.2280  -22.4730   20.7510 C.ar      1 FAD404      0.0000 
     36 C8M        12.0510  -22.3970   19.8390 C.3       1 FAD404      0.0000 
     37 C9         13.3480  -23.5570   21.6170 C.ar      1 FAD404      0.0000 
     38 C9A        14.4660  -23.7230   22.4120 C.ar      1 FAD404      0.0000 
     39 N10        14.6100  -24.8140   23.3000 N.pl3     1 FAD404      0.0000 
     40 C10        15.7920  -25.0080   23.9920 C.2       1 FAD404      0.0000 
     41 C1'        13.5800  -25.8590   23.4240 C.3       1 FAD404      0.0000 
     42 C2'        13.8820  -27.0660   22.5540 C.3       1 FAD404      0.0000 
     43 O2'        13.4710  -26.8040   21.2230 O.3       1 FAD404      0.0000 
     44 C3'        13.1480  -28.2980   23.0770 C.3       1 FAD404      0.0000 
     45 O3'        11.7530  -28.0330   23.1240 O.3       1 FAD404      0.0000 
     46 C4'        13.6250  -28.7390   24.4550 C.3       1 FAD404      0.0000 
     47 O4'        15.0490  -28.8400   24.4580 O.3       1 FAD404      0.0000 
     48 C5'        13.0570  -30.0860   24.8190 C.3       1 FAD404      0.0000 
     49 O5'        13.3680  -31.0400   23.7810 O.3       1 FAD404      0.0000 
     50 P          13.1910  -32.5910   24.0050 P.3       1 FAD404      0.0000 
     51 O1P        13.9130  -33.0610   25.2400 O.co2     1 FAD404      0.0000 
     52 O2P        13.5180  -33.2700   22.6830 O.co2     1 FAD404      0.0000 
     53 O3P        11.6130  -32.6570   24.2400 O.3       1 FAD404      0.0000 
@<TRIPOS>BOND
     1    1    2 ar   
     2    1    3 ar   
     3    1    4 1    
     4    1   53 1    
     5    4    5 1    
     6    5    6 1    
     7    6    7 1    
     8    6    8 1    
     9    7   12 1    
    10    8    9 1    
    11    8   10 1    
    12   10   11 1    
    13   10   12 1    
    14   12   13 1    
    15   13   14 1    
    16   13   22 1    
    17   14   15 2    
    18   15   16 1    
    19   16   17 ar   
    20   16   22 ar   
    21   17   18 1    
    22   17   19 ar   
    23   19   20 ar   
    24   20   21 ar   
    25   21   22 ar   
    26   23   24 1    
    27   23   40 2    
    28   24   25 2    
    29   24   26 am   
    30   26   27 am   
    31   27   28 2    
    32   27   29 1    
    33   29   30 2    
    34   29   40 1    
    35   30   31 1    
    36   31   32 ar   
    37   31   38 ar   
    38   32   33 ar   
    39   33   34 1    
    40   33   35 ar   
    41   35   36 1    
    42   35   37 ar   
    43   37   38 ar   
    44   38   39 1    
    45   39   40 1    
    46   39   41 1    
    47   41   42 1    
    48   42   43 1    
    49   42   44 1    
    50   44   45 1    
    51   44   46 1    
    52   46   47 1    
    53   46   48 1    
    54   48   49 1    
    55   49   50 1    
    56   50   51 ar   
    57   50   52 ar   
    58   50   53 1    
@<TRIPOS>SUBSTRUCTURE
     1 FAD404      1 GROUP   
@<TRIPOS>SET
ATOM$ORANGE STATIC     ATOMS   COLORGROUP SYSTEM 
54 5 5 6 6 8 8 10 10 12 12 14 14 16 16 17 17 20 \
20 22 22 24 24 27 27 29 29 31 31 32 32 33 33 34 34 35 \
35 36 36 37 37 38 38 40 40 41 41 42 42 44 44 46 46 48 \
48 

