#    Name: 6g96_2_ACO_CAVITY_N1_ALL
#    Modification time : Fri May 22 19:25:26 2020

@<TRIPOS>MOLECULE
6g96_2_ACO_CAVITY_N1_ALL
   84     0     4     0     0
SMALL
NO_CHARGES


@<TRIPOS>ATOM
      1 N          30.7600   29.1100   35.1700 N.am      1 ALA2        0.0000 
      2 N          30.6600   27.6800   35.6000 N.am      1 ALA2        0.0000 
      3 N          31.9800   26.0200   35.6300 N.am      1 ALA2        0.0000 
      4 N          31.2100   29.4900   36.5500 N.am      1 ALA2        0.0000 
      5 N          31.1100   28.0600   36.9800 N.am      1 ALA2        0.0000 
      6 N          32.5300   27.8300   36.5800 N.am      1 ALA2        0.0000 
      7 O          26.1700   33.6400   38.6800 O.2       1 ALA2        0.0000 
      8 O          26.0600   32.2100   39.1100 O.2       1 ALA2        0.0000 
      9 O          27.3800   30.5500   39.1400 O.2       1 ALA2        0.0000 
     10 O          31.7700   31.3100   37.5000 O.2       1 ALA2        0.0000 
     11 O          31.6600   29.8700   37.9300 O.2       1 ALA2        0.0000 
     12 N          32.9800   28.2100   37.9600 N.am      1 ALA2        0.0000 
     13 O          25.1900   34.2500   40.4600 O.2       1 ALA2        0.0000 
     14 O          26.6200   34.0300   40.0600 O.2       1 ALA2        0.0000 
     15 O          26.5100   32.5900   40.4900 O.2       1 ALA2        0.0000 
     16 O          28.0400   33.8000   39.6600 O.2       1 ALA2        0.0000 
     17 O          29.4700   33.5700   39.2500 O.2       1 ALA2        0.0000 
     18 O          30.6900   30.4800   39.7100 O.2       1 ALA2        0.0000 
     19 O          30.5800   29.0500   40.1400 O.2       1 ALA2        0.0000 
     20 O          32.1100   30.2500   39.3100 O.2       1 ALA2        0.0000 
     21 O          32.0100   28.8200   39.7400 O.2       1 ALA2        0.0000 
     22 O          33.4300   28.6000   39.3400 O.2       1 ALA2        0.0000 
     23 N          33.3300   27.1600   39.7700 N.am      1 ALA2        0.0000 
     24 O          27.0700   34.4100   41.4400 O.2       1 ALA2        0.0000 
     25 O          26.9600   32.9800   41.8700 O.2       1 ALA2        0.0000 
     26 O          26.8500   31.5400   42.3000 O.2       1 ALA2        0.0000 
     27 O          28.4900   34.1800   41.0400 O.2       1 ALA2        0.0000 
     28 O          28.3900   32.7500   41.4700 O.2       1 ALA2        0.0000 
     29 O          28.2800   31.3200   41.9000 O.2       1 ALA2        0.0000 
     30 N          29.6000   29.6600   41.9300 N.am      1 ALA2        0.0000 
     31 CZ         28.7800   27.5200   34.6300 C.ar      2 PHE5        0.0000 
     32 CZ         30.2100   27.3000   34.2300 C.ar      2 PHE5        0.0000 
     33 CZ         27.8000   28.1300   36.4100 C.ar      2 PHE5        0.0000 
     34 CZ         26.8300   28.7400   38.1900 C.ar      2 PHE5        0.0000 
     35 CZ         26.7200   27.3100   38.6200 C.ar      2 PHE5        0.0000 
     36 CZ         28.4600   31.3800   36.9300 C.ar      2 PHE5        0.0000 
     37 CZ         28.3600   29.9400   37.3600 C.ar      2 PHE5        0.0000 
     38 CZ         28.2500   28.5100   37.7900 C.ar      2 PHE5        0.0000 
     39 CZ         25.7400   27.9100   40.4100 C.ar      2 PHE5        0.0000 
     40 CZ         27.4900   31.9900   38.7100 C.ar      2 PHE5        0.0000 
     41 CZ         27.2800   29.1200   39.5700 C.ar      2 PHE5        0.0000 
     42 CZ         27.1700   27.6900   40.0000 C.ar      2 PHE5        0.0000 
     43 CA         31.5300   25.6400   34.2500 C.3       3 GLY6        0.0000 
     44 CA         27.7000   26.7000   36.8400 C.3       3 GLY6        0.0000 
     45 CA         29.3400   29.3400   35.5800 C.3       3 GLY6        0.0000 
     46 CA         29.2300   27.9000   36.0100 C.3       3 GLY6        0.0000 
     47 CA         29.1200   26.4700   36.4400 C.3       3 GLY6        0.0000 
     48 CA         30.5500   26.2400   36.0400 C.3       3 GLY6        0.0000 
     49 CA         26.6200   25.8700   39.0500 C.3       3 GLY6        0.0000 
     50 CA         28.1500   27.0800   38.2200 C.3       3 GLY6        0.0000 
     51 CA         28.0400   25.6500   38.6500 C.3       3 GLY6        0.0000 
     52 CA         29.8900   31.1500   36.5200 C.3       3 GLY6        0.0000 
     53 CA         29.5700   26.8500   37.8200 C.3       3 GLY6        0.0000 
     54 CA         31.3200   30.9200   36.1200 C.3       3 GLY6        0.0000 
     55 CA         31.0000   26.6300   37.4200 C.3       3 GLY6        0.0000 
     56 CA         32.4300   26.4000   37.0100 C.3       3 GLY6        0.0000 
     57 CA         32.3200   24.9700   37.4400 C.3       3 GLY6        0.0000 
     58 CA         24.7400   33.8700   39.0800 C.3       3 GLY6        0.0000 
     59 CA         28.9100   31.7600   38.3100 C.3       3 GLY6        0.0000 
     60 CA         30.3400   31.5300   37.9000 C.3       3 GLY6        0.0000 
     61 CA         34.4100   27.9900   37.5600 C.3       3 GLY6        0.0000 
     62 CA         34.3100   26.5500   37.9900 C.3       3 GLY6        0.0000 
     63 CA         29.3600   32.1400   39.6900 C.3       3 GLY6        0.0000 
     64 CA         30.7900   31.9100   39.2800 C.3       3 GLY6        0.0000 
     65 CA         29.9200   33.9600   40.6300 C.3       3 GLY6        0.0000 
     66 CA         29.8100   32.5200   41.0600 C.3       3 GLY6        0.0000 
     67 CA         29.7100   31.0900   41.5000 C.3       3 GLY6        0.0000 
     68 DU         29.7900   29.7200   36.9600 H         4 CUB7        0.0000 
     69 DU         29.6800   28.2900   37.3900 H         4 CUB7        0.0000 
     70 DU         27.0600   26.2500   40.4300 H         4 CUB7        0.0000 
     71 DU         28.8100   30.3300   38.7400 H         4 CUB7        0.0000 
     72 DU         28.7000   28.8900   39.1700 H         4 CUB7        0.0000 
     73 DU         28.6000   27.4600   39.6000 H         4 CUB7        0.0000 
     74 DU         30.2400   30.1000   38.3300 H         4 CUB7        0.0000 
     75 DU         31.5600   28.4400   38.3600 H         4 CUB7        0.0000 
     76 DU         31.4500   27.0100   38.7900 H         4 CUB7        0.0000 
     77 DU         32.8800   26.7800   38.3900 H         4 CUB7        0.0000 
     78 DU         27.9400   32.3700   40.0900 H         4 CUB7        0.0000 
     79 DU         27.8300   30.9300   40.5200 H         4 CUB7        0.0000 
     80 DU         27.7300   29.5000   40.9500 H         4 CUB7        0.0000 
     81 DU         27.6200   28.0700   41.3800 H         4 CUB7        0.0000 
     82 DU         29.2600   30.7100   40.1200 H         4 CUB7        0.0000 
     83 DU         29.1500   29.2800   40.5500 H         4 CUB7        0.0000 
     84 DU         28.1800   29.8800   42.3300 H         4 CUB7        0.0000 
@<TRIPOS>BOND
@<TRIPOS>SUBSTRUCTURE
     1 ALA2        1 GROUP   
     2 PHE5       31 GROUP   
     3 GLY6       43 GROUP   
     4 CUB7       68 GROUP   
@<TRIPOS>SET

