#    Name: 6g96_1_ACO
#    Modification time : Fri May 22 19:25:20 2020

@<TRIPOS>MOLECULE
6g96_1_ACO
   51    53     1     0     1
SMALL
NO_CHARGES


@<TRIPOS>ATOM
      1 N1A        47.0510   34.6260   -7.0920 N.ar      1 ACO201      0.0000 
      2 C2A        46.7800   35.9440   -7.3260 C.ar      1 ACO201      0.0000 
      3 N3A        45.7400   36.5030   -7.9760 N.ar      1 ACO201      0.0000 
      4 C4A        44.8670   35.5730   -8.4260 C.ar      1 ACO201      0.0000 
      5 C5A        45.0110   34.1790   -8.2690 C.ar      1 ACO201      0.0000 
      6 C6A        46.1490   33.7420   -7.5770 C.ar      1 ACO201      0.0000 
      7 N6A        46.3330   32.4060   -7.3800 N.pl3     1 ACO201      0.0000 
      8 N7A        43.9370   33.4850   -8.8460 N.2       1 ACO201      0.0000 
      9 C8A        43.1680   34.4580   -9.3500 C.2       1 ACO201      0.0000 
     10 N9A        43.6870   35.7280   -9.1250 N.pl3     1 ACO201      0.0000 
     11 C1B        43.1130   37.0270   -9.5320 C.3       1 ACO201      0.0000 
     12 C2B        43.9940   37.6620  -10.6350 C.3       1 ACO201      0.0000 
     13 O2B        43.7720   39.0320  -10.6360 O.3       1 ACO201      0.0000 
     14 C3B        43.3950   36.9080  -11.8730 C.3       1 ACO201      0.0000 
     15 O3B        43.5210   37.6100  -13.0230 O.3       1 ACO201      0.0000 
     16 P3B        44.9760   37.2600  -14.0010 P.3       1 ACO201      0.0000 
     17 O7A        45.2210   35.8160  -13.7160 O.co2     1 ACO201      0.0000 
     18 O8A        45.9920   38.2600  -13.5410 O.co2     1 ACO201      0.0000 
     19 O9A        44.3760   37.4590  -15.3830 O.co2     1 ACO201      0.0000 
     20 C4B        41.8950   36.9150  -11.5130 C.3       1 ACO201      0.0000 
     21 O4B        41.8250   36.7950  -10.0730 O.3       1 ACO201      0.0000 
     22 C5B        41.1340   35.7690  -12.1340 C.3       1 ACO201      0.0000 
     23 O5B        39.7330   35.9990  -11.8030 O.3       1 ACO201      0.0000 
     24 P1A        39.2320   34.9910  -10.5820 P.3       1 ACO201      0.0000 
     25 O1A        38.6830   35.8080   -9.4830 O.co2     1 ACO201      0.0000 
     26 O2A        40.1950   33.8520  -10.4180 O.co2     1 ACO201      0.0000 
     27 O3A        37.9690   34.1950  -11.3930 O.3       1 ACO201      0.0000 
     28 P2A        36.4090   34.3020  -11.0350 P.3       1 ACO201      0.0000 
     29 O4A        35.9870   35.6910  -10.7350 O.co2     1 ACO201      0.0000 
     30 O5A        35.7550   33.4530  -12.0840 O.co2     1 ACO201      0.0000 
     31 O6A        36.2240   33.4430   -9.5420 O.3       1 ACO201      0.0000 
     32 CBP        35.2210   31.3070   -9.2010 C.3       1 ACO201      0.0000 
     33 CCP        36.4400   32.0820   -9.7480 C.3       1 ACO201      0.0000 
     34 CDP        34.7520   31.9440   -7.8890 C.3       1 ACO201      0.0000 
     35 CEP        35.5970   29.8390   -9.0090 C.3       1 ACO201      0.0000 
     36 CAP        34.1920   31.4520  -10.3290 C.3       1 ACO201      0.0000 
     37 OAP        34.7140   30.9930  -11.5340 O.3       1 ACO201      0.0000 
     38 C9P        32.8840   30.6810  -10.0470 C.2       1 ACO201      0.0000 
     39 O9P        31.9540   31.2030   -9.4250 O.2       1 ACO201      0.0000 
     40 N8P        32.8100   29.3720  -10.5210 N.am      1 ACO201      0.0000 
     41 C7P        31.6270   28.5070  -10.3870 C.3       1 ACO201      0.0000 
     42 C6P        31.1810   28.3750   -8.9320 C.3       1 ACO201      0.0000 
     43 C5P        32.2380   27.6600   -8.1310 C.2       1 ACO201      0.0000 
     44 O5P        32.9250   26.7300   -8.5440 O.2       1 ACO201      0.0000 
     45 N4P        32.3930   28.1440   -6.8320 N.am      1 ACO201      0.0000 
     46 C3P        33.3560   27.5540   -5.8690 C.3       1 ACO201      0.0000 
     47 C2P        32.7650   26.2350   -5.4160 C.3       1 ACO201      0.0000 
     48 S1P        33.5740   25.7500   -3.8560 S.3       1 ACO201      0.0000 
     49 C          32.5260   26.7180   -2.6880 C.2       1 ACO201      0.0000 
     50 O          31.3950   27.1300   -2.9550 O.2       1 ACO201      0.0000 
     51 CH3        33.1350   27.0050   -1.3580 C.3       1 ACO201      0.0000 
@<TRIPOS>BOND
     1    1    2 ar   
     2    1    6 ar   
     3    2    3 ar   
     4    3    4 ar   
     5    4    5 ar   
     6    4   10 1    
     7    5    6 ar   
     8    5    8 1    
     9    6    7 1    
    10    8    9 2    
    11    9   10 1    
    12   10   11 1    
    13   11   12 1    
    14   11   21 1    
    15   12   13 1    
    16   12   14 1    
    17   14   15 1    
    18   14   20 1    
    19   15   16 1    
    20   16   17 ar   
    21   16   18 ar   
    22   16   19 ar   
    23   20   21 1    
    24   20   22 1    
    25   22   23 1    
    26   23   24 1    
    27   24   25 ar   
    28   24   26 ar   
    29   24   27 1    
    30   27   28 1    
    31   28   29 ar   
    32   28   30 ar   
    33   28   31 1    
    34   31   33 1    
    35   32   33 1    
    36   32   34 1    
    37   32   35 1    
    38   32   36 1    
    39   36   37 1    
    40   36   38 1    
    41   38   39 2    
    42   38   40 am   
    43   40   41 1    
    44   41   42 1    
    45   42   43 1    
    46   43   44 2    
    47   43   45 am   
    48   45   46 1    
    49   46   47 1    
    50   47   48 1    
    51   48   49 1    
    52   49   50 2    
    53   49   51 1    
@<TRIPOS>SUBSTRUCTURE
     1 ACO201      1 GROUP   
@<TRIPOS>SET
ATOM$ORANGE STATIC     ATOMS   COLORGROUP SYSTEM 
46 2 2 4 4 5 5 6 6 9 9 11 11 12 12 14 14 20 \
20 22 22 32 32 33 33 34 34 35 35 36 36 38 38 41 41 42 \
42 43 43 46 46 47 47 49 49 51 51 

