#    Name: 6g96_2_ACO
#    Modification time : Fri May 22 19:25:24 2020

@<TRIPOS>MOLECULE
6g96_2_ACO
   51    53     1     0     1
SMALL
NO_CHARGES


@<TRIPOS>ATOM
      1 N1A        17.7240   33.6060   36.3830 N.ar      1 ACO201      0.0000 
      2 C2A        17.9970   34.9100   36.6890 C.ar      1 ACO201      0.0000 
      3 N3A        19.0370   35.4440   37.3690 N.ar      1 ACO201      0.0000 
      4 C4A        19.8960   34.4830   37.7940 C.ar      1 ACO201      0.0000 
      5 C5A        19.7420   33.0940   37.5670 C.ar      1 ACO201      0.0000 
      6 C6A        18.6140   32.6910   36.8420 C.ar      1 ACO201      0.0000 
      7 N6A        18.4150   31.3630   36.5700 N.pl3     1 ACO201      0.0000 
      8 N7A        20.7960   32.3670   38.1300 N.2       1 ACO201      0.0000 
      9 C8A        21.5650   33.3040   38.6970 C.2       1 ACO201      0.0000 
     10 N9A        21.0570   34.5920   38.5260 N.pl3     1 ACO201      0.0000 
     11 C1B        21.6430   35.8400   38.9970 C.3       1 ACO201      0.0000 
     12 C2B        20.7710   36.4880   40.1110 C.3       1 ACO201      0.0000 
     13 O2B        21.0410   37.8430   40.1790 O.3       1 ACO201      0.0000 
     14 C3B        21.3440   35.7350   41.3570 C.3       1 ACO201      0.0000 
     15 O3B        21.2310   36.4910   42.4820 O.3       1 ACO201      0.0000 
     16 P3B        19.7630   36.0630   43.4680 P.3       1 ACO201      0.0000 
     17 O7A        18.8610   37.1330   42.9610 O.co2     1 ACO201      0.0000 
     18 O8A        19.4280   34.6210   43.1550 O.co2     1 ACO201      0.0000 
     19 O9A        20.3130   36.3460   44.8360 O.co2     1 ACO201      0.0000 
     20 C4B        22.8280   35.6570   40.9730 C.3       1 ACO201      0.0000 
     21 O4B        22.8740   35.4810   39.5490 O.3       1 ACO201      0.0000 
     22 C5B        23.5350   34.4520   41.6040 C.3       1 ACO201      0.0000 
     23 O5B        24.9690   34.5820   41.4030 O.3       1 ACO201      0.0000 
     24 P1A        25.4600   33.7340   40.0390 P.3       1 ACO201      0.0000 
     25 O1A        24.4460   32.6750   39.7780 O.co2     1 ACO201      0.0000 
     26 O2A        25.9690   34.6300   38.9660 O.co2     1 ACO201      0.0000 
     27 O3A        26.6830   32.7790   40.7590 O.3       1 ACO201      0.0000 
     28 P2A        28.2750   32.9680   40.4690 P.3       1 ACO201      0.0000 
     29 O4A        28.8590   32.0900   41.5260 O.co2     1 ACO201      0.0000 
     30 O5A        28.7740   34.3630   40.2400 O.co2     1 ACO201      0.0000 
     31 O6A        28.5380   32.1820   38.9280 O.3       1 ACO201      0.0000 
     32 CBP        29.4630   30.0290   38.5320 C.3       1 ACO201      0.0000 
     33 CCP        28.2110   30.8350   38.9720 C.3       1 ACO201      0.0000 
     34 CDP        29.9970   30.6190   37.2390 C.3       1 ACO201      0.0000 
     35 CEP        29.0780   28.5610   38.3690 C.3       1 ACO201      0.0000 
     36 CAP        30.4490   30.1750   39.6850 C.3       1 ACO201      0.0000 
     37 OAP        29.9130   29.6610   40.8720 O.3       1 ACO201      0.0000 
     38 C9P        31.7890   29.4370   39.4340 C.2       1 ACO201      0.0000 
     39 O9P        32.7510   30.0000   38.9340 O.2       1 ACO201      0.0000 
     40 N8P        31.8810   28.0980   39.8330 N.am      1 ACO201      0.0000 
     41 C7P        33.1360   27.3050   39.6880 C.3       1 ACO201      0.0000 
     42 C6P        33.6110   27.1990   38.2530 C.3       1 ACO201      0.0000 
     43 C5P        32.5750   26.5040   37.4060 C.2       1 ACO201      0.0000 
     44 O5P        31.9260   25.5200   37.7390 O.2       1 ACO201      0.0000 
     45 N4P        32.3950   27.0530   36.1510 N.am      1 ACO201      0.0000 
     46 C3P        31.4220   26.4530   35.2290 C.3       1 ACO201      0.0000 
     47 C2P        32.0440   25.2440   34.5890 C.3       1 ACO201      0.0000 
     48 S1P        31.1430   24.9880   33.0310 S.3       1 ACO201      0.0000 
     49 C          32.1930   26.0670   31.9440 C.2       1 ACO201      0.0000 
     50 O          33.3770   26.3210   32.1580 O.2       1 ACO201      0.0000 
     51 CH3        31.5130   26.6600   30.7560 C.3       1 ACO201      0.0000 
@<TRIPOS>BOND
     1    1    2 ar   
     2    1    6 ar   
     3    2    3 ar   
     4    3    4 ar   
     5    4    5 ar   
     6    4   10 1    
     7    5    6 ar   
     8    5    8 1    
     9    6    7 1    
    10    8    9 2    
    11    9   10 1    
    12   10   11 1    
    13   11   12 1    
    14   11   21 1    
    15   12   13 1    
    16   12   14 1    
    17   14   15 1    
    18   14   20 1    
    19   15   16 1    
    20   16   17 ar   
    21   16   18 ar   
    22   16   19 ar   
    23   20   21 1    
    24   20   22 1    
    25   22   23 1    
    26   23   24 1    
    27   24   25 ar   
    28   24   26 ar   
    29   24   27 1    
    30   27   28 1    
    31   28   29 ar   
    32   28   30 ar   
    33   28   31 1    
    34   31   33 1    
    35   32   33 1    
    36   32   34 1    
    37   32   35 1    
    38   32   36 1    
    39   36   37 1    
    40   36   38 1    
    41   38   39 2    
    42   38   40 am   
    43   40   41 1    
    44   41   42 1    
    45   42   43 1    
    46   43   44 2    
    47   43   45 am   
    48   45   46 1    
    49   46   47 1    
    50   47   48 1    
    51   48   49 1    
    52   49   50 2    
    53   49   51 1    
@<TRIPOS>SUBSTRUCTURE
     1 ACO201      1 GROUP   
@<TRIPOS>SET
ATOM$ORANGE STATIC     ATOMS   COLORGROUP SYSTEM 
46 2 2 4 4 5 5 6 6 9 9 11 11 12 12 14 14 20 \
20 22 22 32 32 33 33 34 34 35 35 36 36 38 38 41 41 42 \
42 43 43 46 46 47 47 49 49 51 51 

