#    Name: 6pbd_2_SFG_CAVITY_N1_12
#    Modification time : Fri May 22 19:29:59 2020

@<TRIPOS>MOLECULE
6pbd_2_SFG_CAVITY_N1_12
   79     0     7     0     0
SMALL
NO_CHARGES


@<TRIPOS>ATOM
      1 OG         38.1000  -10.8700   25.9200 O.3       1 SER1        0.0000 
      2 OG         35.4700   -9.1400   27.0700 O.3       1 SER1        0.0000 
      3 OG         33.5900   -6.8000   27.0700 O.3       1 SER1        0.0000 
      4 OG         34.7100   -9.7500   28.2200 O.3       1 SER1        0.0000 
      5 OG         33.7700   -8.5800   28.2200 O.3       1 SER1        0.0000 
      6 OG         32.7900   -5.5200   29.1900 O.3       1 SER1        0.0000 
      7 OG         31.2300   -4.8500   32.4500 O.3       1 SER1        0.0000 
      8 N          32.5600  -13.4000   18.9700 N.am      2 ALA2        0.0000 
      9 N          29.3600  -14.0500   22.4000 N.am      2 ALA2        0.0000 
     10 N          32.7000   -7.5200   26.1000 N.am      2 ALA2        0.0000 
     11 N          31.1900   -8.7300   28.3900 N.am      2 ALA2        0.0000 
     12 N          31.8900   -6.2400   28.2200 N.am      2 ALA2        0.0000 
     13 N          32.0800   -8.0200   29.3600 N.am      2 ALA2        0.0000 
     14 N          32.0300   -6.1300   30.3300 N.am      2 ALA2        0.0000 
     15 N          30.3400   -5.5700   31.4800 N.am      2 ALA2        0.0000 
     16 N          32.9300   -5.4100   31.3000 N.am      2 ALA2        0.0000 
     17 N          31.9900   -4.2400   31.3000 N.am      2 ALA2        0.0000 
     18 N          32.1700   -6.0200   32.4500 N.am      2 ALA2        0.0000 
     19 OD1        33.5000  -14.5700   18.9700 O.co2     3 ASP3        0.0000 
     20 OD1        31.8100  -14.0100   20.1100 O.co2     3 ASP3        0.0000 
     21 OD1        31.0500  -14.6100   21.2600 O.co2     3 ASP3        0.0000 
     22 OD1        32.7000  -13.2900   21.0800 O.co2     3 ASP3        0.0000 
     23 OD1        31.9400  -13.9000   22.2300 O.co2     3 ASP3        0.0000 
     24 OD1        33.5900  -12.5700   22.0500 O.co2     3 ASP3        0.0000 
     25 OD1        32.8400  -13.1800   23.2000 O.co2     3 ASP3        0.0000 
     26 OD1        33.7300  -12.4600   24.1600 O.co2     3 ASP3        0.0000 
     27 OD1        32.9700  -13.0700   25.3100 O.co2     3 ASP3        0.0000 
     28 OD1        36.1300  -10.5300   22.8400 O.co2     3 ASP3        0.0000 
     29 OD1        35.3800  -11.1400   23.9900 O.co2     3 ASP3        0.0000 
     30 OD1        34.6200  -11.7400   25.1300 O.co2     3 ASP3        0.0000 
     31 OD1        37.9600  -10.9800   23.8100 O.co2     3 ASP3        0.0000 
     32 OD1        37.2100  -11.5900   24.9600 O.co2     3 ASP3        0.0000 
     33 NZ         30.1600  -15.3300   20.2900 N.4       4 LYS4        0.0000 
     34 NZ         31.2400  -16.3900   22.4000 N.4       4 LYS4        0.0000 
     35 NZ         30.3000  -15.2200   22.4000 N.4       4 LYS4        0.0000 
     36 NZ         31.2800  -12.5100   26.4600 N.4       4 LYS4        0.0000 
     37 NZ         33.8700  -12.3500   26.2800 N.4       4 LYS4        0.0000 
     38 NZ         32.9300  -11.1800   26.2800 N.4       4 LYS4        0.0000 
     39 NZ         31.2300  -10.6200   27.4200 N.4       4 LYS4        0.0000 
     40 NZ         33.8200  -10.4600   27.2500 N.4       4 LYS4        0.0000 
     41 NZ         32.8800   -9.3000   27.2500 N.4       4 LYS4        0.0000 
     42 NZ         31.0900   -4.9600   30.3300 N.4       4 LYS4        0.0000 
     43 CZ         30.0200  -15.4400   18.1800 C.ar      5 PHE5        0.0000 
     44 CZ         30.9100  -14.7200   19.1400 C.ar      5 PHE5        0.0000 
     45 CZ         30.8700  -12.8400   20.1100 C.ar      5 PHE5        0.0000 
     46 CZ         30.1100  -13.4400   21.2600 C.ar      5 PHE5        0.0000 
     47 CZ         31.0000  -12.7300   22.2300 C.ar      5 PHE5        0.0000 
     48 CZ         30.2500  -13.3300   23.3700 C.ar      5 PHE5        0.0000 
     49 CZ         31.1400  -12.6200   24.3400 C.ar      5 PHE5        0.0000 
     50 CZ         32.0400  -11.9000   25.3100 C.ar      5 PHE5        0.0000 
     51 CZ         31.9900  -10.0100   26.2800 C.ar      5 PHE5        0.0000 
     52 CZ         37.3500  -11.4800   27.0700 C.ar      5 PHE5        0.0000 
     53 CZ         36.4100  -10.3100   27.0700 C.ar      5 PHE5        0.0000 
     54 CZ         34.5300   -7.9700   27.0700 C.ar      5 PHE5        0.0000 
     55 CZ         32.8300   -7.4100   28.2200 C.ar      5 PHE5        0.0000 
     56 CA         31.6700  -14.1200   18.0000 C.3       6 GLY6        0.0000 
     57 CA         31.7600  -12.1200   21.0800 C.3       6 GLY6        0.0000 
     58 CA         31.1900  -14.5000   23.3700 C.3       6 GLY6        0.0000 
     59 CA         31.9000  -12.0100   23.2000 C.3       6 GLY6        0.0000 
     60 CA         32.0800  -13.7900   24.3400 C.3       6 GLY6        0.0000 
     61 CA         32.7900  -11.2900   24.1600 C.3       6 GLY6        0.0000 
     62 CA         34.4400   -9.9700   23.9900 C.3       6 GLY6        0.0000 
     63 CA         33.6800  -10.5800   25.1300 C.3       6 GLY6        0.0000 
     64 CA         32.7400   -9.4100   25.1300 C.3       6 GLY6        0.0000 
     65 CA         31.0500   -8.8400   26.2800 C.3       6 GLY6        0.0000 
     66 CA         35.3300   -9.2500   24.9600 C.3       6 GLY6        0.0000 
     67 CA         33.4500   -6.9100   24.9600 C.3       6 GLY6        0.0000 
     68 CA         36.4600  -12.2000   26.1000 C.3       6 GLY6        0.0000 
     69 CA         31.9400   -8.1300   27.2500 C.3       6 GLY6        0.0000 
     70 CA         33.0200   -9.1900   29.3600 C.3       6 GLY6        0.0000 
     71 CA         38.8100   -8.3800   25.7500 C.3       6 GLY6        0.0000 
     72 CA         32.9700   -7.3000   30.3300 C.3       6 GLY6        0.0000 
     73 DU         37.0200   -9.8100   23.8100 H         7 CUB7        0.0000 
     74 DU         36.2700  -10.4200   24.9600 H         7 CUB7        0.0000 
     75 DU         35.5200  -11.0300   26.1000 H         7 CUB7        0.0000 
     76 DU         34.5800   -9.8600   26.1000 H         7 CUB7        0.0000 
     77 DU         33.6400   -8.6900   26.1000 H         7 CUB7        0.0000 
     78 DU         37.9200   -9.1000   24.7800 H         7 CUB7        0.0000 
     79 DU         37.1600   -9.7000   25.9300 H         7 CUB7        0.0000 
@<TRIPOS>BOND
@<TRIPOS>SUBSTRUCTURE
     1 SER1        1 GROUP   
     2 ALA2        8 GROUP   
     3 ASP3       19 GROUP   
     4 LYS4       33 GROUP   
     5 PHE5       43 GROUP   
     6 GLY6       56 GROUP   
     7 CUB7       73 GROUP   
@<TRIPOS>SET

