#    Name: 6pbd_2_SFG
#    Modification time : Fri May 22 19:29:57 2020

@<TRIPOS>MOLECULE
6pbd_2_SFG
   27    29     1     0     0
SMALL
NO_CHARGES


@<TRIPOS>ATOM
      1 N          30.4320   -4.5540   30.7240 N.4       1 SFG601      0.0000 
      2 CA         31.3970   -5.5130   31.1620 C.3       1 SFG601      0.0000 
      3 C          32.0720   -5.0240   32.4240 C.2       1 SFG601      0.0000 
      4 O          32.9010   -5.7820   33.0350 O.co2     1 SFG601      0.0000 
      5 OXT        31.8220   -3.8710   32.8750 O.co2     1 SFG601      0.0000 
      6 CB         32.4550   -5.7760   30.0490 C.3       1 SFG601      0.0000 
      7 CG         31.7860   -6.4050   28.8400 C.3       1 SFG601      0.0000 
      8 CD         32.7880   -6.5060   27.7130 C.3       1 SFG601      0.0000 
      9 NE         32.7600   -5.2990   26.9380 N.4       1 SFG601      0.0000 
     10 C5'        32.4380   -7.6910   26.8120 C.3       1 SFG601      0.0000 
     11 C4'        32.5910   -9.0360   27.5010 C.3       1 SFG601      0.0000 
     12 O4'        31.8710  -10.0590   26.7800 O.3       1 SFG601      0.0000 
     13 C3'        34.0230   -9.5150   27.4320 C.3       1 SFG601      0.0000 
     14 O3'        34.4560   -9.8820   28.7410 O.3       1 SFG601      0.0000 
     15 C2'        33.9140  -10.7740   26.5050 C.3       1 SFG601      0.0000 
     16 O2'        34.8420  -11.7760   26.9300 O.3       1 SFG601      0.0000 
     17 C1'        32.6960  -11.1990   26.6380 C.3       1 SFG601      0.0000 
     18 N9         32.2220  -11.9630   25.4380 N.pl3     1 SFG601      0.0000 
     19 C8         32.6680  -11.8250   24.1550 C.2       1 SFG601      0.0000 
     20 N7         31.9870  -12.6710   23.3470 N.2       1 SFG601      0.0000 
     21 C5         31.1140  -13.3370   24.0980 C.ar      1 SFG601      0.0000 
     22 C6         30.1730  -14.3190   23.7830 C.ar      1 SFG601      0.0000 
     23 N6         30.0250  -14.7590   22.5250 N.pl3     1 SFG601      0.0000 
     24 N1         29.4120  -14.8320   24.7230 N.ar      1 SFG601      0.0000 
     25 C2         29.6020  -14.3530   25.9780 C.ar      1 SFG601      0.0000 
     26 N3         30.4710  -13.4190   26.3850 N.ar      1 SFG601      0.0000 
     27 C4         31.2500  -12.8960   25.4200 C.ar      1 SFG601      0.0000 
@<TRIPOS>BOND
     1    1    2 1    
     2    2    3 1    
     3    2    6 1    
     4    3    4 ar   
     5    3    5 ar   
     6    6    7 1    
     7    7    8 1    
     8    8    9 1    
     9    8   10 1    
    10   10   11 1    
    11   11   12 1    
    12   11   13 1    
    13   12   17 1    
    14   13   14 1    
    15   13   15 1    
    16   15   16 1    
    17   15   17 1    
    18   17   18 1    
    19   18   19 1    
    20   18   27 1    
    21   19   20 2    
    22   20   21 1    
    23   21   22 ar   
    24   21   27 ar   
    25   22   23 1    
    26   22   24 ar   
    27   24   25 ar   
    28   25   26 ar   
    29   26   27 ar   
@<TRIPOS>SUBSTRUCTURE
     1 SFG601      1 GROUP   
@<TRIPOS>SET

