#    Name: 6jwy_1_ATP_CAVITY_N1_6
#    Modification time : Fri May 22 19:35:05 2020

@<TRIPOS>MOLECULE
6jwy_1_ATP_CAVITY_N1_6
  104     0     7     0     0
SMALL
NO_CHARGES


@<TRIPOS>ATOM
      1 OG         42.6600   57.2900   61.6700 O.3       1 SER1        0.0000 
      2 OG         42.9800   58.8800   63.0500 O.3       1 SER1        0.0000 
      3 OG         43.6500   59.0600   61.0500 O.3       1 SER1        0.0000 
      4 OG         43.8500   58.0600   62.1500 O.3       1 SER1        0.0000 
      5 OG         43.9700   60.6400   62.4200 O.3       1 SER1        0.0000 
      6 OG         44.2900   62.2200   63.7900 O.3       1 SER1        0.0000 
      7 OG         44.9700   62.4100   61.7900 O.3       1 SER1        0.0000 
      8 O          43.0100   55.8900   58.3000 O.2       2 ALA2        0.0000 
      9 O          43.2100   54.8900   59.4000 O.2       2 ALA2        0.0000 
     10 O          42.8600   56.2900   62.7800 O.2       2 ALA2        0.0000 
     11 O          43.7400   55.4800   61.8800 O.2       2 ALA2        0.0000 
     12 O          44.9400   56.2500   62.3500 O.2       2 ALA2        0.0000 
     13 O          45.1400   55.2500   63.4500 O.2       2 ALA2        0.0000 
     14 N          45.8100   55.4300   61.4500 N.am      2 ALA2        0.0000 
     15 N          47.0100   56.2000   61.9200 N.am      2 ALA2        0.0000 
     16 N          43.6200   62.0400   65.8000 N.am      2 ALA2        0.0000 
     17 N          44.4900   61.2300   64.9000 N.am      2 ALA2        0.0000 
     18 N          48.0100   57.9600   61.2900 N.am      2 ALA2        0.0000 
     19 N          48.2100   56.9600   62.3900 N.am      2 ALA2        0.0000 
     20 N          48.8900   57.1400   60.3900 N.am      2 ALA2        0.0000 
     21 O          44.6100   63.8100   65.1700 O.2       2 ALA2        0.0000 
     22 O          45.4900   62.9900   64.2700 O.2       2 ALA2        0.0000 
     23 N          45.6900   62.0000   65.3700 N.am      2 ALA2        0.0000 
     24 N          45.9000   61.0000   66.4700 N.am      2 ALA2        0.0000 
     25 N          48.1200   60.5400   61.5600 N.am      2 ALA2        0.0000 
     26 N          48.3300   59.5500   62.6700 N.am      2 ALA2        0.0000 
     27 N          49.0000   59.7300   60.6600 N.am      2 ALA2        0.0000 
     28 N          49.4100   57.7300   62.8700 N.am      2 ALA2        0.0000 
     29 O          46.8900   62.7600   65.8400 O.2       2 ALA2        0.0000 
     30 N          47.0900   61.7700   66.9400 N.am      2 ALA2        0.0000 
     31 N          49.3200   61.3100   62.0400 N.am      2 ALA2        0.0000 
     32 N          49.5300   60.3100   63.1400 N.am      2 ALA2        0.0000 
     33 O          48.0900   63.5300   66.3100 O.2       2 ALA2        0.0000 
     34 OD1        44.6500   60.8200   60.4200 O.co2     3 ASP3        0.0000 
     35 OD1        45.5200   60.0000   59.5200 O.co2     3 ASP3        0.0000 
     36 OD1        46.4000   59.1900   58.6200 O.co2     3 ASP3        0.0000 
     37 OD1        46.6100   58.1900   59.7200 O.co2     3 ASP3        0.0000 
     38 OD1        46.7200   60.7700   59.9900 O.co2     3 ASP3        0.0000 
     39 OD1        47.8000   58.9600   60.1900 O.co2     3 ASP3        0.0000 
     40 OD1        47.9200   61.5400   60.4600 O.co2     3 ASP3        0.0000 
     41 NZ         44.2100   56.6600   58.7700 N.4       4 LYS4        0.0000 
     42 NZ         44.5300   58.2400   60.1400 N.4       4 LYS4        0.0000 
     43 NZ         44.7300   57.2400   61.2500 N.4       4 LYS4        0.0000 
     44 NZ         45.4100   57.4200   59.2400 N.4       4 LYS4        0.0000 
     45 NZ         44.8500   59.8200   61.5200 N.4       4 LYS4        0.0000 
     46 NZ         45.7300   59.0100   60.6200 N.4       4 LYS4        0.0000 
     47 NZ         48.1800   59.9500   67.1500 N.4       4 LYS4        0.0000 
     48 NZ         48.6500   61.1300   64.0400 N.4       4 LYS4        0.0000 
     49 NZ         48.8500   60.1300   65.1400 N.4       4 LYS4        0.0000 
     50 NZ         49.0600   59.1400   66.2400 N.4       4 LYS4        0.0000 
     51 NZ         49.7300   59.3200   64.2400 N.4       4 LYS4        0.0000 
     52 NZ         48.9700   62.7100   65.4100 N.4       4 LYS4        0.0000 
     53 NZ         49.1700   61.7200   66.5200 N.4       4 LYS4        0.0000 
     54 NZ         50.7300   61.0800   63.6100 N.4       4 LYS4        0.0000 
     55 CZ         42.3300   55.7100   60.3000 C.ar      5 PHE5        0.0000 
     56 CZ         43.5300   56.4800   60.7700 C.ar      5 PHE5        0.0000 
     57 CZ         44.0600   57.0600   63.2500 C.ar      5 PHE5        0.0000 
     58 CZ         44.2600   56.0700   64.3500 C.ar      5 PHE5        0.0000 
     59 CZ         43.0900   61.4600   63.3200 C.ar      5 PHE5        0.0000 
     60 CZ         43.7700   61.6400   61.3200 C.ar      5 PHE5        0.0000 
     61 CZ         44.3800   58.6500   64.6200 C.ar      5 PHE5        0.0000 
     62 CZ         45.2600   57.8300   63.7200 C.ar      5 PHE5        0.0000 
     63 CZ         45.5800   59.4100   65.1000 C.ar      5 PHE5        0.0000 
     64 CZ         46.4500   58.6000   64.2000 C.ar      5 PHE5        0.0000 
     65 CZ         46.7700   60.1800   65.5700 C.ar      5 PHE5        0.0000 
     66 CZ         46.9800   59.1900   66.6700 C.ar      5 PHE5        0.0000 
     67 CZ         47.1800   58.1900   67.7700 C.ar      5 PHE5        0.0000 
     68 CZ         48.2600   56.3800   67.9800 C.ar      5 PHE5        0.0000 
     69 CA         44.4100   55.6600   59.8700 C.3       6 GLY6        0.0000 
     70 CA         43.1800   57.8800   64.1500 C.3       6 GLY6        0.0000 
     71 CA         45.6100   56.4300   60.3500 C.3       6 GLY6        0.0000 
     72 CA         46.2900   56.6100   58.3400 C.3       6 GLY6        0.0000 
     73 CA         43.3000   60.4600   64.4200 C.3       6 GLY6        0.0000 
     74 CA         43.5000   59.4600   65.5200 C.3       6 GLY6        0.0000 
     75 CA         46.1300   57.0100   62.8200 C.3       6 GLY6        0.0000 
     76 CA         46.8100   57.1900   60.8200 C.3       6 GLY6        0.0000 
     77 CA         47.4800   57.3700   58.8200 C.3       6 GLY6        0.0000 
     78 CA         47.6900   56.3800   59.9200 C.3       6 GLY6        0.0000 
     79 CA         44.7000   60.2300   66.0000 C.3       6 GLY6        0.0000 
     80 CA         47.3300   57.7800   63.3000 C.3       6 GLY6        0.0000 
     81 CA         46.1000   60.0000   67.5700 C.3       6 GLY6        0.0000 
     82 CA         47.6500   59.3700   64.6700 C.3       6 GLY6        0.0000 
     83 CA         47.8600   58.3700   65.7700 C.3       6 GLY6        0.0000 
     84 CA         48.5300   58.5500   63.7700 C.3       6 GLY6        0.0000 
     85 CA         49.2600   58.1400   67.3500 C.3       6 GLY6        0.0000 
     86 DU         44.1700   59.6400   63.5200 H         7 CUB7        0.0000 
     87 DU         45.0500   58.8300   62.6200 H         7 CUB7        0.0000 
     88 DU         45.9300   58.0100   61.7200 H         7 CUB7        0.0000 
     89 DU         45.1700   61.4100   62.8900 H         7 CUB7        0.0000 
     90 DU         45.3700   60.4100   63.9900 H         7 CUB7        0.0000 
     91 DU         45.8400   61.5900   60.8900 H         7 CUB7        0.0000 
     92 DU         46.0500   60.5900   61.9900 H         7 CUB7        0.0000 
     93 DU         46.2500   59.5900   63.0900 H         7 CUB7        0.0000 
     94 DU         46.9300   59.7800   61.0900 H         7 CUB7        0.0000 
     95 DU         47.1300   58.7800   62.1900 H         7 CUB7        0.0000 
     96 DU         46.3700   62.1800   63.3700 H         7 CUB7        0.0000 
     97 DU         46.5700   61.1800   64.4700 H         7 CUB7        0.0000 
     98 DU         47.2500   61.3600   62.4600 H         7 CUB7        0.0000 
     99 DU         47.4500   60.3600   63.5700 H         7 CUB7        0.0000 
    100 DU         47.5700   62.9400   63.8400 H         7 CUB7        0.0000 
    101 DU         47.7700   61.9500   64.9400 H         7 CUB7        0.0000 
    102 DU         47.9700   60.9500   66.0400 H         7 CUB7        0.0000 
    103 DU         48.4400   62.1300   62.9400 H         7 CUB7        0.0000 
    104 DU         49.1200   62.3100   60.9400 H         7 CUB7        0.0000 
@<TRIPOS>BOND
@<TRIPOS>SUBSTRUCTURE
     1 SER1        1 GROUP   
     2 ALA2        8 GROUP   
     3 ASP3       34 GROUP   
     4 LYS4       41 GROUP   
     5 PHE5       55 GROUP   
     6 GLY6       69 GROUP   
     7 CUB7       86 GROUP   
@<TRIPOS>SET

