#    Name: 6jwy_1_ATP
#    Modification time : Fri May 22 19:35:04 2020

@<TRIPOS>MOLECULE
6jwy_1_ATP
   31    33     1     0     1
SMALL
NO_CHARGES


@<TRIPOS>ATOM
      1 PG         45.2390   64.4140   61.1460 P.3       1 ATP802      0.0000 
      2 O1G        45.3660   65.3030   59.9180 O.co2     1 ATP802      0.0000 
      3 O2G        46.5800   63.8740   61.6100 O.co2     1 ATP802      0.0000 
      4 O3G        44.4490   65.0690   62.2670 O.co2     1 ATP802      0.0000 
      5 PB         44.1050   62.3590   59.3080 P.3       1 ATP802      0.0000 
      6 O1B        43.0700   63.1300   58.5470 O.co2     1 ATP802      0.0000 
      7 O2B        43.8640   60.9130   59.5830 O.co2     1 ATP802      0.0000 
      8 O3B        44.3510   63.1240   60.6990 O.3       1 ATP802      0.0000 
      9 PA         46.9980   61.8210   58.4570 P.3       1 ATP802      0.0000 
     10 O1A        46.8240   60.5620   57.6690 O.co2     1 ATP802      0.0000 
     11 O2A        47.9510   62.8310   57.8990 O.co2     1 ATP802      0.0000 
     12 O3A        45.5560   62.5430   58.6300 O.3       1 ATP802      0.0000 
     13 O5'        47.4420   61.4520   59.9660 O.3       1 ATP802      0.0000 
     14 C5'        46.6030   60.6120   60.8140 C.3       1 ATP802      0.0000 
     15 C4'        47.3930   59.4790   61.4260 C.3       1 ATP802      0.0000 
     16 O4'        46.5270   58.7610   62.3420 O.3       1 ATP802      0.0000 
     17 C3'        47.9060   58.4030   60.4610 C.3       1 ATP802      0.0000 
     18 O3'        49.1930   58.7280   59.9550 O.3       1 ATP802      0.0000 
     19 C2'        47.9540   57.1470   61.3380 C.3       1 ATP802      0.0000 
     20 O2'        49.1510   57.0110   62.0710 O.3       1 ATP802      0.0000 
     21 C1'        46.7920   57.3740   62.3010 C.3       1 ATP802      0.0000 
     22 N9         45.5260   56.6220   62.0760 N.pl3     1 ATP802      0.0000 
     23 C8         44.7220   56.1070   63.0710 C.2       1 ATP802      0.0000 
     24 N7         43.6600   55.4960   62.6040 N.2       1 ATP802      0.0000 
     25 C5         43.7690   55.6120   61.2230 C.ar      1 ATP802      0.0000 
     26 C6         42.9450   55.1670   60.1690 C.ar      1 ATP802      0.0000 
     27 N6         41.8060   54.5050   60.3550 N.pl3     1 ATP802      0.0000 
     28 N1         43.3420   55.4510   58.9040 N.ar      1 ATP802      0.0000 
     29 C2         44.4870   56.1270   58.7260 C.ar      1 ATP802      0.0000 
     30 N3         45.3360   56.6000   59.6380 N.ar      1 ATP802      0.0000 
     31 C4         44.9170   56.3050   60.8830 C.ar      1 ATP802      0.0000 
@<TRIPOS>BOND
     1    1    2 ar   
     2    1    3 ar   
     3    1    4 ar   
     4    1    8 1    
     5    5    6 ar   
     6    5    7 ar   
     7    5    8 1    
     8    5   12 1    
     9    9   10 ar   
    10    9   11 ar   
    11    9   12 1    
    12    9   13 1    
    13   13   14 1    
    14   14   15 1    
    15   15   16 1    
    16   15   17 1    
    17   16   21 1    
    18   17   18 1    
    19   17   19 1    
    20   19   20 1    
    21   19   21 1    
    22   21   22 1    
    23   22   23 1    
    24   22   31 1    
    25   23   24 2    
    26   24   25 1    
    27   25   26 ar   
    28   25   31 ar   
    29   26   27 1    
    30   26   28 ar   
    31   28   29 ar   
    32   29   30 ar   
    33   30   31 ar   
@<TRIPOS>SUBSTRUCTURE
     1 ATP802      1 GROUP   
@<TRIPOS>SET
ATOM$ORANGE STATIC     ATOMS   COLORGROUP SYSTEM 
20 14 14 15 15 17 17 19 19 21 21 23 23 25 25 26 26 29 \
29 31 31 

