#    Name: 6hef_1_ACP
#    Modification time : Fri May 22 19:36:51 2020

@<TRIPOS>MOLECULE
6hef_1_ACP
   31    33     1     0     1
SMALL
NO_CHARGES


@<TRIPOS>ATOM
      1 PG        -16.5060    3.0230   15.4590 P.3       1 ACP1001     0.0000 
      2 O1G       -16.5210    4.5590   15.2750 O.co2     1 ACP1001     0.0000 
      3 O2G       -17.1900    2.6290   16.7700 O.co2     1 ACP1001     0.0000 
      4 O3G       -15.1000    2.5130   15.4550 O.co2     1 ACP1001     0.0000 
      5 PB        -16.5310    2.3890   12.5040 P.3       1 ACP1001     0.0000 
      6 O1B       -15.2700    3.1020   12.8980 O.co2     1 ACP1001     0.0000 
      7 O2B       -17.2870    3.1540   11.4900 O.co2     1 ACP1001     0.0000 
      8 C3B       -17.4600    2.2100   14.1010 C.3       1 ACP1001     0.0000 
      9 PA        -14.9040    0.6700   10.9470 P.3       1 ACP1001     0.0000 
     10 O1A       -13.8260   -0.1780   11.5020 O.co2     1 ACP1001     0.0000 
     11 O2A       -14.2940    1.9890   10.7230 O.co2     1 ACP1001     0.0000 
     12 O3A       -16.2070    0.8520   11.9240 O.3       1 ACP1001     0.0000 
     13 O5'       -15.3510    0.2510    9.3900 O.3       1 ACP1001     0.0000 
     14 C5'       -14.5070    0.7700    8.3700 C.3       1 ACP1001     0.0000 
     15 C4'       -15.2810    1.7350    7.4360 C.3       1 ACP1001     0.0000 
     16 O4'       -16.0590    1.0490    6.6270 O.3       1 ACP1001     0.0000 
     17 C3'       -16.1840    2.7190    8.2490 C.3       1 ACP1001     0.0000 
     18 O3'       -15.7940    4.0260    8.1560 O.3       1 ACP1001     0.0000 
     19 C2'       -17.5460    2.6360    7.5910 C.3       1 ACP1001     0.0000 
     20 O2'       -17.8770    3.9540    6.9220 O.3       1 ACP1001     0.0000 
     21 C1'       -17.5220    1.6270    6.7160 C.3       1 ACP1001     0.0000 
     22 N9        -18.4190    0.6040    7.2520 N.pl3     1 ACP1001     0.0000 
     23 C8        -18.7580    0.4630    8.5090 C.2       1 ACP1001     0.0000 
     24 N7        -19.5940   -0.6050    8.6570 N.2       1 ACP1001     0.0000 
     25 C5        -19.7410   -1.1140    7.4500 C.ar      1 ACP1001     0.0000 
     26 C6        -20.4730   -2.2030    6.9650 C.ar      1 ACP1001     0.0000 
     27 N6        -21.3790   -3.2380    7.5980 N.pl3     1 ACP1001     0.0000 
     28 N1        -20.4550   -2.5120    5.6820 N.ar      1 ACP1001     0.0000 
     29 C2        -19.7260   -1.7600    4.8250 C.ar      1 ACP1001     0.0000 
     30 N3        -19.0070   -0.6920    5.2940 N.ar      1 ACP1001     0.0000 
     31 C4        -19.0190   -0.3790    6.5800 C.ar      1 ACP1001     0.0000 
@<TRIPOS>BOND
     1    1    2 ar   
     2    1    3 ar   
     3    1    4 ar   
     4    1    8 1    
     5    5    6 ar   
     6    5    7 ar   
     7    5    8 1    
     8    5   12 1    
     9    9   10 ar   
    10    9   11 ar   
    11    9   12 1    
    12    9   13 1    
    13   13   14 1    
    14   14   15 1    
    15   15   16 1    
    16   15   17 1    
    17   16   21 1    
    18   17   18 1    
    19   17   19 1    
    20   19   20 1    
    21   19   21 1    
    22   21   22 1    
    23   22   23 1    
    24   22   31 1    
    25   23   24 2    
    26   24   25 1    
    27   25   26 ar   
    28   25   31 ar   
    29   26   27 1    
    30   26   28 ar   
    31   28   29 ar   
    32   29   30 ar   
    33   30   31 ar   
@<TRIPOS>SUBSTRUCTURE
     1 ACP1001     1 GROUP   
@<TRIPOS>SET
ATOM$ORANGE STATIC     ATOMS   COLORGROUP SYSTEM 
22 8 8 14 14 15 15 17 17 19 19 21 21 23 23 25 25 26 \
26 29 29 31 31 

