#    Name: 5oa7_1_58K_CAVITY_N1_4
#    Modification time : Fri May 22 19:12:52 2020

@<TRIPOS>MOLECULE
5oa7_1_58K_CAVITY_N1_4
   59     0     6     0     0
SMALL
NO_CHARGES


@<TRIPOS>ATOM
      1 OG        -24.0100  -23.0800   -2.1300 O.3       1 SER1        0.0000 
      2 OG        -23.0800  -22.7700   -3.2600 O.3       1 SER1        0.0000 
      3 O         -26.3900  -22.4800   -5.9000 O.2       2 ALA2        0.0000 
      4 O         -27.6600  -20.0600   -2.3300 O.2       2 ALA2        0.0000 
      5 O         -26.7300  -19.7500   -3.4600 O.2       2 ALA2        0.0000 
      6 O         -29.5000  -19.2500   -1.6400 O.2       2 ALA2        0.0000 
      7 O         -28.5700  -18.9500   -2.7700 O.2       2 ALA2        0.0000 
      8 O         -22.3300  -21.8100   -2.3900 O.2       2 ALA2        0.0000 
      9 O         -21.4000  -21.5100   -3.5300 O.2       2 ALA2        0.0000 
     10 O         -26.0000  -20.2000   -1.0100 O.2       2 ALA2        0.0000 
     11 NZ        -25.4800  -23.5900   -5.4600 N.4       3 LYS4        0.0000 
     12 NZ        -23.8300  -23.7400   -4.1400 N.4       3 LYS4        0.0000 
     13 NZ        -24.7300  -22.6300   -4.5800 N.4       3 LYS4        0.0000 
     14 NZ        -23.8000  -22.3200   -5.7200 N.4       3 LYS4        0.0000 
     15 NZ        -24.7100  -21.2100   -6.1600 N.4       3 LYS4        0.0000 
     16 NZ        -22.1500  -22.4700   -4.4000 N.4       3 LYS4        0.0000 
     17 NZ        -23.0500  -21.3600   -4.8400 N.4       3 LYS4        0.0000 
     18 NZ        -22.1200  -21.0500   -5.9800 N.4       3 LYS4        0.0000 
     19 CZ        -24.7800  -25.4600   -1.4200 C.ar      4 PHE5        0.0000 
     20 CZ        -25.6900  -24.3500   -1.8700 C.ar      4 PHE5        0.0000 
     21 CZ        -24.7600  -24.0400   -3.0000 C.ar      4 PHE5        0.0000 
     22 CZ        -26.6000  -23.2400   -2.3100 C.ar      4 PHE5        0.0000 
     23 CZ        -27.5000  -22.1300   -2.7600 C.ar      4 PHE5        0.0000 
     24 CZ        -23.1000  -24.1900   -1.6800 C.ar      4 PHE5        0.0000 
     25 CA        -28.4100  -21.0200   -3.2000 C.3       5 GLY6        0.0000 
     26 CA        -26.5500  -20.4100   -5.4700 C.3       5 GLY6        0.0000 
     27 CA        -25.6200  -20.1000   -6.6100 C.3       5 GLY6        0.0000 
     28 CA        -29.3200  -19.9100   -3.6400 C.3       5 GLY6        0.0000 
     29 CA        -28.3900  -19.6100   -4.7800 C.3       5 GLY6        0.0000 
     30 CA        -24.9600  -24.8000    0.5900 C.3       5 GLY6        0.0000 
     31 CA        -24.0300  -24.4900   -0.5500 C.3       5 GLY6        0.0000 
     32 CA        -24.9400  -23.3900   -0.9900 C.3       5 GLY6        0.0000 
     33 CA        -25.8500  -22.2800   -1.4400 C.3       5 GLY6        0.0000 
     34 CA        -27.6800  -21.4700   -0.7500 C.3       5 GLY6        0.0000 
     35 CA        -26.7500  -21.1700   -1.8800 C.3       5 GLY6        0.0000 
     36 CA        -23.0300  -19.9400   -6.4200 C.3       5 GLY6        0.0000 
     37 CA        -28.5900  -20.3600   -1.1900 C.3       5 GLY6        0.0000 
     38 CA        -24.8700  -19.1400   -5.7300 C.3       5 GLY6        0.0000 
     39 CA        -23.2800  -23.5300    0.3200 C.3       5 GLY6        0.0000 
     40 CA        -24.1900  -22.4200   -0.1200 C.3       5 GLY6        0.0000 
     41 CA        -23.2600  -22.1200   -1.2600 C.3       5 GLY6        0.0000 
     42 CA        -24.1700  -21.0100   -1.7000 C.3       5 GLY6        0.0000 
     43 CA        -23.2400  -20.7000   -2.8400 C.3       5 GLY6        0.0000 
     44 CA        -25.0700  -19.9000   -2.1400 C.3       5 GLY6        0.0000 
     45 CA        -24.1400  -19.5900   -3.2800 C.3       5 GLY6        0.0000 
     46 CA        -23.2100  -19.2900   -4.4200 C.3       5 GLY6        0.0000 
     47 CA        -22.2800  -18.9800   -5.5500 C.3       5 GLY6        0.0000 
     48 CA        -21.5600  -19.4300   -3.1000 C.3       5 GLY6        0.0000 
     49 DU        -25.6600  -22.9300   -3.4500 H         6 CUB7        0.0000 
     50 DU        -26.5700  -21.8200   -3.8900 H         6 CUB7        0.0000 
     51 DU        -25.6400  -21.5200   -5.0300 H         6 CUB7        0.0000 
     52 DU        -27.4800  -20.7100   -4.3400 H         6 CUB7        0.0000 
     53 DU        -24.9200  -21.9700   -2.5700 H         6 CUB7        0.0000 
     54 DU        -23.9800  -21.6600   -3.7100 H         6 CUB7        0.0000 
     55 DU        -25.8200  -20.8600   -3.0200 H         6 CUB7        0.0000 
     56 DU        -24.8900  -20.5600   -4.1500 H         6 CUB7        0.0000 
     57 DU        -23.9600  -20.2500   -5.2900 H         6 CUB7        0.0000 
     58 DU        -25.8000  -19.4500   -4.6000 H         6 CUB7        0.0000 
     59 DU        -22.3000  -20.4000   -3.9700 H         6 CUB7        0.0000 
@<TRIPOS>BOND
@<TRIPOS>SUBSTRUCTURE
     1 SER1        1 GROUP   
     2 ALA2        3 GROUP   
     3 LYS4       11 GROUP   
     4 PHE5       19 GROUP   
     5 GLY6       25 GROUP   
     6 CUB7       49 GROUP   
@<TRIPOS>SET

