#    Name: 5oa7_1_58K
#    Modification time : Fri May 22 19:12:50 2020

@<TRIPOS>MOLECULE
5oa7_1_58K
   21    23     1     0     0
SMALL
NO_CHARGES


@<TRIPOS>ATOM
      1 C4        -25.0550  -20.1850   -3.2890           1 58K403      0.0000 
      2 C7        -25.1240  -22.6680   -3.7320           1 58K403      0.0000 
      3 C8        -25.2520  -24.0470   -3.0440           1 58K403      0.0000 
      4 C10       -24.8930  -25.3630   -1.0770           1 58K403      0.0000 
      5 C13       -22.9870  -23.6220   -0.0560           1 58K403      0.0000 
      6 C15       -25.8290  -22.5730   -4.9650           1 58K403      0.0000 
      7 C20       -22.6580  -19.3930   -6.6360           1 58K403      0.0000 
      8 C12       -23.3330  -24.7640    0.6580           1 58K403      0.0000 
      9 C11       -24.2890  -25.6410    0.1490           1 58K403      0.0000 
     10 C14       -23.5910  -23.3470   -1.2900           1 58K403      0.0000 
     11 C9        -24.5610  -24.2190   -1.8130           1 58K403      0.0000 
     12 O16       -26.7370  -23.3630   -5.2550           1 58K403      0.0000 
     13 N17       -25.5040  -21.5590   -5.8980           1 58K403      0.0000 
     14 C18       -24.5010  -20.5930   -5.6570           1 58K403      0.0000 
     15 C19       -23.6890  -20.3230   -6.7550           1 58K403      0.0000 
     16 C1        -22.4340  -18.7500   -5.4230           1 58K403      0.0000 
     17 C2        -23.2440  -19.0220   -4.3170           1 58K403      0.0000 
     18 C3        -24.2730  -19.9590   -4.4310           1 58K403      0.0000 
     19 O5        -25.4180  -19.2070   -2.6220           1 58K403      0.0000 
     20 N6        -25.4980  -21.4300   -2.9510           1 58K403      0.0000 
     21 C23       -26.4180  -21.5720   -1.7830           1 58K403      0.0000 
@<TRIPOS>BOND
     1    1   18 du   
     2    1   19 du   
     3    1   20 du   
     4    2    3 du   
     5    2    6 du   
     6    2   20 du   
     7    3   11 du   
     8    4    9 du   
     9    4   11 du   
    10    5    8 du   
    11    5   10 du   
    12    6   12 du   
    13    6   13 du   
    14    7   15 du   
    15    7   16 du   
    16    8    9 du   
    17   10   11 du   
    18   13   14 du   
    19   14   15 du   
    20   14   18 du   
    21   16   17 du   
    22   17   18 du   
    23   20   21 du   
@<TRIPOS>SUBSTRUCTURE
     1 58K403      1 GROUP   
@<TRIPOS>SET

