#    Name: 6hys_3_ADP
#    Modification time : Fri May 22 19:35:23 2020

@<TRIPOS>MOLECULE
6hys_3_ADP
   27    29     1     0     1
SMALL
NO_CHARGES


@<TRIPOS>ATOM
      1 PB         26.2950  -13.4030   89.9580 P.3       1 ADP1301     0.0000 
      2 O1B        26.3100  -12.9000   88.5170 O.co2     1 ADP1301     0.0000 
      3 O2B        27.6680  -13.4670   90.6300 O.co2     1 ADP1301     0.0000 
      4 O3B        25.4820  -14.6870   89.9050 O.co2     1 ADP1301     0.0000 
      5 PA         24.2710  -11.3530   90.4290 P.3       1 ADP1301     0.0000 
      6 O1A        23.4070  -11.9280   89.2760 O.co2     1 ADP1301     0.0000 
      7 O2A        24.9200  -10.0750   90.0560 O.co2     1 ADP1301     0.0000 
      8 O3A        25.4060  -12.4010   90.8200 O.3       1 ADP1301     0.0000 
      9 O5'        23.3350  -11.3340   91.6980 O.3       1 ADP1301     0.0000 
     10 C5'        23.4050  -10.3060   92.6930 C.3       1 ADP1301     0.0000 
     11 C4'        22.0460  -10.1430   93.3200 C.3       1 ADP1301     0.0000 
     12 O4'        21.1190   -9.5160   92.4160 O.3       1 ADP1301     0.0000 
     13 C3'        21.3200  -11.4160   93.7340 C.3       1 ADP1301     0.0000 
     14 O3'        21.8340  -11.9390   94.9550 O.3       1 ADP1301     0.0000 
     15 C2'        19.8540  -10.9520   93.8120 C.3       1 ADP1301     0.0000 
     16 O2'        19.5120  -10.6760   95.1620 O.3       1 ADP1301     0.0000 
     17 C1'        19.8850   -9.5910   93.0940 C.3       1 ADP1301     0.0000 
     18 N9         18.7640   -9.2970   92.2020 N.pl3     1 ADP1301     0.0000 
     19 C8         17.5900   -8.6990   92.5870 C.2       1 ADP1301     0.0000 
     20 N7         16.7420   -8.5010   91.6060 N.2       1 ADP1301     0.0000 
     21 C5         17.4020   -9.0050   90.4950 C.ar      1 ADP1301     0.0000 
     22 C6         17.0280   -9.1130   89.1400 C.ar      1 ADP1301     0.0000 
     23 N6         15.9130   -8.5740   88.6350 N.pl3     1 ADP1301     0.0000 
     24 N1         17.8840   -9.7450   88.3000 N.ar      1 ADP1301     0.0000 
     25 C2         19.0490  -10.1940   88.7850 C.ar      1 ADP1301     0.0000 
     26 N3         19.5250  -10.1140   90.0340 N.ar      1 ADP1301     0.0000 
     27 C4         18.6450   -9.5100   90.8480 C.ar      1 ADP1301     0.0000 
@<TRIPOS>BOND
     1    1    2 ar   
     2    1    3 ar   
     3    1    4 ar   
     4    1    8 1    
     5    5    6 ar   
     6    5    7 ar   
     7    5    8 1    
     8    5    9 1    
     9    9   10 1    
    10   10   11 1    
    11   11   12 1    
    12   11   13 1    
    13   12   17 1    
    14   13   14 1    
    15   13   15 1    
    16   15   16 1    
    17   15   17 1    
    18   17   18 1    
    19   18   19 1    
    20   18   27 1    
    21   19   20 2    
    22   20   21 1    
    23   21   22 ar   
    24   21   27 ar   
    25   22   23 1    
    26   22   24 ar   
    27   24   25 ar   
    28   25   26 ar   
    29   26   27 ar   
@<TRIPOS>SUBSTRUCTURE
     1 ADP1301     1 GROUP   
@<TRIPOS>SET
ATOM$ORANGE STATIC     ATOMS   COLORGROUP SYSTEM 
20 10 10 11 11 13 13 15 15 17 17 19 19 21 21 22 22 25 \
25 27 27 

