#    Name: 6hys_1_ADP
#    Modification time : Fri May 22 19:35:08 2020

@<TRIPOS>MOLECULE
6hys_1_ADP
   27    29     1     0     1
SMALL
NO_CHARGES


@<TRIPOS>ATOM
      1 PB         21.6930   17.3500  125.7880 P.3       1 ADP1301     0.0000 
      2 O1B        23.0290   17.6400  125.2730 O.co2     1 ADP1301     0.0000 
      3 O2B        20.6940   18.5000  125.7420 O.co2     1 ADP1301     0.0000 
      4 O3B        21.7370   16.8820  127.2440 O.co2     1 ADP1301     0.0000 
      5 PA         20.1500   14.9200  125.1510 P.3       1 ADP1301     0.0000 
      6 O1A        21.0440   13.8080  125.5560 O.co2     1 ADP1301     0.0000 
      7 O2A        19.0690   15.2510  126.1900 O.co2     1 ADP1301     0.0000 
      8 O3A        21.0610   16.2000  124.8820 O.3       1 ADP1301     0.0000 
      9 O5'        19.3280   14.6990  123.8030 O.3       1 ADP1301     0.0000 
     10 C5'        19.5560   13.6660  122.8250 C.3       1 ADP1301     0.0000 
     11 C4'        18.2650   13.3680  122.1020 C.3       1 ADP1301     0.0000 
     12 O4'        17.4200   12.5220  122.9060 O.3       1 ADP1301     0.0000 
     13 C3'        17.3980   14.5730  121.7190 C.3       1 ADP1301     0.0000 
     14 O3'        17.5890   14.9430  120.3610 O.3       1 ADP1301     0.0000 
     15 C2'        15.9590   14.1110  122.0240 C.3       1 ADP1301     0.0000 
     16 O2'        14.9930   14.3410  121.0000 O.3       1 ADP1301     0.0000 
     17 C1'        16.1420   12.6270  122.3270 C.3       1 ADP1301     0.0000 
     18 N9         15.1380   12.0470  123.2170 N.pl3     1 ADP1301     0.0000 
     19 C8         14.1840   11.1350  122.8460 C.2       1 ADP1301     0.0000 
     20 N7         13.3640   10.7950  123.8100 N.2       1 ADP1301     0.0000 
     21 C5         13.8140   11.5280  124.8980 C.ar      1 ADP1301     0.0000 
     22 C6         13.3830   11.5960  126.2390 C.ar      1 ADP1301     0.0000 
     23 N6         12.4280   10.8100  126.7480 N.pl3     1 ADP1301     0.0000 
     24 N1         14.0340   12.4480  127.0670 N.ar      1 ADP1301     0.0000 
     25 C2         15.0600   13.1580  126.5820 C.ar      1 ADP1301     0.0000 
     26 N3         15.5720   13.1590  125.3450 N.ar      1 ADP1301     0.0000 
     27 C4         14.9010   12.3130  124.5450 C.ar      1 ADP1301     0.0000 
@<TRIPOS>BOND
     1    1    2 ar   
     2    1    3 ar   
     3    1    4 ar   
     4    1    8 1    
     5    5    6 ar   
     6    5    7 ar   
     7    5    8 1    
     8    5    9 1    
     9    9   10 1    
    10   10   11 1    
    11   11   12 1    
    12   11   13 1    
    13   12   17 1    
    14   13   14 1    
    15   13   15 1    
    16   15   16 1    
    17   15   17 1    
    18   17   18 1    
    19   18   19 1    
    20   18   27 1    
    21   19   20 2    
    22   20   21 1    
    23   21   22 ar   
    24   21   27 ar   
    25   22   23 1    
    26   22   24 ar   
    27   24   25 ar   
    28   25   26 ar   
    29   26   27 ar   
@<TRIPOS>SUBSTRUCTURE
     1 ADP1301     1 GROUP   
@<TRIPOS>SET
ATOM$ORANGE STATIC     ATOMS   COLORGROUP SYSTEM 
20 10 10 11 11 13 13 15 15 17 17 19 19 21 21 22 22 25 \
25 27 27 

