#    Name: 6hys_4_ADP
#    Modification time : Fri May 22 19:35:30 2020

@<TRIPOS>MOLECULE
6hys_4_ADP
   27    29     1     0     1
SMALL
NO_CHARGES


@<TRIPOS>ATOM
      1 PB         -1.2110   14.9220   88.3740 P.3       1 ADP1301     0.0000 
      2 O1B        -1.1270   14.5610   86.9200 O.co2     1 ADP1301     0.0000 
      3 O2B        -0.3530   16.1880   88.4630 O.co2     1 ADP1301     0.0000 
      4 O3B        -2.6540   15.0610   88.9020 O.co2     1 ADP1301     0.0000 
      5 PA          0.8390   12.8690   88.9810 P.3       1 ADP1301     0.0000 
      6 O1A         1.8080   13.5480   88.0110 O.co2     1 ADP1301     0.0000 
      7 O2A         0.3590   11.5560   88.5140 O.co2     1 ADP1301     0.0000 
      8 O3A        -0.4390   13.7970   89.2010 O.3       1 ADP1301     0.0000 
      9 O5'         1.6410   12.7900   90.3530 O.3       1 ADP1301     0.0000 
     10 C5'         1.5460   11.6980   91.2890 C.3       1 ADP1301     0.0000 
     11 C4'         2.8520   11.5370   92.0290 C.3       1 ADP1301     0.0000 
     12 O4'         3.8280   10.8820   91.2000 O.3       1 ADP1301     0.0000 
     13 C3'         3.5330   12.8220   92.4950 C.3       1 ADP1301     0.0000 
     14 O3'         3.0720   13.1960   93.7870 O.3       1 ADP1301     0.0000 
     15 C2'         5.0350   12.4750   92.4540 C.3       1 ADP1301     0.0000 
     16 O2'         5.6600   12.4820   93.7340 O.3       1 ADP1301     0.0000 
     17 C1'         5.0600   11.0590   91.8610 C.3       1 ADP1301     0.0000 
     18 N9          6.1660   10.7960   90.9410 N.pl3     1 ADP1301     0.0000 
     19 C8          7.3250   10.1400   91.2680 C.2       1 ADP1301     0.0000 
     20 N7          8.1810   10.0420   90.2800 N.2       1 ADP1301     0.0000 
     21 C5          7.5440   10.6810   89.2270 C.ar      1 ADP1301     0.0000 
     22 C6          7.9310   10.9300   87.8930 C.ar      1 ADP1301     0.0000 
     23 N6          9.0390   10.4320   87.3410 N.pl3     1 ADP1301     0.0000 
     24 N1          7.0870   11.6470   87.1150 N.ar      1 ADP1301     0.0000 
     25 C2          5.9170   12.0450   87.6320 C.ar      1 ADP1301     0.0000 
     26 N3          5.4290   11.8350   88.8600 N.ar      1 ADP1301     0.0000 
     27 C4          6.3010   11.1540   89.6190 C.ar      1 ADP1301     0.0000 
@<TRIPOS>BOND
     1    1    2 ar   
     2    1    3 ar   
     3    1    4 ar   
     4    1    8 1    
     5    5    6 ar   
     6    5    7 ar   
     7    5    8 1    
     8    5    9 1    
     9    9   10 1    
    10   10   11 1    
    11   11   12 1    
    12   11   13 1    
    13   12   17 1    
    14   13   14 1    
    15   13   15 1    
    16   15   16 1    
    17   15   17 1    
    18   17   18 1    
    19   18   19 1    
    20   18   27 1    
    21   19   20 2    
    22   20   21 1    
    23   21   22 ar   
    24   21   27 ar   
    25   22   23 1    
    26   22   24 ar   
    27   24   25 ar   
    28   25   26 ar   
    29   26   27 ar   
@<TRIPOS>SUBSTRUCTURE
     1 ADP1301     1 GROUP   
@<TRIPOS>SET
ATOM$ORANGE STATIC     ATOMS   COLORGROUP SYSTEM 
20 10 10 11 11 13 13 15 15 17 17 19 19 21 21 22 22 25 \
25 27 27 

