#    Name: 6hys_2_ADP
#    Modification time : Fri May 22 19:35:15 2020

@<TRIPOS>MOLECULE
6hys_2_ADP
   27    29     1     0     1
SMALL
NO_CHARGES


@<TRIPOS>ATOM
      1 PB         -0.2270  -15.9500  124.7770 P.3       1 ADP1301     0.0000 
      2 O1B        -1.5850  -16.2000  124.2290 O.co2     1 ADP1301     0.0000 
      3 O2B         0.6580  -17.1590  124.8300 O.co2     1 ADP1301     0.0000 
      4 O3B        -0.3160  -15.4170  126.2220 O.co2     1 ADP1301     0.0000 
      5 PA          1.5050  -13.6380  124.2500 P.3       1 ADP1301     0.0000 
      6 O1A         0.6130  -12.4980  124.5520 O.co2     1 ADP1301     0.0000 
      7 O2A         2.5030  -13.9170  125.3980 O.co2     1 ADP1301     0.0000 
      8 O3A         0.6510  -14.9400  123.9070 O.3       1 ADP1301     0.0000 
      9 O5'         2.4160  -13.2730  123.0200 O.3       1 ADP1301     0.0000 
     10 C5'         2.0970  -12.2680  122.0400 C.3       1 ADP1301     0.0000 
     11 C4'         3.3570  -11.9240  121.2940 C.3       1 ADP1301     0.0000 
     12 O4'         4.2000  -11.1020  122.1220 O.3       1 ADP1301     0.0000 
     13 C3'         4.2170  -13.1200  120.8750 C.3       1 ADP1301     0.0000 
     14 O3'         4.0260  -13.4690  119.5080 O.3       1 ADP1301     0.0000 
     15 C2'         5.6480  -12.7120  121.2770 C.3       1 ADP1301     0.0000 
     16 O2'         6.6310  -12.8940  120.2680 O.3       1 ADP1301     0.0000 
     17 C1'         5.4930  -11.2280  121.5860 C.3       1 ADP1301     0.0000 
     18 N9          6.4740  -10.6750  122.5180 N.pl3     1 ADP1301     0.0000 
     19 C8          7.4270   -9.7410  122.2070 C.2       1 ADP1301     0.0000 
     20 N7          8.1860   -9.3910  123.2170 N.2       1 ADP1301     0.0000 
     21 C5          7.7010  -10.1500  124.2710 C.ar      1 ADP1301     0.0000 
     22 C6          8.0810  -10.2450  125.6260 C.ar      1 ADP1301     0.0000 
     23 N6          9.0400   -9.4940  126.1770 N.pl3     1 ADP1301     0.0000 
     24 N1          7.4060  -11.1220  126.4120 N.ar      1 ADP1301     0.0000 
     25 C2          6.4100  -11.8350  125.8720 C.ar      1 ADP1301     0.0000 
     26 N3          5.9510  -11.8170  124.6140 N.ar      1 ADP1301     0.0000 
     27 C4          6.6470  -10.9500  123.8560 C.ar      1 ADP1301     0.0000 
@<TRIPOS>BOND
     1    1    2 ar   
     2    1    3 ar   
     3    1    4 ar   
     4    1    8 1    
     5    5    6 ar   
     6    5    7 ar   
     7    5    8 1    
     8    5    9 1    
     9    9   10 1    
    10   10   11 1    
    11   11   12 1    
    12   11   13 1    
    13   12   17 1    
    14   13   14 1    
    15   13   15 1    
    16   15   16 1    
    17   15   17 1    
    18   17   18 1    
    19   18   19 1    
    20   18   27 1    
    21   19   20 2    
    22   20   21 1    
    23   21   22 ar   
    24   21   27 ar   
    25   22   23 1    
    26   22   24 ar   
    27   24   25 ar   
    28   25   26 ar   
    29   26   27 ar   
@<TRIPOS>SUBSTRUCTURE
     1 ADP1301     1 GROUP   
@<TRIPOS>SET
ATOM$ORANGE STATIC     ATOMS   COLORGROUP SYSTEM 
20 10 10 11 11 13 13 15 15 17 17 19 19 21 21 22 22 25 \
25 27 27 

