#    Name: 6scx_1_MGP
#    Modification time : Fri May 22 19:32:25 2020

@<TRIPOS>MOLECULE
6scx_1_MGP
   33    35     1     0     0
SMALL
NO_CHARGES


@<TRIPOS>ATOM
      1 PA        -25.9870   32.4500  -39.6160 P.3       1 MGP505      0.0000 
      2 O1A       -25.5140   31.8160  -38.3230 O.co2     1 MGP505      0.0000 
      3 O2A       -25.6840   33.8900  -39.6610 O.co2     1 MGP505      0.0000 
      4 O3A       -27.5620   32.2210  -39.6670 O.3       1 MGP505      0.0000 
      5 O5'       -25.1950   31.6770  -40.8400 O.3       1 MGP505      0.0000 
      6 PB        -28.6830   33.0060  -38.8540 P.3       1 MGP505      0.0000 
      7 O1B       -28.0370   33.4160  -37.5440 O.co2     1 MGP505      0.0000 
      8 O2B       -29.2440   34.1260  -39.6420 O.co2     1 MGP505      0.0000 
      9 O3B       -29.7720   31.8830  -38.5360 O.3       1 MGP505      0.0000 
     10 PC        -30.8790   31.1320  -39.4130 P.3       1 MGP505      0.0000 
     11 O1C       -30.3280   29.7170  -39.6030 O.co2     1 MGP505      0.0000 
     12 O2C       -31.0900   31.8500  -40.6920 O.co2     1 MGP505      0.0000 
     13 O3C       -32.1900   31.0070  -38.6200 O.co2     1 MGP505      0.0000 
     14 C5'       -24.3570   30.5310  -40.5730 C.3       1 MGP505      0.0000 
     15 C4'       -25.1680   29.2830  -40.8020 C.3       1 MGP505      0.0000 
     16 O4'       -24.6770   28.2000  -39.9870 O.3       1 MGP505      0.0000 
     17 C3'       -26.6410   29.3620  -40.4450 C.3       1 MGP505      0.0000 
     18 O3'       -27.3460   30.0880  -41.4440 O.3       1 MGP505      0.0000 
     19 C2'       -27.0160   27.8870  -40.3440 C.3       1 MGP505      0.0000 
     20 O2'       -27.2800   27.3170  -41.6200 O.3       1 MGP505      0.0000 
     21 C1'       -25.7350   27.2810  -39.7450 C.3       1 MGP505      0.0000 
     22 N9        -25.8420   27.0300  -38.2840 N.pl3     1 MGP505      0.0000 
     23 C8        -26.4620   25.9790  -37.7440 C.2       1 MGP505      0.0000 
     24 N7        -26.4630   26.0690  -36.4380 N.pl3     1 MGP505      0.0000 
     25 CM7       -27.1120   25.1360  -35.5270 C.3       1 MGP505      0.0000 
     26 C5        -25.7540   27.2570  -36.0670 C.2       1 MGP505      0.0000 
     27 C6        -25.4490   27.8840  -34.8180 C.2       1 MGP505      0.0000 
     28 O6        -25.7220   27.5200  -33.6730 O.2       1 MGP505      0.0000 
     29 N1        -24.7400   29.0610  -35.0370 N.am      1 MGP505      0.0000 
     30 C2        -24.3870   29.5590  -36.2630 C.2       1 MGP505      0.0000 
     31 N2        -23.7070   30.7080  -36.2860 N.pl3     1 MGP505      0.0000 
     32 N3        -24.6960   28.9680  -37.4120 N.2       1 MGP505      0.0000 
     33 C4        -25.3910   27.8330  -37.2610 C.2       1 MGP505      0.0000 
@<TRIPOS>BOND
     1    1    2 ar   
     2    1    3 ar   
     3    1    4 1    
     4    1    5 1    
     5    4    6 1    
     6    5   14 1    
     7    6    7 ar   
     8    6    8 ar   
     9    6    9 1    
    10    9   10 1    
    11   10   11 ar   
    12   10   12 ar   
    13   10   13 ar   
    14   14   15 1    
    15   15   16 1    
    16   15   17 1    
    17   16   21 1    
    18   17   18 1    
    19   17   19 1    
    20   19   20 1    
    21   19   21 1    
    22   21   22 1    
    23   22   23 1    
    24   22   33 1    
    25   23   24 2    
    26   24   25 1    
    27   24   26 1    
    28   26   27 1    
    29   26   33 2    
    30   27   28 2    
    31   27   29 am   
    32   29   30 1    
    33   30   31 1    
    34   30   32 2    
    35   32   33 1    
@<TRIPOS>SUBSTRUCTURE
     1 MGP505      1 GROUP   
@<TRIPOS>SET

