#    Name: 6scx_2_MGP
#    Modification time : Fri May 22 19:32:33 2020

@<TRIPOS>MOLECULE
6scx_2_MGP
   33    35     1     0     0
SMALL
NO_CHARGES


@<TRIPOS>ATOM
      1 PA        -36.6080   21.9860  -13.8590 P.3       1 MGP504      0.0000 
      2 O1A       -35.8820   21.5910  -15.1230 O.co2     1 MGP504      0.0000 
      3 O2A       -38.0140   21.5480  -13.8860 O.co2     1 MGP504      0.0000 
      4 O3A       -36.5380   23.5750  -13.7930 O.3       1 MGP504      0.0000 
      5 O5'       -35.8220   21.2670  -12.5970 O.3       1 MGP504      0.0000 
      6 PB        -37.4060   24.5870  -14.6610 P.3       1 MGP504      0.0000 
      7 O1B       -37.7280   23.8500  -15.9510 O.co2     1 MGP504      0.0000 
      8 O2B       -38.5840   25.0770  -13.9100 O.co2     1 MGP504      0.0000 
      9 O3B       -36.3760   25.7550  -15.0080 O.3       1 MGP504      0.0000 
     10 PC        -35.7300   26.9340  -14.1410 P.3       1 MGP504      0.0000 
     11 O1C       -34.2900   26.4910  -13.8960 O.co2     1 MGP504      0.0000 
     12 O2C       -36.5070   27.1200  -12.8850 O.co2     1 MGP504      0.0000 
     13 O3C       -35.6640   28.2320  -14.9680 O.co2     1 MGP504      0.0000 
     14 C5'       -34.5910   20.5400  -12.8060 C.3       1 MGP504      0.0000 
     15 C4'       -33.4370   21.4670  -12.5270 C.3       1 MGP504      0.0000 
     16 O4'       -32.2610   21.0580  -13.2520 O.3       1 MGP504      0.0000 
     17 C3'       -33.6250   22.9180  -12.9320 C.3       1 MGP504      0.0000 
     18 O3'       -34.4650   23.5750  -11.9910 O.3       1 MGP504      0.0000 
     19 C2'       -32.1850   23.4220  -12.9550 C.3       1 MGP504      0.0000 
     20 O2'       -31.7230   23.7300  -11.6440 O.3       1 MGP504      0.0000 
     21 C1'       -31.4370   22.1920  -13.4930 C.3       1 MGP504      0.0000 
     22 N9        -31.1270   22.2700  -14.9450 N.pl3     1 MGP504      0.0000 
     23 C8        -30.1000   22.9530  -15.4530 C.2       1 MGP504      0.0000 
     24 N7        -30.1330   22.8670  -16.7670 N.pl3     1 MGP504      0.0000 
     25 CM7       -29.1970   23.5610  -17.6580 C.3       1 MGP504      0.0000 
     26 C5        -31.2210   22.0810  -17.1630 C.2       1 MGP504      0.0000 
     27 C6        -31.7440   21.6370  -18.4250 C.2       1 MGP504      0.0000 
     28 O6        -31.3410   21.8940  -19.5600 O.2       1 MGP504      0.0000 
     29 N1        -32.8660   20.8420  -18.2350 N.am      1 MGP504      0.0000 
     30 C2        -33.4090   20.5100  -17.0200 C.2       1 MGP504      0.0000 
     31 N2        -34.4880   19.7240  -17.0270 N.pl3     1 MGP504      0.0000 
     32 N3        -32.9210   20.9340  -15.8590 N.2       1 MGP504      0.0000 
     33 C4        -31.8340   21.7100  -15.9870 C.2       1 MGP504      0.0000 
@<TRIPOS>BOND
     1    1    2 ar   
     2    1    3 ar   
     3    1    4 1    
     4    1    5 1    
     5    4    6 1    
     6    5   14 1    
     7    6    7 ar   
     8    6    8 ar   
     9    6    9 1    
    10    9   10 1    
    11   10   11 ar   
    12   10   12 ar   
    13   10   13 ar   
    14   14   15 1    
    15   15   16 1    
    16   15   17 1    
    17   16   21 1    
    18   17   18 1    
    19   17   19 1    
    20   19   20 1    
    21   19   21 1    
    22   21   22 1    
    23   22   23 1    
    24   22   33 1    
    25   23   24 2    
    26   24   25 1    
    27   24   26 1    
    28   26   27 1    
    29   26   33 2    
    30   27   28 2    
    31   27   29 am   
    32   29   30 1    
    33   30   31 1    
    34   30   32 2    
    35   32   33 1    
@<TRIPOS>SUBSTRUCTURE
     1 MGP504      1 GROUP   
@<TRIPOS>SET

