#    Name: 6scx_3_MGP_CAVITY_N1_4
#    Modification time : Fri May 22 19:32:37 2020

@<TRIPOS>MOLECULE
6scx_3_MGP_CAVITY_N1_4
   90     0     6     0     0
SMALL
NO_CHARGES


@<TRIPOS>ATOM
      1 OG        -41.9100   -0.3500  -68.9400 O.3       1 SER1        0.0000 
      2 OG        -41.4400    0.3200  -67.6800 O.3       1 SER1        0.0000 
      3 N         -43.0100   -8.4100  -67.7900 N.am      2 ALA2        0.0000 
      4 N         -46.7000   -6.2300  -65.7700 N.am      2 ALA2        0.0000 
      5 N         -47.0100   -7.4700  -64.9900 N.am      2 ALA2        0.0000 
      6 N         -45.0000   -5.4900  -66.8100 N.am      2 ALA2        0.0000 
      7 N         -45.6200   -7.9800  -65.2500 N.am      2 ALA2        0.0000 
      8 N         -43.6100   -5.9900  -67.0700 N.am      2 ALA2        0.0000 
      9 N         -43.9200   -7.2400  -66.2800 N.am      2 ALA2        0.0000 
     10 N         -44.2300   -8.4800  -65.5000 N.am      2 ALA2        0.0000 
     11 O         -42.8400   -8.9800  -65.7600 O.2       2 ALA2        0.0000 
     12 N         -47.6200   -5.0500  -64.2600 N.am      2 ALA2        0.0000 
     13 O         -46.5300   -6.8000  -63.7400 O.2       2 ALA2        0.0000 
     14 N         -44.8400   -6.0600  -64.7700 N.am      2 ALA2        0.0000 
     15 N         -45.1400   -7.3000  -63.9900 N.am      2 ALA2        0.0000 
     16 N         -43.4500   -6.5600  -65.0300 N.am      2 ALA2        0.0000 
     17 O         -43.7500   -7.8100  -64.2500 O.2       2 ALA2        0.0000 
     18 N         -44.3600   -5.3900  -63.5200 N.am      2 ALA2        0.0000 
     19 N         -44.6700   -6.6300  -62.7400 N.am      2 ALA2        0.0000 
     20 N         -40.0500   -0.1800  -67.9400 N.am      2 ALA2        0.0000 
     21 O         -45.7500    0.0200  -64.1000 O.2       2 ALA2        0.0000 
     22 O         -44.3600   -0.4800  -64.3600 O.2       2 ALA2        0.0000 
     23 O         -42.6600    0.2500  -65.3900 O.2       2 ALA2        0.0000 
     24 O         -41.2700   -0.2500  -65.6500 O.2       2 ALA2        0.0000 
     25 O         -43.8800    0.1900  -63.1000 O.2       2 ALA2        0.0000 
     26 O         -42.1900    0.9300  -64.1400 O.2       2 ALA2        0.0000 
     27 OD1       -44.0600   -4.1500  -64.3000 O.co2     3 ASP3        0.0000 
     28 OD1       -42.3600   -3.4100  -65.3400 O.co2     3 ASP3        0.0000 
     29 OD1       -42.6700   -4.6500  -64.5600 O.co2     3 ASP3        0.0000 
     30 OD1       -42.9700   -0.9900  -64.6100 O.co2     3 ASP3        0.0000 
     31 OD1       -43.2700   -2.2300  -63.8300 O.co2     3 ASP3        0.0000 
     32 OD1       -43.5800   -3.4700  -63.0500 O.co2     3 ASP3        0.0000 
     33 OD1       -41.5800   -1.4900  -64.8700 O.co2     3 ASP3        0.0000 
     34 OD1       -44.1900   -1.0600  -62.3200 O.co2     3 ASP3        0.0000 
     35 OD1       -42.4900   -0.3200  -63.3600 O.co2     3 ASP3        0.0000 
     36 OD1       -41.1000   -0.8200  -63.6100 O.co2     3 ASP3        0.0000 
     37 CZ        -42.7000   -7.1700  -68.5800 C.ar      4 PHE5        0.0000 
     38 CZ        -41.3100   -7.6700  -68.8300 C.ar      4 PHE5        0.0000 
     39 CZ        -43.0000   -3.5100  -68.6300 C.ar      4 PHE5        0.0000 
     40 CZ        -43.3100   -4.7500  -67.8500 C.ar      4 PHE5        0.0000 
     41 CZ        -42.2200   -6.5000  -67.3200 C.ar      4 PHE5        0.0000 
     42 CZ        -42.2200   -1.5900  -68.1600 C.ar      4 PHE5        0.0000 
     43 CZ        -42.5300   -2.8400  -67.3800 C.ar      4 PHE5        0.0000 
     44 CZ        -42.8300   -4.0800  -66.5900 C.ar      4 PHE5        0.0000 
     45 CZ        -40.5200   -0.8500  -69.1900 C.ar      4 PHE5        0.0000 
     46 CZ        -41.1400   -3.3400  -67.6300 C.ar      4 PHE5        0.0000 
     47 CZ        -41.4400   -4.5800  -66.8500 C.ar      4 PHE5        0.0000 
     48 CZ        -46.8300   -3.1400  -63.7900 C.ar      4 PHE5        0.0000 
     49 CZ        -44.5300    0.0900  -66.3900 C.ar      4 PHE5        0.0000 
     50 CZ        -45.4400   -3.6400  -64.0500 C.ar      4 PHE5        0.0000 
     51 CZ        -45.7500   -4.8900  -63.2600 C.ar      4 PHE5        0.0000 
     52 CZ        -43.1400   -0.4200  -66.6500 C.ar      4 PHE5        0.0000 
     53 CZ        -40.3600   -1.4200  -67.1600 C.ar      4 PHE5        0.0000 
     54 CZ        -46.3600   -2.4700  -62.5400 C.ar      4 PHE5        0.0000 
     55 CZ        -44.9700   -2.9700  -62.7900 C.ar      4 PHE5        0.0000 
     56 CZ        -43.8900   -4.7200  -62.2700 C.ar      4 PHE5        0.0000 
     57 CZ        -40.9700    0.9900  -66.4300 C.ar      4 PHE5        0.0000 
     58 CZ        -44.5000   -2.3000  -61.5400 C.ar      4 PHE5        0.0000 
     59 CA        -43.7800   -5.4200  -69.1000 C.3       5 GLY6        0.0000 
     60 CA        -45.7800   -2.5000  -68.1200 C.3       5 GLY6        0.0000 
     61 CA        -44.0800   -1.7600  -69.1600 C.3       5 GLY6        0.0000 
     62 CA        -44.3900   -3.0000  -68.3700 C.3       5 GLY6        0.0000 
     63 CA        -44.7000   -4.2500  -67.5900 C.3       5 GLY6        0.0000 
     64 CA        -42.6900   -2.2600  -69.4100 C.3       5 GLY6        0.0000 
     65 CA        -47.0000   -2.5700  -65.8300 C.3       5 GLY6        0.0000 
     66 CA        -47.3100   -3.8100  -65.0400 C.3       5 GLY6        0.0000 
     67 CA        -45.3100   -1.8300  -66.8600 C.3       5 GLY6        0.0000 
     68 CA        -45.6100   -3.0700  -66.0800 C.3       5 GLY6        0.0000 
     69 CA        -45.9200   -4.3100  -65.3000 C.3       5 GLY6        0.0000 
     70 CA        -46.2300   -5.5600  -64.5200 C.3       5 GLY6        0.0000 
     71 CA        -43.3000    0.1500  -68.6800 C.3       5 GLY6        0.0000 
     72 CA        -43.6100   -1.0900  -67.9000 C.3       5 GLY6        0.0000 
     73 CA        -43.9200   -2.3300  -67.1200 C.3       5 GLY6        0.0000 
     74 CA        -45.9200    0.5900  -66.1400 C.3       5 GLY6        0.0000 
     75 CA        -46.2200   -0.6500  -65.3500 C.3       5 GLY6        0.0000 
     76 DU        -41.6200   -8.9200  -68.0500 H         6 CUB7        0.0000 
     77 DU        -42.5300   -7.7400  -66.5400 H         6 CUB7        0.0000 
     78 DU        -41.1400   -8.2400  -66.8000 H         6 CUB7        0.0000 
     79 DU        -44.2200   -3.5800  -66.3400 H         6 CUB7        0.0000 
     80 DU        -44.5300   -4.8200  -65.5600 H         6 CUB7        0.0000 
     81 DU        -43.1400   -5.3200  -65.8100 H         6 CUB7        0.0000 
     82 DU        -46.5300   -1.9000  -64.5700 H         6 CUB7        0.0000 
     83 DU        -44.8300   -1.1600  -65.6100 H         6 CUB7        0.0000 
     84 DU        -45.1400   -2.4000  -64.8300 H         6 CUB7        0.0000 
     85 DU        -43.4400   -1.6600  -65.8700 H         6 CUB7        0.0000 
     86 DU        -43.7500   -2.9000  -65.0800 H         6 CUB7        0.0000 
     87 DU        -41.7500   -0.9200  -66.9000 H         6 CUB7        0.0000 
     88 DU        -42.0500   -2.1600  -66.1200 H         6 CUB7        0.0000 
     89 DU        -46.0500   -1.2200  -63.3200 H         6 CUB7        0.0000 
     90 DU        -44.6600   -1.7300  -63.5700 H         6 CUB7        0.0000 
@<TRIPOS>BOND
@<TRIPOS>SUBSTRUCTURE
     1 SER1        1 GROUP   
     2 ALA2        3 GROUP   
     3 ASP3       27 GROUP   
     4 PHE5       37 GROUP   
     5 GLY6       59 GROUP   
     6 CUB7       76 GROUP   
@<TRIPOS>SET

