#    Name: 6scx_3_MGP
#    Modification time : Fri May 22 19:32:36 2020

@<TRIPOS>MOLECULE
6scx_3_MGP
   33    35     1     0     0
SMALL
NO_CHARGES


@<TRIPOS>ATOM
      1 PA        -40.9250   -6.9140  -66.2500 P.3       1 MGP503      0.0000 
      2 O1A       -40.1040   -6.8000  -67.5150 O.co2     1 MGP503      0.0000 
      3 O2A       -41.6720   -8.1820  -66.2030 O.co2     1 MGP503      0.0000 
      4 O3A       -41.9370   -5.6840  -66.2670 O.3       1 MGP503      0.0000 
      5 O5'       -39.8770   -6.8180  -64.9800 O.3       1 MGP503      0.0000 
      6 PB        -43.2780   -5.5520  -67.1130 P.3       1 MGP503      0.0000 
      7 O1B       -43.0480   -6.3660  -68.3780 O.co2     1 MGP503      0.0000 
      8 O2B       -44.4650   -5.9540  -66.3270 O.co2     1 MGP503      0.0000 
      9 O3B       -43.3090   -4.0090  -67.5200 O.3       1 MGP503      0.0000 
     10 PC        -43.5990   -2.6600  -66.7120 P.3       1 MGP503      0.0000 
     11 O1C       -42.2260   -2.0220  -66.5260 O.co2     1 MGP503      0.0000 
     12 O2C       -44.2770   -2.9770  -65.4280 O.co2     1 MGP503      0.0000 
     13 O3C       -44.4250   -1.6920  -67.5790 O.co2     1 MGP503      0.0000 
     14 C5'       -38.4710   -6.5540  -65.1840 C.3       1 MGP503      0.0000 
     15 C4'       -38.2240   -5.0800  -64.9950 C.3       1 MGP503      0.0000 
     16 O4'       -37.0920   -4.6500  -65.7780 O.3       1 MGP503      0.0000 
     17 C3'       -39.3440   -4.1520  -65.4280 C.3       1 MGP503      0.0000 
     18 O3'       -40.3760   -4.1640  -64.4500 O.3       1 MGP503      0.0000 
     19 C2'       -38.6120   -2.8190  -65.5690 C.3       1 MGP503      0.0000 
     20 O2'       -38.4800   -2.1440  -64.3230 O.3       1 MGP503      0.0000 
     21 C1'       -37.2340   -3.2690  -66.0880 C.3       1 MGP503      0.0000 
     22 N9        -37.0640   -3.0750  -67.5510 N.pl3     1 MGP503      0.0000 
     23 C8        -36.7770   -1.9060  -68.1260 C.2       1 MGP503      0.0000 
     24 N7        -36.7500   -2.0470  -69.4320 N.pl3     1 MGP503      0.0000 
     25 CM7       -36.5160   -0.9650  -70.3820 C.3       1 MGP503      0.0000 
     26 C5        -37.0260   -3.3970  -69.7590 C.2       1 MGP503      0.0000 
     27 C6        -37.1300   -4.1310  -70.9800 C.2       1 MGP503      0.0000 
     28 O6        -37.0020   -3.7330  -72.1340 O.2       1 MGP503      0.0000 
     29 N1        -37.4280   -5.4640  -70.7160 N.am      1 MGP503      0.0000 
     30 C2        -37.5970   -6.0130  -69.4710 C.2       1 MGP503      0.0000 
     31 N2        -37.8720   -7.3190  -69.4090 N.pl3     1 MGP503      0.0000 
     32 N3        -37.5010   -5.3160  -68.3450 N.2       1 MGP503      0.0000 
     33 C4        -37.2190   -4.0180  -68.5440 C.2       1 MGP503      0.0000 
@<TRIPOS>BOND
     1    1    2 ar   
     2    1    3 ar   
     3    1    4 1    
     4    1    5 1    
     5    4    6 1    
     6    5   14 1    
     7    6    7 ar   
     8    6    8 ar   
     9    6    9 1    
    10    9   10 1    
    11   10   11 ar   
    12   10   12 ar   
    13   10   13 ar   
    14   14   15 1    
    15   15   16 1    
    16   15   17 1    
    17   16   21 1    
    18   17   18 1    
    19   17   19 1    
    20   19   20 1    
    21   19   21 1    
    22   21   22 1    
    23   22   23 1    
    24   22   33 1    
    25   23   24 2    
    26   24   25 1    
    27   24   26 1    
    28   26   27 1    
    29   26   33 2    
    30   27   28 2    
    31   27   29 am   
    32   29   30 1    
    33   30   31 1    
    34   30   32 2    
    35   32   33 1    
@<TRIPOS>SUBSTRUCTURE
     1 MGP503      1 GROUP   
@<TRIPOS>SET

