#    Name: 6hsg_2_DMF_CAVITY_N1_8
#    Modification time : Fri May 22 19:24:12 2020

@<TRIPOS>MOLECULE
6hsg_2_DMF_CAVITY_N1_8
   26     0     5     0     0
SMALL
NO_CHARGES


@<TRIPOS>ATOM
      1 O          66.6900   42.2800   80.4000 O.2       1 ALA2        0.0000 
      2 O          66.8700   43.5500   79.6200 O.2       1 ALA2        0.0000 
      3 O          67.0500   44.8200   78.8500 O.2       1 ALA2        0.0000 
      4 O          68.3700   44.3300   78.3500 O.2       1 ALA2        0.0000 
      5 O          67.3700   42.9100   81.5800 O.2       1 ALA2        0.0000 
      6 O          67.5500   44.1800   80.8100 O.2       1 ALA2        0.0000 
      7 O          69.0500   44.9600   79.5300 O.2       1 ALA2        0.0000 
      8 O          71.2000   41.9100   83.7300 O.2       1 ALA2        0.0000 
      9 OD1        75.1800   40.4500   82.2300 O.co2     2 ASP3        0.0000 
     10 NZ         66.3700   44.1900   77.6700 N.4       3 LYS4        0.0000 
     11 CA         64.8700   43.4100   78.9400 C.3       4 GLY6        0.0000 
     12 CA         64.0400   43.2600   81.4000 C.3       4 GLY6        0.0000 
     13 CA         65.3700   42.7700   80.9000 C.3       4 GLY6        0.0000 
     14 CA         65.5400   44.0400   80.1200 C.3       4 GLY6        0.0000 
     15 CA         66.0400   43.4000   82.0800 C.3       4 GLY6        0.0000 
     16 CA         68.0500   43.5400   82.7700 C.3       4 GLY6        0.0000 
     17 CA         69.5500   44.3200   81.4900 C.3       4 GLY6        0.0000 
     18 CA         70.8800   43.8300   80.9900 C.3       4 GLY6        0.0000 
     19 CA         71.0500   45.1000   80.2100 C.3       4 GLY6        0.0000 
     20 CA         72.5300   41.4300   83.2300 C.3       4 GLY6        0.0000 
     21 CA         70.0500   43.6800   83.4500 C.3       4 GLY6        0.0000 
     22 CA         71.3800   43.1900   82.9500 C.3       4 GLY6        0.0000 
     23 CA         72.7000   42.7000   82.4500 C.3       4 GLY6        0.0000 
     24 CA         74.0300   42.2100   81.9500 C.3       4 GLY6        0.0000 
     25 CA         72.8800   43.9700   81.6700 C.3       4 GLY6        0.0000 
     26 DU         73.8500   40.9400   82.7300 H         5 CUB7        0.0000 
@<TRIPOS>BOND
@<TRIPOS>SUBSTRUCTURE
     1 ALA2        1 GROUP   
     2 ASP3        9 GROUP   
     3 LYS4       10 GROUP   
     4 GLY6       11 GROUP   
     5 CUB7       26 GROUP   
@<TRIPOS>SET

