#    Name: 6hsg_2_DMF
#    Modification time : Fri May 22 19:24:12 2020

@<TRIPOS>MOLECULE
6hsg_2_DMF
    5     4     1     0     0
SMALL
NO_CHARGES


@<TRIPOS>ATOM
      1 C1         69.1650   37.6460   78.5510 C.3       1 DMF506      0.0000 
      2 C2         69.4200   35.5940   80.0400 C.3       1 DMF506      0.0000 
      3 C          67.2700   36.7050   79.6920 C.2       1 DMF506      0.0000 
      4 O          66.6200   35.6640   79.7860 O.2       1 DMF506      0.0000 
      5 N          68.5750   36.6430   79.4430 N.am      1 DMF506      0.0000 
@<TRIPOS>BOND
     1    1    5 1    
     2    2    5 1    
     3    3    4 2    
     4    3    5 am   
@<TRIPOS>SUBSTRUCTURE
     1 DMF506      1 GROUP   
@<TRIPOS>SET

