#    Name: 6hsg_2_DMF_CAVITY_N1_6
#    Modification time : Fri May 22 19:24:12 2020

@<TRIPOS>MOLECULE
6hsg_2_DMF_CAVITY_N1_6
    1     0     1     0     0
SMALL
NO_CHARGES


@<TRIPOS>ATOM
      1 O          66.6900   42.2800   80.4000 O.2       1 ALA2        0.0000 
@<TRIPOS>BOND
@<TRIPOS>SUBSTRUCTURE
     1 ALA2        1 GROUP   
@<TRIPOS>SET

