#    Name: 5z53_1_0HZ_CAVITY_N1_ALL
#    Modification time : Fri May 22 19:23:50 2020

@<TRIPOS>MOLECULE
5z53_1_0HZ_CAVITY_N1_ALL
   78     0     6     0     0
SMALL
NO_CHARGES


@<TRIPOS>ATOM
      1 OG        -24.3000  -11.7400   -7.7400 O.3       1 SER1        0.0000 
      2 OG        -24.1500  -10.2500   -7.6600 O.3       1 SER1        0.0000 
      3 N         -23.4000  -19.8600    0.3800 N.am      2 ALA2        0.0000 
      4 O         -24.3600  -18.3100    1.4700 O.2       2 ALA2        0.0000 
      5 N         -24.2400  -18.2000   -0.6400 N.am      2 ALA2        0.0000 
      6 O         -22.2500  -18.5300    1.5800 O.2       2 ALA2        0.0000 
      7 N         -26.3200  -16.6100    1.4600 N.am      2 ALA2        0.0000 
      8 O         -24.2100  -16.8200    1.5600 O.2       2 ALA2        0.0000 
      9 O         -23.1000  -16.8800    0.5600 O.2       2 ALA2        0.0000 
     10 O         -22.9500  -15.3900    0.6400 O.2       2 ALA2        0.0000 
     11 N         -25.7900  -13.4000   -2.6000 N.am      2 ALA2        0.0000 
     12 N         -24.8000  -13.5700   -1.4900 N.am      2 ALA2        0.0000 
     13 N         -25.6400  -11.9100   -2.5100 N.am      2 ALA2        0.0000 
     14 O         -24.4100  -11.8500   -5.6300 O.2       2 ALA2        0.0000 
     15 N         -25.6100  -10.5400   -0.3100 N.am      2 ALA2        0.0000 
     16 N         -25.4900  -10.4200   -2.4200 N.am      2 ALA2        0.0000 
     17 N         -26.4600   -8.8800   -1.3300 N.am      2 ALA2        0.0000 
     18 NZ        -25.4600   -9.0400   -0.2200 N.4       3 LYS4        0.0000 
     19 CZ        -23.2500  -18.3700    0.4700 C.ar      4 PHE5        0.0000 
     20 CZ        -23.9500  -15.2200   -0.4700 C.ar      4 PHE5        0.0000 
     21 CZ        -22.8400  -15.2700   -1.4700 C.ar      4 PHE5        0.0000 
     22 CZ        -22.7200  -15.1600   -3.5900 C.ar      4 PHE5        0.0000 
     23 CZ        -23.8000  -13.7300   -0.3800 C.ar      4 PHE5        0.0000 
     24 CZ        -24.6800  -13.4500   -3.6000 C.ar      4 PHE5        0.0000 
     25 CZ        -23.6800  -13.6200   -2.4900 C.ar      4 PHE5        0.0000 
     26 CZ        -22.6900  -13.7800   -1.3800 C.ar      4 PHE5        0.0000 
     27 CZ        -23.5700  -13.5000   -4.6100 C.ar      4 PHE5        0.0000 
     28 CZ        -22.5700  -13.6700   -3.5000 C.ar      4 PHE5        0.0000 
     29 CZ        -21.5800  -13.8300   -2.3900 C.ar      4 PHE5        0.0000 
     30 CZ        -22.4500  -13.5600   -5.6100 C.ar      4 PHE5        0.0000 
     31 CZ        -21.4600  -13.7200   -4.5000 C.ar      4 PHE5        0.0000 
     32 CZ        -24.6500  -12.0800   -1.4000 C.ar      4 PHE5        0.0000 
     33 CZ        -24.5300  -11.9600   -3.5100 C.ar      4 PHE5        0.0000 
     34 CZ        -23.5300  -12.1300   -2.4000 C.ar      4 PHE5        0.0000 
     35 CZ        -23.4200  -12.0100   -4.5200 C.ar      4 PHE5        0.0000 
     36 CZ        -22.4200  -12.1800   -3.4100 C.ar      4 PHE5        0.0000 
     37 CZ        -21.4300  -12.3400   -2.3000 C.ar      4 PHE5        0.0000 
     38 CZ        -23.3000  -11.9000   -6.6300 C.ar      4 PHE5        0.0000 
     39 CZ        -22.3100  -12.0700   -5.5200 C.ar      4 PHE5        0.0000 
     40 CZ        -21.3100  -12.2300   -4.4200 C.ar      4 PHE5        0.0000 
     41 CZ        -23.1800  -11.7900   -8.7500 C.ar      4 PHE5        0.0000 
     42 CZ        -22.1900  -11.9500   -7.6400 C.ar      4 PHE5        0.0000 
     43 CZ        -24.5000  -10.5900   -1.3100 C.ar      4 PHE5        0.0000 
     44 CZ        -25.3800  -10.3100   -4.5400 C.ar      4 PHE5        0.0000 
     45 CZ        -24.3800  -10.4700   -3.4300 C.ar      4 PHE5        0.0000 
     46 CZ        -23.3900  -10.6400   -2.3200 C.ar      4 PHE5        0.0000 
     47 CZ        -24.2700  -10.3600   -5.5400 C.ar      4 PHE5        0.0000 
     48 CZ        -23.2700  -10.5200   -4.4300 C.ar      4 PHE5        0.0000 
     49 CZ        -23.1500  -10.4100   -6.5500 C.ar      4 PHE5        0.0000 
     50 CZ        -22.0400  -10.4600   -7.5500 C.ar      4 PHE5        0.0000 
     51 CZ        -21.0500  -10.6300   -6.4400 C.ar      4 PHE5        0.0000 
     52 CZ        -21.9200  -10.3500   -9.6700 C.ar      4 PHE5        0.0000 
     53 CZ        -24.3500   -9.1000   -1.2200 C.ar      4 PHE5        0.0000 
     54 CZ        -23.1200   -9.0300   -4.3400 C.ar      4 PHE5        0.0000 
     55 CZ        -21.8900   -8.9700   -7.4600 C.ar      4 PHE5        0.0000 
     56 CZ        -20.7800   -9.0200   -8.4700 C.ar      4 PHE5        0.0000 
     57 CA        -24.5100  -19.8000    1.3800 C.3       5 GLY6        0.0000 
     58 CA        -26.4700  -18.1000    1.3700 C.3       5 GLY6        0.0000 
     59 CA        -25.4700  -18.2600    2.4800 C.3       5 GLY6        0.0000 
     60 CA        -25.3600  -18.1500    0.3600 C.3       5 GLY6        0.0000 
     61 CA        -25.2100  -16.6600    0.4500 C.3       5 GLY6        0.0000 
     62 CA        -24.1000  -16.7100   -0.5500 C.3       5 GLY6        0.0000 
     63 CA        -25.0600  -15.1700    0.5400 C.3       5 GLY6        0.0000 
     64 CA        -24.9400  -15.0600   -1.5800 C.3       5 GLY6        0.0000 
     65 CA        -23.8300  -15.1100   -2.5800 C.3       5 GLY6        0.0000 
     66 CA        -21.1900  -12.1200   -6.5300 C.3       5 GLY6        0.0000 
     67 CA        -21.0800  -12.0000   -8.6500 C.3       5 GLY6        0.0000 
     68 CA        -20.9300  -10.5100   -8.5600 C.3       5 GLY6        0.0000 
     69 CA        -24.2300   -8.9800   -3.3400 C.3       5 GLY6        0.0000 
     70 CA        -23.2400   -9.1500   -2.2300 C.3       5 GLY6        0.0000 
     71 CA        -28.4200   -7.1700   -1.3400 C.3       5 GLY6        0.0000 
     72 CA        -27.3100   -7.2300   -2.3500 C.3       5 GLY6        0.0000 
     73 CA        -25.2000   -7.4400   -2.2400 C.3       5 GLY6        0.0000 
     74 CA        -24.2000   -7.6100   -1.1400 C.3       5 GLY6        0.0000 
     75 CA        -24.0900   -7.4900   -3.2500 C.3       5 GLY6        0.0000 
     76 DU        -23.0400  -10.3000   -8.6600 H         6 CUB7        0.0000 
     77 DU        -25.3500   -8.9300   -2.3300 H         6 CUB7        0.0000 
     78 DU        -26.3100   -7.3900   -1.2400 H         6 CUB7        0.0000 
@<TRIPOS>BOND
@<TRIPOS>SUBSTRUCTURE
     1 SER1        1 GROUP   
     2 ALA2        3 GROUP   
     3 LYS4       18 GROUP   
     4 PHE5       19 GROUP   
     5 GLY6       57 GROUP   
     6 CUB7       76 GROUP   
@<TRIPOS>SET

