#    Name: 5z53_1_0HZ
#    Modification time : Fri May 22 19:23:49 2020

@<TRIPOS>MOLECULE
5z53_1_0HZ
   18    19     1     0     0
SMALL
NO_CHARGES


@<TRIPOS>ATOM
      1 N         -23.3320  -12.0300   -4.0310 N.am      1 0HZ303      0.0000 
      2 CA        -23.1790  -12.9200   -2.8400 C.3       1 0HZ303      0.0000 
      3 CB        -22.8120  -14.1830   -3.5380 C.3       1 0HZ303      0.0000 
      4 CG        -21.7540  -13.5680   -4.3950 C.3       1 0HZ303      0.0000 
      5 CD        -22.5260  -12.5330   -5.1580 C.3       1 0HZ303      0.0000 
      6 C         -24.3740  -13.0770   -2.0960 C.2       1 0HZ303      0.0000 
      7 O         -24.6900  -14.0820   -1.4700 O.2       1 0HZ303      0.0000 
      8 N1        -25.2790  -12.0860   -2.1190 N.am      1 0HZ303      0.0000 
      9 CA1       -25.0230  -10.8180   -2.8870 C.3       1 0HZ303      0.0000 
     10 C1        -24.2670  -11.1010   -4.0770 C.2       1 0HZ303      0.0000 
     11 O1        -24.4000  -10.4210   -5.1020 O.2       1 0HZ303      0.0000 
     12 CB1       -24.3420   -9.7150   -2.0390 C.3       1 0HZ303      0.0000 
     13 CG1       -25.2390   -9.1890   -0.8570 C.3       1 0HZ303      0.0000 
     14 CD1       -26.6370   -8.6180   -1.3040 C.3       1 0HZ303      0.0000 
     15 NE        -26.5020   -7.4300   -2.1880 N.pl3     1 0HZ303      0.0000 
     16 CZ        -26.1710   -6.1960   -1.7270 C.cat     1 0HZ303      0.0000 
     17 NH1       -26.0900   -5.9520   -0.4140 N.pl3     1 0HZ303      0.0000 
     18 NH2       -25.9870   -5.2030   -2.5930 N.pl3     1 0HZ303      0.0000 
@<TRIPOS>BOND
     1    1    2 1    
     2    1    5 1    
     3    1   10 am   
     4    2    3 1    
     5    2    6 1    
     6    3    4 1    
     7    4    5 1    
     8    6    7 2    
     9    6    8 am   
    10    8    9 1    
    11    9   10 1    
    12    9   12 1    
    13   10   11 2    
    14   12   13 1    
    15   13   14 1    
    16   14   15 1    
    17   15   16 ar   
    18   16   17 ar   
    19   16   18 ar   
@<TRIPOS>SUBSTRUCTURE
     1 0HZ303      1 GROUP   
@<TRIPOS>SET

