#    Name: 6ef1_5_ADP
#    Modification time : Fri May 22 19:33:48 2020

@<TRIPOS>MOLECULE
6ef1_5_ADP
   27    29     1     0     1
SMALL
NO_CHARGES


@<TRIPOS>ATOM
      1 PB        144.9710  155.3050  154.1580 P.3       1 ADP501      0.0000 
      2 O1B       145.9880  155.9950  153.2850 O.co2     1 ADP501      0.0000 
      3 O2B       145.3840  155.1800  155.6050 O.co2     1 ADP501      0.0000 
      4 O3B       144.4200  154.0390  153.5620 O.co2     1 ADP501      0.0000 
      5 PA        142.4850  156.1630  155.1960 P.3       1 ADP501      0.0000 
      6 O1A       142.2480  157.5270  155.7940 O.co2     1 ADP501      0.0000 
      7 O2A       142.7670  155.0110  156.1270 O.co2     1 ADP501      0.0000 
      8 O3A       143.7160  156.3170  154.1650 O.3       1 ADP501      0.0000 
      9 O5'       141.1840  155.8190  154.3090 O.3       1 ADP501      0.0000 
     10 C5'       140.9650  154.5430  153.7150 C.3       1 ADP501      0.0000 
     11 C4'       139.4720  154.3220  153.5080 C.3       1 ADP501      0.0000 
     12 O4'       139.2560  153.2210  152.6290 O.3       1 ADP501      0.0000 
     13 C3'       138.7700  154.0120  154.8150 C.3       1 ADP501      0.0000 
     14 O3'       137.6220  154.8480  154.9640 O.3       1 ADP501      0.0000 
     15 C2'       138.3620  152.5580  154.7320 C.3       1 ADP501      0.0000 
     16 O2'       136.9960  152.3590  155.1040 O.3       1 ADP501      0.0000 
     17 C1'       138.5710  152.1600  153.2930 C.3       1 ADP501      0.0000 
     18 N9        139.4110  150.9470  153.2500 N.pl3     1 ADP501      0.0000 
     19 C8        140.7200  150.9710  152.9800 C.2       1 ADP501      0.0000 
     20 N7        141.2440  149.7240  152.9930 N.2       1 ADP501      0.0000 
     21 C5        140.2460  148.8740  153.2730 C.ar      1 ADP501      0.0000 
     22 C6        140.1120  147.4130  153.4340 C.ar      1 ADP501      0.0000 
     23 N6        141.1730  146.5880  153.3010 N.pl3     1 ADP501      0.0000 
     24 N1        138.8940  146.9250  153.7270 N.ar      1 ADP501      0.0000 
     25 C2        137.8220  147.7200  153.8610 C.ar      1 ADP501      0.0000 
     26 N3        137.8720  149.0570  153.7300 N.ar      1 ADP501      0.0000 
     27 C4        139.0330  149.6840  153.4390 C.ar      1 ADP501      0.0000 
@<TRIPOS>BOND
     1    1    2 ar   
     2    1    3 ar   
     3    1    4 ar   
     4    1    8 1    
     5    5    6 ar   
     6    5    7 ar   
     7    5    8 1    
     8    5    9 1    
     9    9   10 1    
    10   10   11 1    
    11   11   12 1    
    12   11   13 1    
    13   12   17 1    
    14   13   14 1    
    15   13   15 1    
    16   15   16 1    
    17   15   17 1    
    18   17   18 1    
    19   18   19 1    
    20   18   27 1    
    21   19   20 2    
    22   20   21 1    
    23   21   22 ar   
    24   21   27 ar   
    25   22   23 1    
    26   22   24 ar   
    27   24   25 ar   
    28   25   26 ar   
    29   26   27 ar   
@<TRIPOS>SUBSTRUCTURE
     1 ADP501      1 GROUP   
@<TRIPOS>SET
ATOM$ORANGE STATIC     ATOMS   COLORGROUP SYSTEM 
20 10 10 11 11 13 13 15 15 17 17 19 19 21 21 22 22 25 \
25 27 27 

