#    Name: 6ef1_6_ADP
#    Modification time : Fri May 22 19:33:56 2020

@<TRIPOS>MOLECULE
6ef1_6_ADP
   27    29     1     0     1
SMALL
NO_CHARGES


@<TRIPOS>ATOM
      1 PB        136.1460  186.4860  147.8800 P.3       1 ADP501      0.0000 
      2 O1B       137.0660  185.3280  147.5830 O.co2     1 ADP501      0.0000 
      3 O2B       136.8410  187.7810  148.2110 O.co2     1 ADP501      0.0000 
      4 O3B       134.9820  186.1520  148.7800 O.co2     1 ADP501      0.0000 
      5 PA        134.5700  185.6140  145.7960 P.3       1 ADP501      0.0000 
      6 O1A       135.4850  184.4590  145.4820 O.co2     1 ADP501      0.0000 
      7 O2A       133.3550  185.4400  146.6710 O.co2     1 ADP501      0.0000 
      8 O3A       135.4620  186.7690  146.4590 O.3       1 ADP501      0.0000 
      9 O5'       134.1020  186.3340  144.4430 O.3       1 ADP501      0.0000 
     10 C5'       133.0480  187.2820  144.5470 C.3       1 ADP501      0.0000 
     11 C4'       132.9250  188.0390  143.2290 C.3       1 ADP501      0.0000 
     12 O4'       131.8820  187.4950  142.4100 O.3       1 ADP501      0.0000 
     13 C3'       132.6180  189.5220  143.3930 C.3       1 ADP501      0.0000 
     14 O3'       133.7340  190.2960  142.9480 O.3       1 ADP501      0.0000 
     15 C2'       131.3970  189.7720  142.5340 C.3       1 ADP501      0.0000 
     16 O2'       131.5130  190.9740  141.7680 O.3       1 ADP501      0.0000 
     17 C1'       131.3230  188.5540  141.6220 C.3       1 ADP501      0.0000 
     18 N9        129.9760  188.1920  141.0710 N.pl3     1 ADP501      0.0000 
     19 C8        129.8290  187.2440  140.1240 C.2       1 ADP501      0.0000 
     20 N7        128.5340  187.0990  139.7580 N.2       1 ADP501      0.0000 
     21 C5        127.8150  187.9790  140.4660 C.ar      1 ADP501      0.0000 
     22 C6        126.3840  188.3370  140.5540 C.ar      1 ADP501      0.0000 
     23 N6        125.4640  187.7030  139.7900 N.pl3     1 ADP501      0.0000 
     24 N1        126.0300  189.3110  141.4180 N.ar      1 ADP501      0.0000 
     25 C2        126.9370  189.9440  142.1810 C.ar      1 ADP501      0.0000 
     26 N3        128.2490  189.6610  142.1410 N.ar      1 ADP501      0.0000 
     27 C4        128.7600  188.7090  141.3240 C.ar      1 ADP501      0.0000 
@<TRIPOS>BOND
     1    1    2 ar   
     2    1    3 ar   
     3    1    4 ar   
     4    1    8 1    
     5    5    6 ar   
     6    5    7 ar   
     7    5    8 1    
     8    5    9 1    
     9    9   10 1    
    10   10   11 1    
    11   11   12 1    
    12   11   13 1    
    13   12   17 1    
    14   13   14 1    
    15   13   15 1    
    16   15   16 1    
    17   15   17 1    
    18   17   18 1    
    19   18   19 1    
    20   18   27 1    
    21   19   20 2    
    22   20   21 1    
    23   21   22 ar   
    24   21   27 ar   
    25   22   23 1    
    26   22   24 ar   
    27   24   25 ar   
    28   25   26 ar   
    29   26   27 ar   
@<TRIPOS>SUBSTRUCTURE
     1 ADP501      1 GROUP   
@<TRIPOS>SET
ATOM$ORANGE STATIC     ATOMS   COLORGROUP SYSTEM 
20 10 10 11 11 13 13 15 15 17 17 19 19 21 21 22 22 25 \
25 27 27 

