#    Name: 6ef1_3_ATP
#    Modification time : Fri May 22 19:33:30 2020

@<TRIPOS>MOLECULE
6ef1_3_ATP
   31    33     1     0     1
SMALL
NO_CHARGES


@<TRIPOS>ATOM
      1 PG        195.7730  175.4030  166.6830 P.3       1 ATP501      0.0000 
      2 O1G       194.8780  175.2850  165.4760 O.co2     1 ATP501      0.0000 
      3 O2G       195.0170  175.7020  167.9500 O.co2     1 ATP501      0.0000 
      4 O3G       197.0060  176.2390  166.4510 O.co2     1 ATP501      0.0000 
      5 PB        197.6770  173.5450  167.6980 P.3       1 ATP501      0.0000 
      6 O1B       198.7920  174.5140  167.3890 O.co2     1 ATP501      0.0000 
      7 O2B       197.2940  173.2770  169.1290 O.co2     1 ATP501      0.0000 
      8 O3B       196.3420  173.9110  166.8740 O.3       1 ATP501      0.0000 
      9 PA        199.4560  171.7530  166.4870 P.3       1 ATP501      0.0000 
     10 O1A       199.9610  172.9160  165.6680 O.co2     1 ATP501      0.0000 
     11 O2A       199.3190  170.3910  165.8620 O.co2     1 ATP501      0.0000 
     12 O3A       198.0020  172.1190  167.0480 O.3       1 ATP501      0.0000 
     13 O5'       200.4040  171.5950  167.7760 O.3       1 ATP501      0.0000 
     14 C5'       199.9120  171.2270  169.0590 C.3       1 ATP501      0.0000 
     15 C4'       200.7930  170.0930  169.5990 C.3       1 ATP501      0.0000 
     16 O4'       202.0540  170.0480  168.9200 O.3       1 ATP501      0.0000 
     17 C3'       201.1140  170.1540  171.0850 C.3       1 ATP501      0.0000 
     18 O3'       200.6020  168.9960  171.7410 O.3       1 ATP501      0.0000 
     19 C2'       202.6210  170.1730  171.1590 C.3       1 ATP501      0.0000 
     20 O2'       203.1340  169.3530  172.2070 O.3       1 ATP501      0.0000 
     21 C1'       203.0840  169.6380  169.8240 C.3       1 ATP501      0.0000 
     22 N9        204.4120  170.1350  169.3690 N.pl3     1 ATP501      0.0000 
     23 C8        204.8390  170.0750  168.0950 C.2       1 ATP501      0.0000 
     24 N7        206.0890  170.5860  167.9690 N.2       1 ATP501      0.0000 
     25 C5        206.4860  170.9690  169.1870 C.ar      1 ATP501      0.0000 
     26 C6        207.6940  171.5830  169.7640 C.ar      1 ATP501      0.0000 
     27 N6        208.7530  171.8970  168.9920 N.pl3     1 ATP501      0.0000 
     28 N1        207.7070  171.8230  171.0860 N.ar      1 ATP501      0.0000 
     29 C2        206.6660  171.5210  171.8750 C.ar      1 ATP501      0.0000 
     30 N3        205.5440  170.9600  171.4130 N.ar      1 ATP501      0.0000 
     31 C4        205.3900  170.6590  170.1080 C.ar      1 ATP501      0.0000 
@<TRIPOS>BOND
     1    1    2 ar   
     2    1    3 ar   
     3    1    4 ar   
     4    1    8 1    
     5    5    6 ar   
     6    5    7 ar   
     7    5    8 1    
     8    5   12 1    
     9    9   10 ar   
    10    9   11 ar   
    11    9   12 1    
    12    9   13 1    
    13   13   14 1    
    14   14   15 1    
    15   15   16 1    
    16   15   17 1    
    17   16   21 1    
    18   17   18 1    
    19   17   19 1    
    20   19   20 1    
    21   19   21 1    
    22   21   22 1    
    23   22   23 1    
    24   22   31 1    
    25   23   24 2    
    26   24   25 1    
    27   25   26 ar   
    28   25   31 ar   
    29   26   27 1    
    30   26   28 ar   
    31   28   29 ar   
    32   29   30 ar   
    33   30   31 ar   
@<TRIPOS>SUBSTRUCTURE
     1 ATP501      1 GROUP   
@<TRIPOS>SET
ATOM$ORANGE STATIC     ATOMS   COLORGROUP SYSTEM 
20 14 14 15 15 17 17 19 19 21 21 23 23 25 25 26 26 29 \
29 31 31 

