#    Name: 6ef1_2_ATP
#    Modification time : Fri May 22 19:33:22 2020

@<TRIPOS>MOLECULE
6ef1_2_ATP
   31    33     1     0     1
SMALL
NO_CHARGES


@<TRIPOS>ATOM
      1 PG        190.1240  201.7610  159.4670 P.3       1 ATP501      0.0000 
      2 O1G       189.4590  203.0070  158.9340 O.co2     1 ATP501      0.0000 
      3 O2G       189.4820  200.4930  158.9650 O.co2     1 ATP501      0.0000 
      4 O3G       190.4210  201.7800  160.9440 O.co2     1 ATP501      0.0000 
      5 PB        192.5740  202.9670  158.7080 P.3       1 ATP501      0.0000 
      6 O1B       191.7550  204.2250  158.7830 O.co2     1 ATP501      0.0000 
      7 O2B       193.6830  202.6980  159.6910 O.co2     1 ATP501      0.0000 
      8 O3B       191.5800  201.7060  158.7830 O.3       1 ATP501      0.0000 
      9 PA        193.7040  203.9970  156.3250 P.3       1 ATP501      0.0000 
     10 O1A       193.4380  203.6710  154.8800 O.co2     1 ATP501      0.0000 
     11 O2A       193.1840  205.3020  156.8730 O.co2     1 ATP501      0.0000 
     12 O3A       193.1160  202.7840  157.2030 O.3       1 ATP501      0.0000 
     13 O5'       195.2930  203.8800  156.5080 O.3       1 ATP501      0.0000 
     14 C5'       195.8420  203.2290  157.6400 C.3       1 ATP501      0.0000 
     15 C4'       197.3610  203.1940  157.5170 C.3       1 ATP501      0.0000 
     16 O4'       197.7430  203.5090  156.1740 O.3       1 ATP501      0.0000 
     17 C3'       198.1000  204.1590  158.4330 C.3       1 ATP501      0.0000 
     18 O3'       198.9280  203.4500  159.3500 O.3       1 ATP501      0.0000 
     19 C2'       198.9480  205.0000  157.5180 C.3       1 ATP501      0.0000 
     20 O2'       200.2860  205.1230  157.9840 O.3       1 ATP501      0.0000 
     21 C1'       198.9160  204.3190  156.1730 C.3       1 ATP501      0.0000 
     22 N9        198.8770  205.3240  155.0830 N.pl3     1 ATP501      0.0000 
     23 C8        198.0620  205.2990  154.0130 C.2       1 ATP501      0.0000 
     24 N7        198.2940  206.3650  153.2080 N.2       1 ATP501      0.0000 
     25 C5        199.2770  207.0810  153.7680 C.ar      1 ATP501      0.0000 
     26 C6        200.0030  208.3130  153.4480 C.ar      1 ATP501      0.0000 
     27 N6        199.7010  208.9950  152.3320 N.pl3     1 ATP501      0.0000 
     28 N1        200.9630  208.7300  154.2930 N.ar      1 ATP501      0.0000 
     29 C2        201.2660  208.0490  155.4090 C.ar      1 ATP501      0.0000 
     30 N3        200.6430  206.9180  155.7600 N.ar      1 ATP501      0.0000 
     31 C4        199.6670  206.3910  154.9930 C.ar      1 ATP501      0.0000 
@<TRIPOS>BOND
     1    1    2 ar   
     2    1    3 ar   
     3    1    4 ar   
     4    1    8 1    
     5    5    6 ar   
     6    5    7 ar   
     7    5    8 1    
     8    5   12 1    
     9    9   10 ar   
    10    9   11 ar   
    11    9   12 1    
    12    9   13 1    
    13   13   14 1    
    14   14   15 1    
    15   15   16 1    
    16   15   17 1    
    17   16   21 1    
    18   17   18 1    
    19   17   19 1    
    20   19   20 1    
    21   19   21 1    
    22   21   22 1    
    23   22   23 1    
    24   22   31 1    
    25   23   24 2    
    26   24   25 1    
    27   25   26 ar   
    28   25   31 ar   
    29   26   27 1    
    30   26   28 ar   
    31   28   29 ar   
    32   29   30 ar   
    33   30   31 ar   
@<TRIPOS>SUBSTRUCTURE
     1 ATP501      1 GROUP   
@<TRIPOS>SET
ATOM$ORANGE STATIC     ATOMS   COLORGROUP SYSTEM 
20 14 14 15 15 17 17 19 19 21 21 23 23 25 25 26 26 29 \
29 31 31 

