#    Name: 6ef1_4_ATP
#    Modification time : Fri May 22 19:33:38 2020

@<TRIPOS>MOLECULE
6ef1_4_ATP
   31    33     1     0     1
SMALL
NO_CHARGES


@<TRIPOS>ATOM
      1 PG        176.1280  153.3380  164.6090 P.3       1 ATP501      0.0000 
      2 O1G       175.4190  154.0890  163.5100 O.co2     1 ATP501      0.0000 
      3 O2G       177.4940  153.8820  164.9490 O.co2     1 ATP501      0.0000 
      4 O3G       175.2680  153.0210  165.8080 O.co2     1 ATP501      0.0000 
      5 PB        177.5080  150.9310  164.6610 P.3       1 ATP501      0.0000 
      6 O1B       178.7920  151.0040  163.8840 O.co2     1 ATP501      0.0000 
      7 O2B       177.4900  151.2030  166.1420 O.co2     1 ATP501      0.0000 
      8 O3B       176.4330  151.8970  163.9610 O.3       1 ATP501      0.0000 
      9 PA        176.1020  148.8400  165.6350 P.3       1 ATP501      0.0000 
     10 O1A       175.0260  149.8460  165.9540 O.co2     1 ATP501      0.0000 
     11 O2A       177.0860  148.4470  166.7100 O.co2     1 ATP501      0.0000 
     12 O3A       176.9060  149.4720  164.4100 O.3       1 ATP501      0.0000 
     13 O5'       175.4480  147.5040  165.0220 O.3       1 ATP501      0.0000 
     14 C5'       174.0540  147.3720  164.7530 C.3       1 ATP501      0.0000 
     15 C4'       173.4680  146.2710  165.6210 C.3       1 ATP501      0.0000 
     16 O4'       174.2070  145.0600  165.4580 O.3       1 ATP501      0.0000 
     17 C3'       173.5120  146.6290  167.0970 C.3       1 ATP501      0.0000 
     18 O3'       172.2080  146.9150  167.6000 O.3       1 ATP501      0.0000 
     19 C2'       174.0820  145.4170  167.7900 C.3       1 ATP501      0.0000 
     20 O2'       173.2010  144.9380  168.8060 O.3       1 ATP501      0.0000 
     21 C1'       174.2640  144.3740  166.7050 C.3       1 ATP501      0.0000 
     22 N9        175.5610  143.6990  166.8820 N.pl3     1 ATP501      0.0000 
     23 C8        176.5850  143.6770  166.0160 C.2       1 ATP501      0.0000 
     24 N7        177.6160  142.9550  166.5170 N.2       1 ATP501      0.0000 
     25 C5        177.2400  142.5060  167.7230 C.ar      1 ATP501      0.0000 
     26 C6        177.8370  141.6900  168.7910 C.ar      1 ATP501      0.0000 
     27 N6        179.0840  141.1970  168.6540 N.pl3     1 ATP501      0.0000 
     28 N1        177.0980  141.4580  169.8950 N.ar      1 ATP501      0.0000 
     29 C2        175.8540  141.9470  170.0360 C.ar      1 ATP501      0.0000 
     30 N3        175.2530  142.6960  169.1030 N.ar      1 ATP501      0.0000 
     31 C4        175.8850  142.9970  167.9530 C.ar      1 ATP501      0.0000 
@<TRIPOS>BOND
     1    1    2 ar   
     2    1    3 ar   
     3    1    4 ar   
     4    1    8 1    
     5    5    6 ar   
     6    5    7 ar   
     7    5    8 1    
     8    5   12 1    
     9    9   10 ar   
    10    9   11 ar   
    11    9   12 1    
    12    9   13 1    
    13   13   14 1    
    14   14   15 1    
    15   15   16 1    
    16   15   17 1    
    17   16   21 1    
    18   17   18 1    
    19   17   19 1    
    20   19   20 1    
    21   19   21 1    
    22   21   22 1    
    23   22   23 1    
    24   22   31 1    
    25   23   24 2    
    26   24   25 1    
    27   25   26 ar   
    28   25   31 ar   
    29   26   27 1    
    30   26   28 ar   
    31   28   29 ar   
    32   29   30 ar   
    33   30   31 ar   
@<TRIPOS>SUBSTRUCTURE
     1 ATP501      1 GROUP   
@<TRIPOS>SET
ATOM$ORANGE STATIC     ATOMS   COLORGROUP SYSTEM 
20 14 14 15 15 17 17 19 19 21 21 23 23 25 25 26 26 29 \
29 31 31 

