#    Name: 6ef1_1_ATP
#    Modification time : Fri May 22 19:33:13 2020

@<TRIPOS>MOLECULE
6ef1_1_ATP
   31    33     1     0     1
SMALL
NO_CHARGES


@<TRIPOS>ATOM
      1 PG        162.7930  209.1790  149.3820 P.3       1 ATP501      0.0000 
      2 O1G       161.7350  208.4300  148.6160 O.co2     1 ATP501      0.0000 
      3 O2G       163.8600  208.2990  149.9780 O.co2     1 ATP501      0.0000 
      4 O3G       162.2390  210.2100  150.3290 O.co2     1 ATP501      0.0000 
      5 PB        162.9840  211.3480  147.6280 P.3       1 ATP501      0.0000 
      6 O1B       162.0640  211.0090  146.4920 O.co2     1 ATP501      0.0000 
      7 O2B       162.5730  212.2630  148.7480 O.co2     1 ATP501      0.0000 
      8 O3B       163.5920  210.0000  148.2500 O.3       1 ATP501      0.0000 
      9 PA        163.9820  213.6920  146.8290 P.3       1 ATP501      0.0000 
     10 O1A       162.5870  213.9330  146.3100 O.co2     1 ATP501      0.0000 
     11 O2A       164.3450  214.2670  148.1750 O.co2     1 ATP501      0.0000 
     12 O3A       164.2090  212.1070  146.9430 O.3       1 ATP501      0.0000 
     13 O5'       165.0480  214.1520  145.7110 O.3       1 ATP501      0.0000 
     14 C5'       166.2660  214.8330  146.0150 C.3       1 ATP501      0.0000 
     15 C4'       166.3070  216.1700  145.2950 C.3       1 ATP501      0.0000 
     16 O4'       166.2110  215.9930  143.8820 O.3       1 ATP501      0.0000 
     17 C3'       165.1530  217.0520  145.7330 C.3       1 ATP501      0.0000 
     18 O3'       165.6420  218.3050  146.2120 O.3       1 ATP501      0.0000 
     19 C2'       164.3150  217.2330  144.4900 C.3       1 ATP501      0.0000 
     20 O2'       163.7870  218.5510  144.3310 O.3       1 ATP501      0.0000 
     21 C1'       165.2570  216.9070  143.3550 C.3       1 ATP501      0.0000 
     22 N9        164.4940  216.2920  142.2620 N.pl3     1 ATP501      0.0000 
     23 C8        164.7700  215.1330  141.6440 C.2       1 ATP501      0.0000 
     24 N7        163.8490  214.8850  140.6830 N.2       1 ATP501      0.0000 
     25 C5        162.9810  215.9040  140.6920 C.ar      1 ATP501      0.0000 
     26 C6        161.7760  216.2770  139.9470 C.ar      1 ATP501      0.0000 
     27 N6        161.2920  215.5000  138.9660 N.pl3     1 ATP501      0.0000 
     28 N1        161.1760  217.4300  140.2720 N.ar      1 ATP501      0.0000 
     29 C2        161.6160  218.2380  141.2450 C.ar      1 ATP501      0.0000 
     30 N3        162.7060  217.9590  141.9630 N.ar      1 ATP501      0.0000 
     31 C4        163.4120  216.8330  141.7300 C.ar      1 ATP501      0.0000 
@<TRIPOS>BOND
     1    1    2 ar   
     2    1    3 ar   
     3    1    4 ar   
     4    1    8 1    
     5    5    6 ar   
     6    5    7 ar   
     7    5    8 1    
     8    5   12 1    
     9    9   10 ar   
    10    9   11 ar   
    11    9   12 1    
    12    9   13 1    
    13   13   14 1    
    14   14   15 1    
    15   15   16 1    
    16   15   17 1    
    17   16   21 1    
    18   17   18 1    
    19   17   19 1    
    20   19   20 1    
    21   19   21 1    
    22   21   22 1    
    23   22   23 1    
    24   22   31 1    
    25   23   24 2    
    26   24   25 1    
    27   25   26 ar   
    28   25   31 ar   
    29   26   27 1    
    30   26   28 ar   
    31   28   29 ar   
    32   29   30 ar   
    33   30   31 ar   
@<TRIPOS>SUBSTRUCTURE
     1 ATP501      1 GROUP   
@<TRIPOS>SET
ATOM$ORANGE STATIC     ATOMS   COLORGROUP SYSTEM 
20 14 14 15 15 17 17 19 19 21 21 23 23 25 25 26 26 29 \
29 31 31 

