#    Name: 6mke_3_FK5
#    Modification time : Fri May 22 19:26:38 2020

@<TRIPOS>MOLECULE
6mke_3_FK5
   57    60     1     0     0
SMALL
NO_CHARGES


@<TRIPOS>ATOM
      1 C1         28.0400   -0.5430   30.1200 C.2       1 FK5201      0.0000 
      2 C2         28.5900    0.3970   31.1910 C.3       1 FK5201      0.0000 
      3 C3         27.5130    0.7800   32.2020 C.3       1 FK5201      0.0000 
      4 C4         26.5480    1.7930   31.5950 C.3       1 FK5201      0.0000 
      5 C5         27.2860    3.0140   31.0730 C.3       1 FK5201      0.0000 
      6 C6         28.3590    2.6180   30.0810 C.3       1 FK5201      0.0000 
      7 C8         30.5670    1.7330   30.8190 C.2       1 FK5201      0.0000 
      8 C9         31.2510    3.0480   30.4230 C.2       1 FK5201      0.0000 
      9 C10        31.9140    3.1960   29.0360 C.3       1 FK5201      0.0000 
     10 C11        32.3820    1.8570   28.4430 C.3       1 FK5201      0.0000 
     11 C12        32.6370    2.0050   26.9410 C.3       1 FK5201      0.0000 
     12 C13        31.4770    2.6530   26.2150 C.3       1 FK5201      0.0000 
     13 C14        31.1190    3.9680   26.8960 C.3       1 FK5201      0.0000 
     14 C15        29.9040    4.6680   26.3180 C.3       1 FK5201      0.0000 
     15 C16        28.7080    3.7520   26.1330 C.3       1 FK5201      0.0000 
     16 C17        27.3980    4.4640   25.7780 C.3       1 FK5201      0.0000 
     17 C18        27.2640    4.6500   24.2610 C.3       1 FK5201      0.0000 
     18 C19        27.0450    3.3770   23.4790 C.2       1 FK5201      0.0000 
     19 C20        28.0680    2.6770   23.0020 C.2       1 FK5201      0.0000 
     20 C21        28.0180    1.3260   22.3280 C.3       1 FK5201      0.0000 
     21 C22        28.2140    0.2780   23.4240 C.2       1 FK5201      0.0000 
     22 C23        26.9290   -0.2240   24.0470 C.3       1 FK5201      0.0000 
     23 C24        27.0730   -0.9560   25.3800 C.3       1 FK5201      0.0000 
     24 C25        27.4630   -0.0960   26.5920 C.3       1 FK5201      0.0000 
     25 C26        27.7510   -0.9890   27.8140 C.3       1 FK5201      0.0000 
     26 C27        28.7230   -2.1120   27.5320 C.2       1 FK5201      0.0000 
     27 C28        28.3430   -3.3770   27.6740 C.2       1 FK5201      0.0000 
     28 C29        29.0970   -4.6100   27.3040 C.3       1 FK5201      0.0000 
     29 C30        29.1470   -5.5970   28.4830 C.3       1 FK5201      0.0000 
     30 C31        29.8830   -6.8770   28.1420 C.3       1 FK5201      0.0000 
     31 C32        29.2200   -7.5490   26.9490 C.3       1 FK5201      0.0000 
     32 C33        29.1710   -6.6050   25.7630 C.3       1 FK5201      0.0000 
     33 C34        28.4380   -5.3140   26.1070 C.3       1 FK5201      0.0000 
     34 C35        33.6270    1.3210   29.1440 C.3       1 FK5201      0.0000 
     35 C36        27.3030    5.8150   26.4800 C.3       1 FK5201      0.0000 
     36 C37        25.6130    2.9460   23.3490 C.3       1 FK5201      0.0000 
     37 C38        29.1020    1.2020   21.2410 C.3       1 FK5201      0.0000 
     38 C39        28.9640    2.2340   20.1680 C.2       1 FK5201      0.0000 
     39 C40        28.4190    2.0730   19.0070 C.2       1 FK5201      0.0000 
     40 C41        26.3950    0.9480   26.9120 C.3       1 FK5201      0.0000 
     41 C42        30.0900   -1.7010   27.0680 C.3       1 FK5201      0.0000 
     42 C43        32.1390    1.7200   24.1190 C.3       1 FK5201      0.0000 
     43 C44        30.8100    6.5590   25.1750 C.3       1 FK5201      0.0000 
     44 C45        30.9900   -7.9090   29.9950 C.3       1 FK5201      0.0000 
     45 N7         29.2400    1.6000   30.6610 N.am      1 FK5201      0.0000 
     46 O1         28.2610   -0.1250   28.8580 O.3       1 FK5201      0.0000 
     47 O2         27.4630   -1.5600   30.3850 O.2       1 FK5201      0.0000 
     48 O3         31.2750    0.8590   31.3040 O.2       1 FK5201      0.0000 
     49 O4         31.2650    3.9700   31.2160 O.2       1 FK5201      0.0000 
     50 O5         30.8400    3.7190   28.2800 O.3       1 FK5201      0.0000 
     51 O6         32.9480    4.1190   28.9300 O.3       1 FK5201      0.0000 
     52 O7         31.8210    2.8940   24.8510 O.3       1 FK5201      0.0000 
     53 O8         30.2920    5.2400   25.0680 O.3       1 FK5201      0.0000 
     54 O9         29.2990   -0.1220   23.7900 O.2       1 FK5201      0.0000 
     55 O10        25.8390   -1.6190   25.6600 O.3       1 FK5201      0.0000 
     56 O11        29.8020   -7.8090   29.2210 O.3       1 FK5201      0.0000 
     57 O12        29.9170   -8.7460   26.5980 O.3       1 FK5201      0.0000 
@<TRIPOS>BOND
     1    1    2 1    
     2    1   46 1    
     3    1   47 2    
     4    2    3 1    
     5    2   45 1    
     6    3    4 1    
     7    4    5 1    
     8    5    6 1    
     9    6   45 1    
    10    7    8 1    
    11    7   45 am   
    12    7   48 2    
    13    8    9 1    
    14    8   49 2    
    15    9   10 1    
    16    9   50 1    
    17    9   51 1    
    18   10   11 1    
    19   10   34 1    
    20   11   12 1    
    21   12   13 1    
    22   12   52 1    
    23   13   14 1    
    24   13   50 1    
    25   14   15 1    
    26   14   53 1    
    27   15   16 1    
    28   16   17 1    
    29   16   35 1    
    30   17   18 1    
    31   18   19 2    
    32   18   36 1    
    33   19   20 1    
    34   20   21 1    
    35   20   37 1    
    36   21   22 1    
    37   21   54 2    
    38   22   23 1    
    39   23   24 1    
    40   23   55 1    
    41   24   25 1    
    42   24   40 1    
    43   25   26 1    
    44   25   46 1    
    45   26   27 2    
    46   26   41 1    
    47   27   28 1    
    48   28   29 1    
    49   28   33 1    
    50   29   30 1    
    51   30   31 1    
    52   30   56 1    
    53   31   32 1    
    54   31   57 1    
    55   32   33 1    
    56   37   38 1    
    57   38   39 2    
    58   42   52 1    
    59   43   53 1    
    60   44   56 1    
@<TRIPOS>SUBSTRUCTURE
     1 FK5201      1 GROUP   
@<TRIPOS>SET

