#    Name: 6mke_3_FK5_CAVITY_N1_ALL
#    Modification time : Fri May 22 19:26:41 2020

@<TRIPOS>MOLECULE
6mke_3_FK5_CAVITY_N1_ALL
   81     0     6     0     0
SMALL
NO_CHARGES


@<TRIPOS>ATOM
      1 OG         27.8500    4.3800   27.1300 O.3       1 SER1        0.0000 
      2 OG         29.0100    0.3000   27.1300 O.3       1 SER1        0.0000 
      3 OG         28.3700   -0.9800   27.5700 O.3       1 SER1        0.0000 
      4 OG         30.2300   -0.4500   26.7000 O.3       1 SER1        0.0000 
      5 OG         29.5900   -1.7400   27.1300 O.3       1 SER1        0.0000 
      6 OG         27.8000    3.2700   28.9300 O.3       1 SER1        0.0000 
      7 OG         29.6600    3.8000   28.0600 O.3       1 SER1        0.0000 
      8 OG         28.3800    1.2300   28.9300 O.3       1 SER1        0.0000 
      9 OG         27.7400   -0.0600   29.3700 O.3       1 SER1        0.0000 
     10 OG         30.2400    1.7500   28.0600 O.3       1 SER1        0.0000 
     11 OG         29.6000    0.4700   28.5000 O.3       1 SER1        0.0000 
     12 OG         28.9600   -0.8100   28.9300 O.3       1 SER1        0.0000 
     13 OG         28.3200   -2.1000   29.3700 O.3       1 SER1        0.0000 
     14 OG         31.4600    1.0000   27.6300 O.3       1 SER1        0.0000 
     15 OG         29.5400   -2.8600   28.9300 O.3       1 SER1        0.0000 
     16 OG         28.3900    3.4400   30.3000 O.3       1 SER1        0.0000 
     17 OG         29.6100    2.6800   29.8700 O.3       1 SER1        0.0000 
     18 OG         28.9700    1.3900   30.3000 O.3       1 SER1        0.0000 
     19 OG         28.3300    0.1100   30.7400 O.3       1 SER1        0.0000 
     20 OG         30.8300    1.9200   29.4300 O.3       1 SER1        0.0000 
     21 OG         32.0500    1.1700   29.0000 O.3       1 SER1        0.0000 
     22 OG         33.2800    0.4100   28.5600 O.3       1 SER1        0.0000 
     23 OG         31.4300    2.0900   30.8000 O.3       1 SER1        0.0000 
     24 OG         32.6500    1.3300   30.3700 O.3       1 SER1        0.0000 
     25 N          25.3900    1.4800   25.2600 N.am      2 ALA2        0.0000 
     26 N          25.9200   -1.6800   27.0700 N.am      2 ALA2        0.0000 
     27 N          27.1400   -2.4300   26.6300 N.am      2 ALA2        0.0000 
     28 N          26.5100   -1.5100   28.4300 N.am      2 ALA2        0.0000 
     29 N          27.0900   -3.5500   28.4300 N.am      2 ALA2        0.0000 
     30 N          26.4500   -4.8400   28.8700 N.am      2 ALA2        0.0000 
     31 O          27.6800   -3.3800   29.8000 O.2       2 ALA2        0.0000 
     32 O          27.6900   -1.1700   31.1700 O.2       2 ALA2        0.0000 
     33 NZ         30.8900    3.0400   27.6300 N.4       3 LYS4        0.0000 
     34 NZ         30.2600    3.9600   29.4300 N.4       3 LYS4        0.0000 
     35 NZ         31.4800    3.2100   29.0000 N.4       3 LYS4        0.0000 
     36 NZ         30.8500    4.1300   30.8000 N.4       3 LYS4        0.0000 
     37 CZ         26.6200    2.9300   26.2000 C.ar      4 PHE5        0.0000 
     38 CZ         25.9800    1.6500   26.6300 C.ar      4 PHE5        0.0000 
     39 CZ         27.2100    3.1000   27.5700 C.ar      4 PHE5        0.0000 
     40 CZ         26.5700    1.8100   28.0000 C.ar      4 PHE5        0.0000 
     41 CZ         25.9300    0.5300   28.4300 C.ar      4 PHE5        0.0000 
     42 CZ         28.9500   -3.0200   27.5700 C.ar      4 PHE5        0.0000 
     43 CZ         27.1600    1.9800   29.3700 C.ar      4 PHE5        0.0000 
     44 CZ         30.1200   -4.9000   28.9300 C.ar      4 PHE5        0.0000 
     45 CZ         27.1700    4.1900   30.7400 C.ar      4 PHE5        0.0000 
     46 CZ         26.5300    2.9100   31.1700 C.ar      4 PHE5        0.0000 
     47 CZ         25.8900    1.6200   31.6100 C.ar      4 PHE5        0.0000 
     48 CZ         27.1200    3.0700   32.5400 C.ar      4 PHE5        0.0000 
     49 CZ         28.9800    3.6000   31.6700 C.ar      4 PHE5        0.0000 
     50 CZ         28.3400    2.3200   32.1000 C.ar      4 PHE5        0.0000 
     51 CZ         27.7000    1.0300   32.5400 C.ar      4 PHE5        0.0000 
     52 CZ         30.2100    2.8500   31.2400 C.ar      4 PHE5        0.0000 
     53 CZ         29.5600    1.5600   31.6700 C.ar      4 PHE5        0.0000 
     54 CZ         32.0700    3.3700   30.3700 C.ar      4 PHE5        0.0000 
     55 CZ         33.2900    2.6200   29.9300 C.ar      4 PHE5        0.0000 
     56 CA         24.7500    0.1900   25.7000 C.3       5 GLY6        0.0000 
     57 CA         25.3300   -1.8500   25.7000 C.3       5 GLY6        0.0000 
     58 CA         25.3400    0.3600   27.0700 C.3       5 GLY6        0.0000 
     59 CA         24.7000   -0.9200   27.5000 C.3       5 GLY6        0.0000 
     60 CA         26.5200    0.7000   29.8000 C.3       5 GLY6        0.0000 
     61 CA         27.1000   -1.3400   29.8000 C.3       5 GLY6        0.0000 
     62 CA         28.9000   -4.1400   29.3700 C.3       5 GLY6        0.0000 
     63 CA         28.2600   -5.4200   29.8000 C.3       5 GLY6        0.0000 
     64 CA         27.1100    0.8700   31.1700 C.3       5 GLY6        0.0000 
     65 CA         28.9100   -1.9300   30.7400 C.3       5 GLY6        0.0000 
     66 CA         33.3400    3.7300   28.1300 C.3       5 GLY6        0.0000 
     67 CA         33.9200    1.6900   28.1300 C.3       5 GLY6        0.0000 
     68 CA         35.1400    0.9400   27.7000 C.3       5 GLY6        0.0000 
     69 CA         28.9200    0.2800   32.1100 C.3       5 GLY6        0.0000 
     70 CA         33.8700    0.5800   29.9300 C.3       5 GLY6        0.0000 
     71 DU         27.2000    0.8900   26.2000 H         6 CUB7        0.0000 
     72 DU         26.5600   -0.3900   26.6300 H         6 CUB7        0.0000 
     73 DU         28.4300    2.3400   27.1300 H         6 CUB7        0.0000 
     74 DU         27.7900    1.0600   27.5700 H         6 CUB7        0.0000 
     75 DU         27.1500   -0.2300   28.0000 H         6 CUB7        0.0000 
     76 DU         29.6500    1.5900   26.7000 H         6 CUB7        0.0000 
     77 DU         27.7300   -2.2700   28.0000 H         6 CUB7        0.0000 
     78 DU         29.0200    2.5100   28.5000 H         6 CUB7        0.0000 
     79 DU         32.1100    2.2800   27.2000 H         6 CUB7        0.0000 
     80 DU         27.7500    2.1500   30.7400 H         6 CUB7        0.0000 
     81 DU         32.7000    2.4500   28.5600 H         6 CUB7        0.0000 
@<TRIPOS>BOND
@<TRIPOS>SUBSTRUCTURE
     1 SER1        1 GROUP   
     2 ALA2       25 GROUP   
     3 LYS4       33 GROUP   
     4 PHE5       37 GROUP   
     5 GLY6       56 GROUP   
     6 CUB7       71 GROUP   
@<TRIPOS>SET

