#    Name: 5whl_1_HPP
#    Modification time : Fri May 22 19:12:49 2020

@<TRIPOS>MOLECULE
5whl_1_HPP
   12    12     1     0     0
SMALL
NO_CHARGES


@<TRIPOS>ATOM
      1 C1        -38.3440  -13.7430   57.4250 C.ar      1 HPP701      0.0000 
      2 C2        -37.7400  -12.5240   57.1250 C.ar      1 HPP701      0.0000 
      3 C3        -38.4150  -11.3300   57.3550 C.ar      1 HPP701      0.0000 
      4 C4        -39.7080  -11.3620   57.8670 C.ar      1 HPP701      0.0000 
      5 O4        -40.4080  -10.1730   58.0940 O.3       1 HPP701      0.0000 
      6 C5        -40.3160  -12.5800   58.1560 C.ar      1 HPP701      0.0000 
      7 C6        -39.6340  -13.7690   57.9370 C.ar      1 HPP701      0.0000 
      8 C7        -37.5970  -15.0500   57.1920 C.3       1 HPP701      0.0000 
      9 C8        -37.0500  -15.6540   58.4940 C.3       1 HPP701      0.0000 
     10 C9        -36.1550  -14.7030   59.3000 C.2       1 HPP701      0.0000 
     11 O1        -36.1550  -15.0040   60.5350 O.co2     1 HPP701      0.0000 
     12 O2        -34.9450  -14.8470   58.9760 O.co2     1 HPP701      0.0000 
@<TRIPOS>BOND
     1    1    2 ar   
     2    1    7 ar   
     3    1    8 1    
     4    2    3 ar   
     5    3    4 ar   
     6    4    5 1    
     7    4    6 ar   
     8    6    7 ar   
     9    8    9 1    
    10    9   10 1    
    11   10   11 ar   
    12   10   12 ar   
@<TRIPOS>SUBSTRUCTURE
     1 HPP701      1 GROUP   
@<TRIPOS>SET

