#    Name: 6o2r_9_GDP
#    Modification time : Fri May 22 19:26:22 2020

@<TRIPOS>MOLECULE
6o2r_9_GDP
   28    30     1     0     1
SMALL
NO_CHARGES


@<TRIPOS>ATOM
      1 PB        126.7320   58.8240   35.9530 P.3       1 GDP501      0.0000 
      2 O1B       126.7250   59.8470   34.8490 O.co2     1 GDP501      0.0000 
      3 O2B       125.7790   57.7140   35.5920 O.co2     1 GDP501      0.0000 
      4 O3B       126.3280   59.5020   37.2310 O.co2     1 GDP501      0.0000 
      5 O3A       128.2220   58.2560   36.1300 O.3       1 GDP501      0.0000 
      6 PA        128.5940   57.1690   37.2530 P.3       1 GDP501      0.0000 
      7 O1A       128.6530   55.7890   36.6510 O.co2     1 GDP501      0.0000 
      8 O2A       127.6260   57.2090   38.4040 O.co2     1 GDP501      0.0000 
      9 O5'       130.0650   57.6020   37.7210 O.3       1 GDP501      0.0000 
     10 C5'       131.1820   56.8270   37.3000 C.3       1 GDP501      0.0000 
     11 C4'       132.2130   56.7610   38.4120 C.3       1 GDP501      0.0000 
     12 O4'       131.7670   55.8040   39.3660 O.3       1 GDP501      0.0000 
     13 C3'       133.5550   56.2810   37.8990 C.3       1 GDP501      0.0000 
     14 O3'       134.5670   57.1970   38.3180 O.3       1 GDP501      0.0000 
     15 C2'       133.7920   54.9350   38.5430 C.3       1 GDP501      0.0000 
     16 O2'       135.1210   54.8660   39.0560 O.3       1 GDP501      0.0000 
     17 C1'       132.8050   54.8840   39.6830 C.3       1 GDP501      0.0000 
     18 N9        132.2190   53.5400   39.8140 N.pl3     1 GDP501      0.0000 
     19 C8        131.3270   52.9800   38.9900 C.2       1 GDP501      0.0000 
     20 N7        130.9910   51.7400   39.4190 N.2       1 GDP501      0.0000 
     21 C5        131.6760   51.5030   40.5470 C.2       1 GDP501      0.0000 
     22 C6        131.7990   50.4000   41.5170 C.2       1 GDP501      0.0000 
     23 O6        131.1530   49.3450   41.3820 O.2       1 GDP501      0.0000 
     24 N1        132.6270   50.5650   42.5460 N.am      1 GDP501      0.0000 
     25 C2        133.3370   51.6830   42.7290 C.2       1 GDP501      0.0000 
     26 N2        134.1510   51.7600   43.8030 N.pl3     1 GDP501      0.0000 
     27 N3        133.2750   52.7320   41.8830 N.2       1 GDP501      0.0000 
     28 C4        132.4820   52.6940   40.7970 C.2       1 GDP501      0.0000 
@<TRIPOS>BOND
     1    1    2 ar   
     2    1    3 ar   
     3    1    4 ar   
     4    1    5 1    
     5    5    6 1    
     6    6    7 ar   
     7    6    8 ar   
     8    6    9 1    
     9    9   10 1    
    10   10   11 1    
    11   11   12 1    
    12   11   13 1    
    13   12   17 1    
    14   13   14 1    
    15   13   15 1    
    16   15   16 1    
    17   15   17 1    
    18   17   18 1    
    19   18   19 1    
    20   18   28 1    
    21   19   20 2    
    22   20   21 1    
    23   21   22 1    
    24   21   28 2    
    25   22   23 2    
    26   22   24 am   
    27   24   25 1    
    28   25   26 1    
    29   25   27 2    
    30   27   28 1    
@<TRIPOS>SUBSTRUCTURE
     1 GDP501      1 GROUP   
@<TRIPOS>SET
ATOM$ORANGE STATIC     ATOMS   COLORGROUP SYSTEM 
20 10 10 11 11 13 13 15 15 17 17 19 19 21 21 22 22 25 \
25 28 28 

