#    Name: 6o2r_7_GDP
#    Modification time : Fri May 22 19:26:07 2020

@<TRIPOS>MOLECULE
6o2r_7_GDP
   28    30     1     0     1
SMALL
NO_CHARGES


@<TRIPOS>ATOM
      1 PB         26.9160   34.9340   17.3390 P.3       1 GDP501      0.0000 
      2 O1B        26.0710   35.5130   16.2370 O.co2     1 GDP501      0.0000 
      3 O2B        27.2790   33.5170   16.9770 O.co2     1 GDP501      0.0000 
      4 O3B        26.1310   34.9900   18.6190 O.co2     1 GDP501      0.0000 
      5 O3A        28.2350   35.8300   17.5140 O.3       1 GDP501      0.0000 
      6 PA         29.3420   35.5130   18.6340 P.3       1 GDP501      0.0000 
      7 O1A        30.5050   34.7710   18.0310 O.co2     1 GDP501      0.0000 
      8 O2A        28.7560   34.7410   19.7870 O.co2     1 GDP501      0.0000 
      9 O5'        29.8290   36.9670   19.1020 O.3       1 GDP501      0.0000 
     10 C5'        31.1030   37.4380   18.6780 C.3       1 GDP501      0.0000 
     11 C4'        31.7500   38.2460   19.7900 C.3       1 GDP501      0.0000 
     12 O4'        32.2810   37.3330   20.7420 O.3       1 GDP501      0.0000 
     13 C3'        32.9100   39.0720   19.2730 C.3       1 GDP501      0.0000 
     14 O3'        32.7400   40.4250   19.6940 O.3       1 GDP501      0.0000 
     15 C2'        34.1510   38.4950   19.9150 C.3       1 GDP501      0.0000 
     16 O2'        34.9700   39.5450   20.4260 O.3       1 GDP501      0.0000 
     17 C1'        33.6300   37.6570   21.0570 C.3       1 GDP501      0.0000 
     18 N9         34.3970   36.4070   21.1860 N.pl3     1 GDP501      0.0000 
     19 C8         34.3430   35.3540   20.3620 C.2       1 GDP501      0.0000 
     20 N7         35.1690   34.3690   20.7890 N.2       1 GDP501      0.0000 
     21 C5         35.7570   34.7950   21.9160 C.2       1 GDP501      0.0000 
     22 C6         36.7340   34.2640   22.8840 C.2       1 GDP501      0.0000 
     23 O6         37.2290   33.1300   22.7480 O.2       1 GDP501      0.0000 
     24 N1         37.0750   35.0380   23.9120 N.am      1 GDP501      0.0000 
     25 C2         36.5650   36.2590   24.0970 C.2       1 GDP501      0.0000 
     26 N2         36.9700   36.9720   25.1700 N.pl3     1 GDP501      0.0000 
     27 N3         35.6680   36.8100   23.2520 N.2       1 GDP501      0.0000 
     28 C4         35.2430   36.1380   22.1670 C.2       1 GDP501      0.0000 
@<TRIPOS>BOND
     1    1    2 ar   
     2    1    3 ar   
     3    1    4 ar   
     4    1    5 1    
     5    5    6 1    
     6    6    7 ar   
     7    6    8 ar   
     8    6    9 1    
     9    9   10 1    
    10   10   11 1    
    11   11   12 1    
    12   11   13 1    
    13   12   17 1    
    14   13   14 1    
    15   13   15 1    
    16   15   16 1    
    17   15   17 1    
    18   17   18 1    
    19   18   19 1    
    20   18   28 1    
    21   19   20 2    
    22   20   21 1    
    23   21   22 1    
    24   21   28 2    
    25   22   23 2    
    26   22   24 am   
    27   24   25 1    
    28   25   26 1    
    29   25   27 2    
    30   27   28 1    
@<TRIPOS>SUBSTRUCTURE
     1 GDP501      1 GROUP   
@<TRIPOS>SET
ATOM$ORANGE STATIC     ATOMS   COLORGROUP SYSTEM 
20 10 10 11 11 13 13 15 15 17 17 19 19 21 21 22 22 25 \
25 28 28 

