#    Name: 6o2r_10_GTP
#    Modification time : Fri May 22 19:26:38 2020

@<TRIPOS>MOLECULE
6o2r_10_GTP
   32    34     1     0     1
SMALL
NO_CHARGES


@<TRIPOS>ATOM
      1 PG         25.8590   35.1020  137.0570 P.3       1 GTP501      0.0000 
      2 O1G        26.2220   36.3910  136.3700 O.co2     1 GTP501      0.0000 
      3 O2G        24.4790   34.6770  136.6320 O.co2     1 GTP501      0.0000 
      4 O3G        26.8640   34.0350  136.7190 O.co2     1 GTP501      0.0000 
      5 O3B        25.8700   35.3660  138.6340 O.3       1 GTP501      0.0000 
      6 PB         27.0950   34.7950  139.4920 P.3       1 GTP501      0.0000 
      7 O1B        27.2330   33.3140  139.2580 O.co2     1 GTP501      0.0000 
      8 O2B        26.8850   35.1320  140.9450 O.co2     1 GTP501      0.0000 
      9 O3A        28.3970   35.5300  138.9170 O.3       1 GTP501      0.0000 
     10 PA         29.7080   35.6680  139.8350 P.3       1 GTP501      0.0000 
     11 O1A        30.9270   35.4790  138.9740 O.co2     1 GTP501      0.0000 
     12 O2A        29.7030   34.6880  140.9750 O.co2     1 GTP501      0.0000 
     13 O5'        29.6710   37.1700  140.3940 O.3       1 GTP501      0.0000 
     14 C5'        30.5310   38.1480  139.8630 C.3       1 GTP501      0.0000 
     15 C4'        31.5590   38.5380  140.9120 C.3       1 GTP501      0.0000 
     16 O4'        32.0270   37.4010  141.5990 O.3       1 GTP501      0.0000 
     17 C3'        32.7780   39.1670  140.2730 C.3       1 GTP501      0.0000 
     18 O3'        32.7970   40.5400  140.5670 O.3       1 GTP501      0.0000 
     19 C2'        33.9660   38.4940  140.9180 C.3       1 GTP501      0.0000 
     20 O2'        34.8000   39.4620  141.4940 O.3       1 GTP501      0.0000 
     21 C1'        33.3600   37.6250  141.9960 C.3       1 GTP501      0.0000 
     22 N9         34.0770   36.3540  142.1270 N.pl3     1 GTP501      0.0000 
     23 C8         34.0510   35.2920  141.2760 C.2       1 GTP501      0.0000 
     24 N7         34.8410   34.3220  141.7870 N.2       1 GTP501      0.0000 
     25 C5         35.3560   34.7510  142.9530 C.2       1 GTP501      0.0000 
     26 C6         36.2100   34.1720  143.8740 C.2       1 GTP501      0.0000 
     27 O6         36.6440   33.0430  143.6910 O.2       1 GTP501      0.0000 
     28 N1         36.5750   34.8650  145.0000 N.am      1 GTP501      0.0000 
     29 C2         36.0850   36.1340  145.1970 C.2       1 GTP501      0.0000 
     30 N2         36.4260   36.8180  146.2790 N.pl3     1 GTP501      0.0000 
     31 N3         35.2380   36.7040  144.2790 N.2       1 GTP501      0.0000 
     32 C4         34.8800   36.0230  143.1750 C.2       1 GTP501      0.0000 
@<TRIPOS>BOND
     1    1    2 ar   
     2    1    3 ar   
     3    1    4 ar   
     4    1    5 1    
     5    5    6 1    
     6    6    7 ar   
     7    6    8 ar   
     8    6    9 1    
     9    9   10 1    
    10   10   11 ar   
    11   10   12 ar   
    12   10   13 1    
    13   13   14 1    
    14   14   15 1    
    15   15   16 1    
    16   15   17 1    
    17   16   21 1    
    18   17   18 1    
    19   17   19 1    
    20   19   20 1    
    21   19   21 1    
    22   21   22 1    
    23   22   23 1    
    24   22   32 1    
    25   23   24 2    
    26   24   25 1    
    27   25   26 1    
    28   25   32 2    
    29   26   27 2    
    30   26   28 am   
    31   28   29 1    
    32   29   30 1    
    33   29   31 2    
    34   31   32 1    
@<TRIPOS>SUBSTRUCTURE
     1 GTP501      1 GROUP   
@<TRIPOS>SET
ATOM$ORANGE STATIC     ATOMS   COLORGROUP SYSTEM 
20 14 14 15 15 17 17 19 19 21 21 23 23 25 25 26 26 29 \
29 32 32 

