#    Name: 6o2r_6_GDP
#    Modification time : Fri May 22 19:25:59 2020

@<TRIPOS>MOLECULE
6o2r_6_GDP
   28    30     1     0     1
SMALL
NO_CHARGES


@<TRIPOS>ATOM
      1 PB         26.9000   34.8220   97.6400 P.3       1 GDP501      0.0000 
      2 O1B        26.0570   35.4010   96.5360 O.co2     1 GDP501      0.0000 
      3 O2B        27.2670   33.4060   97.2780 O.co2     1 GDP501      0.0000 
      4 O3B        26.1120   34.8760   98.9180 O.co2     1 GDP501      0.0000 
      5 O3A        28.2170   35.7210   97.8190 O.3       1 GDP501      0.0000 
      6 PA         29.3210   35.4050   98.9420 P.3       1 GDP501      0.0000 
      7 O1A        30.4870   34.6660   98.3410 O.co2     1 GDP501      0.0000 
      8 O2A        28.7340   34.6310  100.0920 O.co2     1 GDP501      0.0000 
      9 O5'        29.8050   36.8590   99.4120 O.3       1 GDP501      0.0000 
     10 C5'        31.0790   37.3330   98.9920 C.3       1 GDP501      0.0000 
     11 C4'        31.7210   38.1420  100.1060 C.3       1 GDP501      0.0000 
     12 O4'        32.2510   37.2280  101.0600 O.3       1 GDP501      0.0000 
     13 C3'        32.8810   38.9700   99.5940 C.3       1 GDP501      0.0000 
     14 O3'        32.7070   40.3230  100.0150 O.3       1 GDP501      0.0000 
     15 C2'        34.1210   38.3960  100.2390 C.3       1 GDP501      0.0000 
     16 O2'        34.9360   39.4460  100.7530 O.3       1 GDP501      0.0000 
     17 C1'        33.5990   37.5550  101.3780 C.3       1 GDP501      0.0000 
     18 N9         34.3680   36.3060  101.5080 N.pl3     1 GDP501      0.0000 
     19 C8         34.3190   35.2550  100.6830 C.2       1 GDP501      0.0000 
     20 N7         35.1450   34.2710  101.1120 N.2       1 GDP501      0.0000 
     21 C5         35.7290   34.6970  102.2400 C.2       1 GDP501      0.0000 
     22 C6         36.7040   34.1670  103.2110 C.2       1 GDP501      0.0000 
     23 O6         37.2020   33.0340  103.0750 O.2       1 GDP501      0.0000 
     24 N1         37.0410   34.9400  104.2410 N.am      1 GDP501      0.0000 
     25 C2         36.5280   36.1600  104.4250 C.2       1 GDP501      0.0000 
     26 N2         36.9290   36.8730  105.5000 N.pl3     1 GDP501      0.0000 
     27 N3         35.6330   36.7100  103.5790 N.2       1 GDP501      0.0000 
     28 C4         35.2120   36.0380  102.4910 C.2       1 GDP501      0.0000 
@<TRIPOS>BOND
     1    1    2 ar   
     2    1    3 ar   
     3    1    4 ar   
     4    1    5 1    
     5    5    6 1    
     6    6    7 ar   
     7    6    8 ar   
     8    6    9 1    
     9    9   10 1    
    10   10   11 1    
    11   11   12 1    
    12   11   13 1    
    13   12   17 1    
    14   13   14 1    
    15   13   15 1    
    16   15   16 1    
    17   15   17 1    
    18   17   18 1    
    19   18   19 1    
    20   18   28 1    
    21   19   20 2    
    22   20   21 1    
    23   21   22 1    
    24   21   28 2    
    25   22   23 2    
    26   22   24 am   
    27   24   25 1    
    28   25   26 1    
    29   25   27 2    
    30   27   28 1    
@<TRIPOS>SUBSTRUCTURE
     1 GDP501      1 GROUP   
@<TRIPOS>SET
ATOM$ORANGE STATIC     ATOMS   COLORGROUP SYSTEM 
20 10 10 11 11 13 13 15 15 17 17 19 19 21 21 22 22 25 \
25 28 28 

