#    Name: 6o2r_3_GTP_CAVITY_N1_6
#    Modification time : Fri May 22 19:25:12 2020

@<TRIPOS>MOLECULE
6o2r_3_GTP_CAVITY_N1_6
   76     0     7     0     0
SMALL
NO_CHARGES


@<TRIPOS>ATOM
      1 OG        132.8600   56.9300   76.5900 O.3       1 SER1        0.0000 
      2 OG        133.3400   53.8300   78.5000 O.3       1 SER1        0.0000 
      3 OG        133.8000   57.0700   77.7400 O.3       1 SER1        0.0000 
      4 OG        134.1300   55.6100   77.6500 O.3       1 SER1        0.0000 
      5 OG        133.9600   55.4200   79.7500 O.3       1 SER1        0.0000 
      6 OG        134.2900   53.9600   79.6500 O.3       1 SER1        0.0000 
      7 OG        134.7500   57.2000   78.9000 O.3       1 SER1        0.0000 
      8 OG        135.0800   55.7400   78.8000 O.3       1 SER1        0.0000 
      9 N         128.7300   56.0300   76.1800 N.am      2 ALA2        0.0000 
     10 O         128.2300   57.3100   78.3900 O.2       2 ALA2        0.0000 
     11 N         131.5800   58.2600   75.5300 N.am      2 ALA2        0.0000 
     12 O         129.5100   55.9900   79.4400 O.2       2 ALA2        0.0000 
     13 O         129.8400   54.5300   79.3500 O.2       2 ALA2        0.0000 
     14 O         130.1600   53.0700   79.2500 O.2       2 ALA2        0.0000 
     15 O         130.3000   57.7600   78.5900 O.2       2 ALA2        0.0000 
     16 O         131.4100   58.0800   77.6400 O.2       2 ALA2        0.0000 
     17 O         132.5300   58.3900   76.6900 O.2       2 ALA2        0.0000 
     18 N         130.3200   51.4200   81.2500 N.am      2 ALA2        0.0000 
     19 O         132.3600   58.2100   78.8000 O.2       2 ALA2        0.0000 
     20 N         131.2700   51.5600   82.4100 N.am      2 ALA2        0.0000 
     21 N         132.2200   51.6900   83.5600 N.am      2 ALA2        0.0000 
     22 O         133.0100   53.4700   82.7100 O.2       2 ALA2        0.0000 
     23 O         133.3300   52.0100   82.6100 O.2       2 ALA2        0.0000 
     24 O         134.1200   53.7800   81.7600 O.2       2 ALA2        0.0000 
     25 O         134.4500   52.3200   81.6600 O.2       2 ALA2        0.0000 
     26 O         134.2600   58.4800   81.1100 O.2       2 ALA2        0.0000 
     27 N         134.5800   57.0200   81.0100 N.am      2 ALA2        0.0000 
     28 N         135.7000   57.3300   80.0500 N.am      2 ALA2        0.0000 
     29 N         136.0300   55.8700   79.9600 N.am      2 ALA2        0.0000 
     30 N         136.3500   54.4100   79.8600 N.am      2 ALA2        0.0000 
     31 N         135.2000   58.6100   82.2600 N.am      2 ALA2        0.0000 
     32 N         136.6500   57.4700   81.2100 N.am      2 ALA2        0.0000 
     33 N         137.7600   57.7800   80.2600 N.am      2 ALA2        0.0000 
     34 N         138.0900   56.3200   80.1600 N.am      2 ALA2        0.0000 
     35 N         138.4200   54.8600   80.0600 N.am      2 ALA2        0.0000 
     36 N         139.2100   56.6400   79.2100 N.am      2 ALA2        0.0000 
     37 OD1       127.2900   57.1800   77.2300 O.co2     3 ASP3        0.0000 
     38 OD1       128.4000   57.4900   76.2800 O.co2     3 ASP3        0.0000 
     39 OD1       129.5200   57.8100   75.3300 O.co2     3 ASP3        0.0000 
     40 NZ        133.4800   58.5300   77.8400 N.4       4 LYS4        0.0000 
     41 NZ        134.4200   58.6600   79.0000 N.4       4 LYS4        0.0000 
     42 NZ        135.3700   58.7900   80.1500 N.4       4 LYS4        0.0000 
     43 NZ        136.8100   57.6500   79.1000 N.4       4 LYS4        0.0000 
     44 NZ        137.4300   59.2400   80.3600 N.4       4 LYS4        0.0000 
     45 CZ        131.4400   51.7400   80.3000 C.ar      5 PHE5        0.0000 
     46 CZ        132.2300   53.5100   79.4500 C.ar      5 PHE5        0.0000 
     47 CZ        132.3900   51.8700   81.4600 C.ar      5 PHE5        0.0000 
     48 CZ        133.1800   53.6500   80.6100 C.ar      5 PHE5        0.0000 
     49 CZ        133.5000   52.1900   80.5100 C.ar      5 PHE5        0.0000 
     50 CA        128.5600   55.8500   78.2900 C.3       6 GLY6        0.0000 
     51 CA        129.3500   57.6300   77.4400 C.3       6 GLY6        0.0000 
     52 CA        129.6800   56.1700   77.3400 C.3       6 GLY6        0.0000 
     53 CA        130.4700   57.9400   76.4800 C.3       6 GLY6        0.0000 
     54 CA        130.7900   56.4800   76.3900 C.3       6 GLY6        0.0000 
     55 CA        131.9100   56.8000   75.4300 C.3       6 GLY6        0.0000 
     56 CA        130.6300   56.3000   78.4900 C.3       6 GLY6        0.0000 
     57 CA        130.9500   54.8400   78.3900 C.3       6 GLY6        0.0000 
     58 CA        131.2800   53.3800   78.2900 C.3       6 GLY6        0.0000 
     59 CA        131.7400   56.6200   77.5400 C.3       6 GLY6        0.0000 
     60 CA        131.1100   53.2000   80.4000 C.3       6 GLY6        0.0000 
     61 CA        131.9000   54.9800   79.5500 C.3       6 GLY6        0.0000 
     62 CA        133.0200   55.2900   78.6000 C.3       6 GLY6        0.0000 
     63 CA        130.9400   53.0200   82.5100 C.3       6 GLY6        0.0000 
     64 CA        132.0600   53.3300   81.5600 C.3       6 GLY6        0.0000 
     65 CA        132.5200   56.5700   80.8000 C.3       6 GLY6        0.0000 
     66 CA        132.8500   55.1100   80.7000 C.3       6 GLY6        0.0000 
     67 CA        133.3100   58.3500   79.9500 C.3       6 GLY6        0.0000 
     68 CA        131.8900   53.1500   83.6600 C.3       6 GLY6        0.0000 
     69 CA        132.6800   54.9300   82.8100 C.3       6 GLY6        0.0000 
     70 CA        133.4700   56.7000   81.9600 C.3       6 GLY6        0.0000 
     71 CA        133.7900   55.2400   81.8600 C.3       6 GLY6        0.0000 
     72 CA        137.1400   56.1900   79.0000 C.3       6 GLY6        0.0000 
     73 CA        137.4700   54.7300   78.9100 C.3       6 GLY6        0.0000 
     74 CA        136.3200   58.9300   81.3100 C.3       6 GLY6        0.0000 
     75 DU        132.6900   56.7500   78.7000 H         7 CUB7        0.0000 
     76 DU        133.6400   56.8800   79.8500 H         7 CUB7        0.0000 
@<TRIPOS>BOND
@<TRIPOS>SUBSTRUCTURE
     1 SER1        1 GROUP   
     2 ALA2        9 GROUP   
     3 ASP3       37 GROUP   
     4 LYS4       40 GROUP   
     5 PHE5       45 GROUP   
     6 GLY6       50 GROUP   
     7 CUB7       75 GROUP   
@<TRIPOS>SET

