#    Name: 6o2r_5_GTP
#    Modification time : Fri May 22 19:25:43 2020

@<TRIPOS>MOLECULE
6o2r_5_GTP
   32    34     1     0     1
SMALL
NO_CHARGES


@<TRIPOS>ATOM
      1 PG         26.0930   35.3770   56.9300 P.3       1 GTP501      0.0000 
      2 O1G        26.4580   36.6660   56.2440 O.co2     1 GTP501      0.0000 
      3 O2G        24.7150   34.9520   56.5020 O.co2     1 GTP501      0.0000 
      4 O3G        27.0990   34.3100   56.5940 O.co2     1 GTP501      0.0000 
      5 O3B        26.1010   35.6400   58.5070 O.3       1 GTP501      0.0000 
      6 PB         27.3250   35.0700   59.3680 P.3       1 GTP501      0.0000 
      7 O1B        27.4620   33.5880   59.1340 O.co2     1 GTP501      0.0000 
      8 O2B        27.1120   35.4070   60.8200 O.co2     1 GTP501      0.0000 
      9 O3A        28.6280   35.8050   58.7950 O.3       1 GTP501      0.0000 
     10 PA         29.9370   35.9430   59.7160 P.3       1 GTP501      0.0000 
     11 O1A        31.1580   35.7530   58.8580 O.co2     1 GTP501      0.0000 
     12 O2A        29.9290   34.9620   60.8560 O.co2     1 GTP501      0.0000 
     13 O5'        29.8990   37.4450   60.2750 O.3       1 GTP501      0.0000 
     14 C5'        30.7600   38.4220   59.7460 C.3       1 GTP501      0.0000 
     15 C4'        31.7860   38.8120   60.7970 C.3       1 GTP501      0.0000 
     16 O4'        32.2520   37.6750   61.4850 O.3       1 GTP501      0.0000 
     17 C3'        33.0060   39.4410   60.1610 C.3       1 GTP501      0.0000 
     18 O3'        33.0250   40.8140   60.4550 O.3       1 GTP501      0.0000 
     19 C2'        34.1930   38.7670   60.8080 C.3       1 GTP501      0.0000 
     20 O2'        35.0260   39.7350   61.3860 O.3       1 GTP501      0.0000 
     21 C1'        33.5840   37.8990   61.8860 C.3       1 GTP501      0.0000 
     22 N9         34.3010   36.6280   62.0170 N.pl3     1 GTP501      0.0000 
     23 C8         34.2770   35.5650   61.1660 C.2       1 GTP501      0.0000 
     24 N7         35.0650   34.5960   61.6790 N.2       1 GTP501      0.0000 
     25 C5         35.5780   35.0250   62.8460 C.2       1 GTP501      0.0000 
     26 C6         36.4300   34.4460   63.7690 C.2       1 GTP501      0.0000 
     27 O6         36.8640   33.3170   63.5870 O.2       1 GTP501      0.0000 
     28 N1         36.7930   35.1380   64.8950 N.am      1 GTP501      0.0000 
     29 C2         36.3020   36.4070   65.0920 C.2       1 GTP501      0.0000 
     30 N2         36.6420   37.0920   66.1750 N.pl3     1 GTP501      0.0000 
     31 N3         35.4570   36.9780   64.1720 N.2       1 GTP501      0.0000 
     32 C4         35.1010   36.2970   63.0670 C.2       1 GTP501      0.0000 
@<TRIPOS>BOND
     1    1    2 ar   
     2    1    3 ar   
     3    1    4 ar   
     4    1    5 1    
     5    5    6 1    
     6    6    7 ar   
     7    6    8 ar   
     8    6    9 1    
     9    9   10 1    
    10   10   11 ar   
    11   10   12 ar   
    12   10   13 1    
    13   13   14 1    
    14   14   15 1    
    15   15   16 1    
    16   15   17 1    
    17   16   21 1    
    18   17   18 1    
    19   17   19 1    
    20   19   20 1    
    21   19   21 1    
    22   21   22 1    
    23   22   23 1    
    24   22   32 1    
    25   23   24 2    
    26   24   25 1    
    27   25   26 1    
    28   25   32 2    
    29   26   27 2    
    30   26   28 am   
    31   28   29 1    
    32   29   30 1    
    33   29   31 2    
    34   31   32 1    
@<TRIPOS>SUBSTRUCTURE
     1 GTP501      1 GROUP   
@<TRIPOS>SET
ATOM$ORANGE STATIC     ATOMS   COLORGROUP SYSTEM 
20 14 14 15 15 17 17 19 19 21 21 23 23 25 25 26 26 29 \
29 32 32 

