#    Name: 6o2r_8_GDP
#    Modification time : Fri May 22 19:26:14 2020

@<TRIPOS>MOLECULE
6o2r_8_GDP
   28    30     1     0     1
SMALL
NO_CHARGES


@<TRIPOS>ATOM
      1 PB         74.0950   59.2920   26.7320 P.3       1 GDP501      0.0000 
      2 O1B        73.6160   60.1960   25.6270 O.co2     1 GDP501      0.0000 
      3 O2B        73.7620   57.8670   26.3700 O.co2     1 GDP501      0.0000 
      4 O3B        73.4220   59.7070   28.0090 O.co2     1 GDP501      0.0000 
      5 O3A        75.6780   59.4770   26.9100 O.3       1 GDP501      0.0000 
      6 PA         76.5100   58.6850   28.0330 P.3       1 GDP501      0.0000 
      7 O1A        77.2000   57.4890   27.4320 O.co2     1 GDP501      0.0000 
      8 O2A        75.6320   58.2730   29.1840 O.co2     1 GDP501      0.0000 
      9 O5'        77.6140   59.7490   28.5020 O.3       1 GDP501      0.0000 
     10 C5'        78.9620   59.5770   28.0820 C.3       1 GDP501      0.0000 
     11 C4'        79.9070   59.9960   29.1950 C.3       1 GDP501      0.0000 
     12 O4'        79.9530   58.9410   30.1490 O.3       1 GDP501      0.0000 
     13 C3'        81.3190   60.1910   28.6820 C.3       1 GDP501      0.0000 
     14 O3'        81.7920   61.4700   29.1020 O.3       1 GDP501      0.0000 
     15 C2'        82.1510   59.1060   29.3270 C.3       1 GDP501      0.0000 
     16 O2'        83.3610   59.6590   29.8410 O.3       1 GDP501      0.0000 
     17 C1'        81.2990   58.6050   30.4670 C.3       1 GDP501      0.0000 
     18 N9         81.4000   57.1420   30.5980 N.pl3     1 GDP501      0.0000 
     19 C8         80.8680   56.2330   29.7730 C.2       1 GDP501      0.0000 
     20 N7         81.1430   54.9780   30.2030 N.2       1 GDP501      0.0000 
     21 C5         81.8590   55.0850   31.3310 C.2       1 GDP501      0.0000 
     22 C6         82.4770   54.1630   32.3020 C.2       1 GDP501      0.0000 
     23 O6         82.3920   52.9290   32.1660 O.2       1 GDP501      0.0000 
     24 N1         83.1350   54.6920   33.3310 N.am      1 GDP501      0.0000 
     25 C2         83.2470   56.0110   33.5140 C.2       1 GDP501      0.0000 
     26 N2         83.9330   56.4570   34.5890 N.pl3     1 GDP501      0.0000 
     27 N3         82.7090   56.9140   32.6680 N.2       1 GDP501      0.0000 
     28 C4         82.0230   56.5130   31.5810 C.2       1 GDP501      0.0000 
@<TRIPOS>BOND
     1    1    2 ar   
     2    1    3 ar   
     3    1    4 ar   
     4    1    5 1    
     5    5    6 1    
     6    6    7 ar   
     7    6    8 ar   
     8    6    9 1    
     9    9   10 1    
    10   10   11 1    
    11   11   12 1    
    12   11   13 1    
    13   12   17 1    
    14   13   14 1    
    15   13   15 1    
    16   15   16 1    
    17   15   17 1    
    18   17   18 1    
    19   18   19 1    
    20   18   28 1    
    21   19   20 2    
    22   20   21 1    
    23   21   22 1    
    24   21   28 2    
    25   22   23 2    
    26   22   24 am   
    27   24   25 1    
    28   25   26 1    
    29   25   27 2    
    30   27   28 1    
@<TRIPOS>SUBSTRUCTURE
     1 GDP501      1 GROUP   
@<TRIPOS>SET
ATOM$ORANGE STATIC     ATOMS   COLORGROUP SYSTEM 
20 10 10 11 11 13 13 15 15 17 17 19 19 21 21 22 22 25 \
25 28 28 

