#    Name: 6o2r_11_GTP
#    Modification time : Fri May 22 19:26:54 2020

@<TRIPOS>MOLECULE
6o2r_11_GTP
   32    34     1     0     1
SMALL
NO_CHARGES


@<TRIPOS>ATOM
      1 PG         72.9840   59.8200  146.4060 P.3       1 GTP501      0.0000 
      2 O1G        73.9020   60.7970  145.7200 O.co2     1 GTP501      0.0000 
      3 O2G        71.5650   60.0800  145.9770 O.co2     1 GTP501      0.0000 
      4 O3G        73.3840   58.4100  146.0690 O.co2     1 GTP501      0.0000 
      5 O3B        73.1110   60.0500  147.9830 O.3       1 GTP501      0.0000 
      6 PB         73.9340   58.9790  148.8430 P.3       1 GTP501      0.0000 
      7 O1B        73.3730   57.6010  148.6090 O.co2     1 GTP501      0.0000 
      8 O2B        73.8990   59.3750  150.2960 O.co2     1 GTP501      0.0000 
      9 O3A        75.4290   59.0300  148.2720 O.3       1 GTP501      0.0000 
     10 PA         76.6540   58.5480  149.1920 P.3       1 GTP501      0.0000 
     11 O1A        77.6500   57.8170  148.3340 O.co2     1 GTP501      0.0000 
     12 O2A        76.1940   57.6810  150.3320 O.co2     1 GTP501      0.0000 
     13 O5'        77.3120   59.8980  149.7530 O.3       1 GTP501      0.0000 
     14 C5'        78.5270   60.3690  149.2240 C.3       1 GTP501      0.0000 
     15 C4'        79.6180   60.2410  150.2760 C.3       1 GTP501      0.0000 
     16 O4'        79.5060   59.0170  150.9640 O.3       1 GTP501      0.0000 
     17 C3'        80.9900   60.2360  149.6410 C.3       1 GTP501      0.0000 
     18 O3'        81.6400   61.4460  149.9360 O.3       1 GTP501      0.0000 
     19 C2'        81.7320   59.0910  150.2870 C.3       1 GTP501      0.0000 
     20 O2'        82.9180   59.5650  150.8660 O.3       1 GTP501      0.0000 
     21 C1'        80.7910   58.6010  151.3640 C.3       1 GTP501      0.0000 
     22 N9         80.8410   57.1420  151.4950 N.pl3     1 GTP501      0.0000 
     23 C8         80.3300   56.2110  150.6430 C.2       1 GTP501      0.0000 
     24 N7         80.5820   54.9870  151.1550 N.2       1 GTP501      0.0000 
     25 C5         81.2350   55.1300  152.3220 C.2       1 GTP501      0.0000 
     26 C6         81.7230   54.2230  153.2450 C.2       1 GTP501      0.0000 
     27 O6         81.5880   53.0210  153.0630 O.2       1 GTP501      0.0000 
     28 N1         82.3640   54.6690  154.3720 N.am      1 GTP501      0.0000 
     29 C2         82.5130   56.0210  154.5690 C.2       1 GTP501      0.0000 
     30 N2         83.1300   56.4720  155.6530 N.pl3     1 GTP501      0.0000 
     31 N3         82.0270   56.9180  153.6500 N.2       1 GTP501      0.0000 
     32 C4         81.3980   56.4780  152.5450 C.2       1 GTP501      0.0000 
@<TRIPOS>BOND
     1    1    2 ar   
     2    1    3 ar   
     3    1    4 ar   
     4    1    5 1    
     5    5    6 1    
     6    6    7 ar   
     7    6    8 ar   
     8    6    9 1    
     9    9   10 1    
    10   10   11 ar   
    11   10   12 ar   
    12   10   13 1    
    13   13   14 1    
    14   14   15 1    
    15   15   16 1    
    16   15   17 1    
    17   16   21 1    
    18   17   18 1    
    19   17   19 1    
    20   19   20 1    
    21   19   21 1    
    22   21   22 1    
    23   22   23 1    
    24   22   32 1    
    25   23   24 2    
    26   24   25 1    
    27   25   26 1    
    28   25   32 2    
    29   26   27 2    
    30   26   28 am   
    31   28   29 1    
    32   29   30 1    
    33   29   31 2    
    34   31   32 1    
@<TRIPOS>SUBSTRUCTURE
     1 GTP501      1 GROUP   
@<TRIPOS>SET
ATOM$ORANGE STATIC     ATOMS   COLORGROUP SYSTEM 
20 14 14 15 15 17 17 19 19 21 21 23 23 25 25 26 26 29 \
29 32 32 

