#    Name: 6o2r_4_GDP
#    Modification time : Fri May 22 19:25:26 2020

@<TRIPOS>MOLECULE
6o2r_4_GDP
   28    30     1     0     1
SMALL
NO_CHARGES


@<TRIPOS>ATOM
      1 PB        126.5830   58.9250  116.3640 P.3       1 GDP501      0.0000 
      2 O1B       126.5770   59.9460  115.2570 O.co2     1 GDP501      0.0000 
      3 O2B       125.6310   57.8140  116.0030 O.co2     1 GDP501      0.0000 
      4 O3B       126.1750   59.6060  117.6390 O.co2     1 GDP501      0.0000 
      5 O3A       128.0730   58.3590  116.5450 O.3       1 GDP501      0.0000 
      6 PA        128.4430   57.2740  117.6710 P.3       1 GDP501      0.0000 
      7 O1A       128.5040   55.8930  117.0730 O.co2     1 GDP501      0.0000 
      8 O2A       127.4720   57.3160  118.8200 O.co2     1 GDP501      0.0000 
      9 O5'       129.9130   57.7090  118.1420 O.3       1 GDP501      0.0000 
     10 C5'       131.0300   56.9340  117.7240 C.3       1 GDP501      0.0000 
     11 C4'       132.0600   56.8710  118.8400 C.3       1 GDP501      0.0000 
     12 O4'       131.6120   55.9150  119.7940 O.3       1 GDP501      0.0000 
     13 C3'       133.4030   56.3910  118.3300 C.3       1 GDP501      0.0000 
     14 O3'       134.4130   57.3080  118.7500 O.3       1 GDP501      0.0000 
     15 C2'       133.6390   55.0460  118.9780 C.3       1 GDP501      0.0000 
     16 O2'       134.9670   54.9780  119.4930 O.3       1 GDP501      0.0000 
     17 C1'       132.6500   54.9970  120.1160 C.3       1 GDP501      0.0000 
     18 N9        132.0640   53.6530  120.2480 N.pl3     1 GDP501      0.0000 
     19 C8        131.1740   53.0900  119.4230 C.2       1 GDP501      0.0000 
     20 N7        130.8380   51.8510  119.8540 N.2       1 GDP501      0.0000 
     21 C5        131.5210   51.6170  120.9840 C.2       1 GDP501      0.0000 
     22 C6        131.6420   50.5160  121.9570 C.2       1 GDP501      0.0000 
     23 O6        130.9970   49.4600  121.8220 O.2       1 GDP501      0.0000 
     24 N1        132.4680   50.6830  122.9870 N.am      1 GDP501      0.0000 
     25 C2        133.1760   51.8020  123.1690 C.2       1 GDP501      0.0000 
     26 N2        133.9880   51.8820  124.2450 N.pl3     1 GDP501      0.0000 
     27 N3        133.1160   52.8500  122.3210 N.2       1 GDP501      0.0000 
     28 C4        132.3250   52.8090  121.2330 C.2       1 GDP501      0.0000 
@<TRIPOS>BOND
     1    1    2 ar   
     2    1    3 ar   
     3    1    4 ar   
     4    1    5 1    
     5    5    6 1    
     6    6    7 ar   
     7    6    8 ar   
     8    6    9 1    
     9    9   10 1    
    10   10   11 1    
    11   11   12 1    
    12   11   13 1    
    13   12   17 1    
    14   13   14 1    
    15   13   15 1    
    16   15   16 1    
    17   15   17 1    
    18   17   18 1    
    19   18   19 1    
    20   18   28 1    
    21   19   20 2    
    22   20   21 1    
    23   21   22 1    
    24   21   28 2    
    25   22   23 2    
    26   22   24 am   
    27   24   25 1    
    28   25   26 1    
    29   25   27 2    
    30   27   28 1    
@<TRIPOS>SUBSTRUCTURE
     1 GDP501      1 GROUP   
@<TRIPOS>SET
ATOM$ORANGE STATIC     ATOMS   COLORGROUP SYSTEM 
20 10 10 11 11 13 13 15 15 17 17 19 19 21 21 22 22 25 \
25 28 28 

