#    Name: 6o2r_2_GDP
#    Modification time : Fri May 22 19:24:58 2020

@<TRIPOS>MOLECULE
6o2r_2_GDP
   28    30     1     0     1
SMALL
NO_CHARGES


@<TRIPOS>ATOM
      1 PB         73.7130   59.3140  107.0900 P.3       1 GDP501      0.0000 
      2 O1B        73.2330   60.2140  105.9840 O.co2     1 GDP501      0.0000 
      3 O2B        73.3860   57.8870  106.7300 O.co2     1 GDP501      0.0000 
      4 O3B        73.0370   59.7270  108.3660 O.co2     1 GDP501      0.0000 
      5 O3A        75.2960   59.5040  107.2710 O.3       1 GDP501      0.0000 
      6 PA         76.1280   58.7160  108.3960 P.3       1 GDP501      0.0000 
      7 O1A        76.8230   57.5220  107.7980 O.co2     1 GDP501      0.0000 
      8 O2A        75.2490   58.3020  109.5460 O.co2     1 GDP501      0.0000 
      9 O5'        77.2280   59.7850  108.8660 O.3       1 GDP501      0.0000 
     10 C5'        78.5770   59.6170  108.4480 C.3       1 GDP501      0.0000 
     11 C4'        79.5180   60.0400  109.5630 C.3       1 GDP501      0.0000 
     12 O4'        79.5670   58.9870  110.5180 O.3       1 GDP501      0.0000 
     13 C3'        80.9300   60.2390  109.0520 C.3       1 GDP501      0.0000 
     14 O3'        81.3990   61.5210  109.4720 O.3       1 GDP501      0.0000 
     15 C2'        81.7650   59.1590  109.7000 C.3       1 GDP501      0.0000 
     16 O2'        82.9720   59.7160  110.2150 O.3       1 GDP501      0.0000 
     17 C1'        80.9120   58.6560  110.8390 C.3       1 GDP501      0.0000 
     18 N9         81.0180   57.1940  110.9720 N.pl3     1 GDP501      0.0000 
     19 C8         80.4910   56.2820  110.1470 C.2       1 GDP501      0.0000 
     20 N7         80.7700   55.0280  110.5780 N.2       1 GDP501      0.0000 
     21 C5         81.4840   55.1390  111.7080 C.2       1 GDP501      0.0000 
     22 C6         82.1030   54.2210  112.6810 C.2       1 GDP501      0.0000 
     23 O6         82.0230   52.9850  112.5460 O.2       1 GDP501      0.0000 
     24 N1         82.7570   54.7530  113.7100 N.am      1 GDP501      0.0000 
     25 C2         82.8650   56.0730  113.8920 C.2       1 GDP501      0.0000 
     26 N2         83.5470   56.5220  114.9680 N.pl3     1 GDP501      0.0000 
     27 N3         82.3240   56.9720  113.0440 N.2       1 GDP501      0.0000 
     28 C4         81.6420   56.5680  111.9560 C.2       1 GDP501      0.0000 
@<TRIPOS>BOND
     1    1    2 ar   
     2    1    3 ar   
     3    1    4 ar   
     4    1    5 1    
     5    5    6 1    
     6    6    7 ar   
     7    6    8 ar   
     8    6    9 1    
     9    9   10 1    
    10   10   11 1    
    11   11   12 1    
    12   11   13 1    
    13   12   17 1    
    14   13   14 1    
    15   13   15 1    
    16   15   16 1    
    17   15   17 1    
    18   17   18 1    
    19   18   19 1    
    20   18   28 1    
    21   19   20 2    
    22   20   21 1    
    23   21   22 1    
    24   21   28 2    
    25   22   23 2    
    26   22   24 am   
    27   24   25 1    
    28   25   26 1    
    29   25   27 2    
    30   27   28 1    
@<TRIPOS>SUBSTRUCTURE
     1 GDP501      1 GROUP   
@<TRIPOS>SET
ATOM$ORANGE STATIC     ATOMS   COLORGROUP SYSTEM 
20 10 10 11 11 13 13 15 15 17 17 19 19 21 21 22 22 25 \
25 28 28 

