#    Name: 6o2r_3_GTP
#    Modification time : Fri May 22 19:25:10 2020

@<TRIPOS>MOLECULE
6o2r_3_GTP
   32    34     1     0     1
SMALL
NO_CHARGES


@<TRIPOS>ATOM
      1 PG        126.3760   59.7500   75.4140 P.3       1 GTP501      0.0000 
      2 O1G       127.6430   60.1900   74.7290 O.co2     1 GTP501      0.0000 
      3 O2G       125.2400   60.6390   74.9860 O.co2     1 GTP501      0.0000 
      4 O3G       126.0770   58.3150   75.0740 O.co2     1 GTP501      0.0000 
      5 O3B       126.5950   59.8920   76.9900 O.3       1 GTP501      0.0000 
      6 PB        126.8270   58.5600   77.8490 P.3       1 GTP501      0.0000 
      7 O1B       125.6910   57.6000   77.6130 O.co2     1 GTP501      0.0000 
      8 O2B       126.9800   58.9250   79.3020 O.co2     1 GTP501      0.0000 
      9 O3A       128.1760   57.9130   77.2770 O.3       1 GTP501      0.0000 
     10 PA        129.0380   56.9170   78.1960 P.3       1 GTP501      0.0000 
     11 O1A       129.5810   55.8080   77.3370 O.co2     1 GTP501      0.0000 
     12 O2A       128.2280   56.3600   79.3350 O.co2     1 GTP501      0.0000 
     13 O5'       130.2470   57.8060   78.7580 O.3       1 GTP501      0.0000 
     14 C5'       131.5420   57.6610   78.2290 C.3       1 GTP501      0.0000 
     15 C4'       132.4480   57.0400   79.2800 C.3       1 GTP501      0.0000 
     16 O4'       131.7810   56.0060   79.9660 O.3       1 GTP501      0.0000 
     17 C3'       133.6620   56.4010   78.6440 C.3       1 GTP501      0.0000 
     18 O3'       134.7990   57.1710   78.9410 O.3       1 GTP501      0.0000 
     19 C2'       133.7890   55.0410   79.2890 C.3       1 GTP501      0.0000 
     20 O2'       135.0590   54.9100   79.8680 O.3       1 GTP501      0.0000 
     21 C1'       132.7270   55.0410   80.3660 C.3       1 GTP501      0.0000 
     22 N9        132.0950   53.7260   80.4940 N.pl3     1 GTP501      0.0000 
     23 C8        131.2100   53.1390   79.6410 C.2       1 GTP501      0.0000 
     24 N7        130.8660   51.9370   80.1510 N.2       1 GTP501      0.0000 
     25 C5        131.5100   51.7590   81.3180 C.2       1 GTP501      0.0000 
     26 C6        131.5220   50.7280   82.2400 C.2       1 GTP501      0.0000 
     27 O6        130.8450   49.7260   82.0560 O.2       1 GTP501      0.0000 
     28 N1        132.2970   50.8240   83.3670 N.am      1 GTP501      0.0000 
     29 C2        133.0560   51.9520   83.5660 C.2       1 GTP501      0.0000 
     30 N2        133.8110   52.0640   84.6500 N.pl3     1 GTP501      0.0000 
     31 N3        133.0410   52.9730   82.6490 N.2       1 GTP501      0.0000 
     32 C4        132.2800   52.8780   81.5430 C.2       1 GTP501      0.0000 
@<TRIPOS>BOND
     1    1    2 ar   
     2    1    3 ar   
     3    1    4 ar   
     4    1    5 1    
     5    5    6 1    
     6    6    7 ar   
     7    6    8 ar   
     8    6    9 1    
     9    9   10 1    
    10   10   11 ar   
    11   10   12 ar   
    12   10   13 1    
    13   13   14 1    
    14   14   15 1    
    15   15   16 1    
    16   15   17 1    
    17   16   21 1    
    18   17   18 1    
    19   17   19 1    
    20   19   20 1    
    21   19   21 1    
    22   21   22 1    
    23   22   23 1    
    24   22   32 1    
    25   23   24 2    
    26   24   25 1    
    27   25   26 1    
    28   25   32 2    
    29   26   27 2    
    30   26   28 am   
    31   28   29 1    
    32   29   30 1    
    33   29   31 2    
    34   31   32 1    
@<TRIPOS>SUBSTRUCTURE
     1 GTP501      1 GROUP   
@<TRIPOS>SET
ATOM$ORANGE STATIC     ATOMS   COLORGROUP SYSTEM 
20 14 14 15 15 17 17 19 19 21 21 23 23 25 25 26 26 29 \
29 32 32 

