#    Name: 6o2r_12_GTP
#    Modification time : Fri May 22 19:27:10 2020

@<TRIPOS>MOLECULE
6o2r_12_GTP
   32    34     1     0     1
SMALL
NO_CHARGES


@<TRIPOS>ATOM
      1 PG        126.1360   59.6560  155.7290 P.3       1 GTP501      0.0000 
      2 O1G       127.4020   60.0940  155.0410 O.co2     1 GTP501      0.0000 
      3 O2G       125.0000   60.5450  155.3030 O.co2     1 GTP501      0.0000 
      4 O3G       125.8350   58.2210  155.3910 O.co2     1 GTP501      0.0000 
      5 O3B       126.3590   59.7980  157.3050 O.3       1 GTP501      0.0000 
      6 PB        126.5910   58.4670  158.1650 P.3       1 GTP501      0.0000 
      7 O1B       125.4530   57.5080  157.9310 O.co2     1 GTP501      0.0000 
      8 O2B       126.7470   58.8320  159.6170 O.co2     1 GTP501      0.0000 
      9 O3A       127.9380   57.8180  157.5900 O.3       1 GTP501      0.0000 
     10 PA        128.8000   56.8210  158.5080 P.3       1 GTP501      0.0000 
     11 O1A       129.3400   55.7110  157.6480 O.co2     1 GTP501      0.0000 
     12 O2A       127.9920   56.2660  159.6490 O.co2     1 GTP501      0.0000 
     13 O5'       130.0110   57.7090  159.0670 O.3       1 GTP501      0.0000 
     14 C5'       131.3050   57.5620  158.5360 C.3       1 GTP501      0.0000 
     15 C4'       132.2130   56.9410  159.5850 C.3       1 GTP501      0.0000 
     16 O4'       131.5460   55.9080  160.2740 O.3       1 GTP501      0.0000 
     17 C3'       133.4250   56.2990  158.9470 C.3       1 GTP501      0.0000 
     18 O3'       134.5630   57.0680  159.2410 O.3       1 GTP501      0.0000 
     19 C2'       133.5510   54.9400  159.5930 C.3       1 GTP501      0.0000 
     20 O2'       134.8220   54.8080  160.1700 O.3       1 GTP501      0.0000 
     21 C1'       132.4920   54.9430  160.6710 C.3       1 GTP501      0.0000 
     22 N9        131.8580   53.6280  160.8030 N.pl3     1 GTP501      0.0000 
     23 C8        130.9710   53.0420  159.9520 C.2       1 GTP501      0.0000 
     24 N7        130.6260   51.8400  160.4630 N.2       1 GTP501      0.0000 
     25 C5        131.2730   51.6630  161.6290 C.2       1 GTP501      0.0000 
     26 C6        131.2850   50.6320  162.5510 C.2       1 GTP501      0.0000 
     27 O6        130.6060   49.6310  162.3690 O.2       1 GTP501      0.0000 
     28 N1        132.0620   50.7280  163.6770 N.am      1 GTP501      0.0000 
     29 C2        132.8230   51.8550  163.8740 C.2       1 GTP501      0.0000 
     30 N2        133.5800   51.9670  164.9560 N.pl3     1 GTP501      0.0000 
     31 N3        132.8080   52.8760  162.9560 N.2       1 GTP501      0.0000 
     32 C4        132.0440   52.7800  161.8510 C.2       1 GTP501      0.0000 
@<TRIPOS>BOND
     1    1    2 ar   
     2    1    3 ar   
     3    1    4 ar   
     4    1    5 1    
     5    5    6 1    
     6    6    7 ar   
     7    6    8 ar   
     8    6    9 1    
     9    9   10 1    
    10   10   11 ar   
    11   10   12 ar   
    12   10   13 1    
    13   13   14 1    
    14   14   15 1    
    15   15   16 1    
    16   15   17 1    
    17   16   21 1    
    18   17   18 1    
    19   17   19 1    
    20   19   20 1    
    21   19   21 1    
    22   21   22 1    
    23   22   23 1    
    24   22   32 1    
    25   23   24 2    
    26   24   25 1    
    27   25   26 1    
    28   25   32 2    
    29   26   27 2    
    30   26   28 am   
    31   28   29 1    
    32   29   30 1    
    33   29   31 2    
    34   31   32 1    
@<TRIPOS>SUBSTRUCTURE
     1 GTP501      1 GROUP   
@<TRIPOS>SET
ATOM$ORANGE STATIC     ATOMS   COLORGROUP SYSTEM 
20 14 14 15 15 17 17 19 19 21 21 23 23 25 25 26 26 29 \
29 32 32 

