#    Name: 6o2r_11_GTP_CAVITY_N1_4
#    Modification time : Fri May 22 19:26:56 2020

@<TRIPOS>MOLECULE
6o2r_11_GTP_CAVITY_N1_4
   76     0     7     0     0
SMALL
NO_CHARGES


@<TRIPOS>ATOM
      1 OG         76.0200   59.2200  150.2000 O.3       1 SER1        0.0000 
      2 OG         78.0900   59.6700  150.4000 O.3       1 SER1        0.0000 
      3 OG         79.0400   59.8000  151.5600 O.3       1 SER1        0.0000 
      4 OG         81.2700   60.4300  149.6500 O.3       1 SER1        0.0000 
      5 OG         81.5900   58.9700  149.5600 O.3       1 SER1        0.0000 
      6 OG         81.9200   57.5100  149.4600 O.3       1 SER1        0.0000 
      7 OG         82.5400   59.1000  150.7100 O.3       1 SER1        0.0000 
      8 OG         83.3300   60.8800  149.8600 O.3       1 SER1        0.0000 
      9 OG         83.8200   57.7800  151.7700 O.3       1 SER1        0.0000 
     10 O          75.4000   57.6200  148.9400 O.2       2 ALA2        0.0000 
     11 N          76.5200   57.9400  147.9900 N.am      2 ALA2        0.0000 
     12 O          76.3500   57.7600  150.1000 O.2       2 ALA2        0.0000 
     13 O          77.9300   61.3100  148.3900 O.2       2 ALA2        0.0000 
     14 N          79.0400   61.6200  147.4400 N.am      2 ALA2        0.0000 
     15 O          78.7400   56.7500  150.2000 O.2       2 ALA2        0.0000 
     16 O          78.8800   61.4400  149.5500 O.2       2 ALA2        0.0000 
     17 N          81.2900   54.0900  152.3200 N.am      2 ALA2        0.0000 
     18 O          80.4400   63.1700  151.9600 O.2       2 ALA2        0.0000 
     19 N          81.4300   58.7900  151.6600 N.am      2 ALA2        0.0000 
     20 N          82.2100   60.5700  150.8100 N.am      2 ALA2        0.0000 
     21 N          80.8000   55.3700  154.5200 N.am      2 ALA2        0.0000 
     22 O          81.5900   57.1500  153.6700 O.2       2 ALA2        0.0000 
     23 N          81.9100   55.6900  153.5700 N.am      2 ALA2        0.0000 
     24 N          82.2400   54.2300  153.4700 N.am      2 ALA2        0.0000 
     25 N          82.3700   58.9200  152.8200 N.am      2 ALA2        0.0000 
     26 O          82.7000   57.4600  152.7200 O.2       2 ALA2        0.0000 
     27 N          82.8300   62.1600  152.0600 N.am      2 ALA2        0.0000 
     28 N          83.9500   62.4700  151.1100 N.am      2 ALA2        0.0000 
     29 N          81.7400   55.5100  155.6800 N.am      2 ALA2        0.0000 
     30 O          82.5300   57.2800  154.8300 O.2       2 ALA2        0.0000 
     31 N          82.8600   55.8200  154.7300 N.am      2 ALA2        0.0000 
     32 O          83.9800   56.1400  153.7700 O.2       2 ALA2        0.0000 
     33 OD1        74.1300   58.9500  147.8900 O.co2     3 ASP3        0.0000 
     34 OD1        77.3100   59.7100  147.1400 O.co2     3 ASP3        0.0000 
     35 OD1        78.4200   60.0300  146.1900 O.co2     3 ASP3        0.0000 
     36 NZ         79.9900   61.7600  148.6000 N.4       4 LYS4        0.0000 
     37 NZ         80.9400   61.8900  149.7500 N.4       4 LYS4        0.0000 
     38 NZ         81.5600   63.4900  151.0100 N.4       4 LYS4        0.0000 
     39 NZ         81.8900   62.0300  150.9100 N.4       4 LYS4        0.0000 
     40 NZ         83.0000   62.3400  149.9600 N.4       4 LYS4        0.0000 
     41 NZ         83.6200   63.9400  151.2100 N.4       4 LYS4        0.0000 
     42 CZ         80.8100   57.2000  150.4100 C.ar      5 PHE5        0.0000 
     43 CZ         81.1300   55.7300  150.3100 C.ar      5 PHE5        0.0000 
     44 CZ         81.7500   57.3300  151.5600 C.ar      5 PHE5        0.0000 
     45 CZ         82.0800   55.8700  151.4600 C.ar      5 PHE5        0.0000 
     46 CZ         83.0300   56.0000  152.6200 C.ar      5 PHE5        0.0000 
     47 CA         75.0800   59.0800  149.0400 C.3       6 GLY6        0.0000 
     48 CA         76.1900   59.4000  148.0900 C.3       6 GLY6        0.0000 
     49 CA         77.6400   58.2500  147.0400 C.3       6 GLY6        0.0000 
     50 CA         77.1400   59.5300  149.2500 C.3       6 GLY6        0.0000 
     51 CA         77.4700   58.0700  149.1500 C.3       6 GLY6        0.0000 
     52 CA         77.8000   56.6100  149.0500 C.3       6 GLY6        0.0000 
     53 CA         78.2600   59.8500  148.3000 C.3       6 GLY6        0.0000 
     54 CA         79.3700   60.1600  147.3400 C.3       6 GLY6        0.0000 
     55 CA         78.4200   58.2100  150.3000 C.3       6 GLY6        0.0000 
     56 CA         79.2000   59.9800  149.4500 C.3       6 GLY6        0.0000 
     57 CA         79.5300   58.5200  149.3500 C.3       6 GLY6        0.0000 
     58 CA         79.8600   57.0600  149.2500 C.3       6 GLY6        0.0000 
     59 CA         79.3600   58.3400  151.4600 C.3       6 GLY6        0.0000 
     60 CA         79.6900   56.8800  151.3600 C.3       6 GLY6        0.0000 
     61 CA         80.0200   55.4200  151.2600 C.3       6 GLY6        0.0000 
     62 CA         79.8200   61.5800  150.7000 C.3       6 GLY6        0.0000 
     63 CA         79.8500   55.2400  153.3700 C.3       6 GLY6        0.0000 
     64 CA         79.9800   59.9400  152.7100 C.3       6 GLY6        0.0000 
     65 CA         80.3100   58.4800  152.6100 C.3       6 GLY6        0.0000 
     66 CA         80.6400   57.0100  152.5100 C.3       6 GLY6        0.0000 
     67 CA         80.9700   55.5500  152.4200 C.3       6 GLY6        0.0000 
     68 CA         80.7700   61.7100  151.8600 C.3       6 GLY6        0.0000 
     69 CA         81.1000   60.2500  151.7600 C.3       6 GLY6        0.0000 
     70 CA         80.4700   56.8300  154.6200 C.3       6 GLY6        0.0000 
     71 CA         81.2600   58.6100  153.7700 C.3       6 GLY6        0.0000 
     72 CA         81.7200   61.8400  153.0200 C.3       6 GLY6        0.0000 
     73 CA         82.5100   63.6200  152.1600 C.3       6 GLY6        0.0000 
     74 CA         81.4200   56.9700  155.7800 C.3       6 GLY6        0.0000 
     75 DU         80.1500   60.1200  150.6100 H         7 CUB7        0.0000 
     76 DU         80.4800   58.6600  150.5100 H         7 CUB7        0.0000 
@<TRIPOS>BOND
@<TRIPOS>SUBSTRUCTURE
     1 SER1        1 GROUP   
     2 ALA2       10 GROUP   
     3 ASP3       33 GROUP   
     4 LYS4       36 GROUP   
     5 PHE5       42 GROUP   
     6 GLY6       47 GROUP   
     7 CUB7       75 GROUP   
@<TRIPOS>SET

