#    Name: 6fd2_1_5AD_CAVITY_N1_12
#    Modification time : Fri May 22 19:31:03 2020

@<TRIPOS>MOLECULE
6fd2_1_5AD_CAVITY_N1_12
   79     0     7     0     0
SMALL
NO_CHARGES


@<TRIPOS>ATOM
      1 OG         76.8300  -47.1900  -11.0800 O.3       1 SER1        0.0000 
      2 OG         76.7700  -45.9200  -11.8900 O.3       1 SER1        0.0000 
      3 OG         75.8100  -46.6300  -10.1400 O.3       1 SER1        0.0000 
      4 OG         78.8400  -44.6300  -12.8000 O.3       1 SER1        0.0000 
      5 OG         77.8700  -45.3400  -11.0400 O.3       1 SER1        0.0000 
      6 OG         78.9100  -43.4900  -11.0100 O.3       1 SER1        0.0000 
      7 OG         77.8900  -42.9400  -10.0600 O.3       1 SER1        0.0000 
      8 N          72.0800  -44.3300  -20.2500 N.am      2 ALA2        0.0000 
      9 O          75.2800  -46.1200  -20.5000 O.2       2 ALA2        0.0000 
     10 N          75.2200  -44.8600  -21.3000 N.am      2 ALA2        0.0000 
     11 O          74.2600  -45.5700  -19.5500 O.2       2 ALA2        0.0000 
     12 N          74.2000  -44.3000  -20.3600 N.am      2 ALA2        0.0000 
     13 N          74.1400  -43.0300  -21.1600 N.am      2 ALA2        0.0000 
     14 N          73.2400  -45.0100  -18.6100 N.am      2 ALA2        0.0000 
     15 N          73.1800  -43.7400  -19.4100 N.am      2 ALA2        0.0000 
     16 O          73.1200  -42.4800  -20.2100 O.2       2 ALA2        0.0000 
     17 O          75.5300  -48.7800  -16.3000 O.2       2 ALA2        0.0000 
     18 O          75.4100  -46.2500  -17.9100 O.2       2 ALA2        0.0000 
     19 N          75.3600  -44.9800  -18.7100 N.am      2 ALA2        0.0000 
     20 N          75.3000  -43.7200  -19.5200 N.am      2 ALA2        0.0000 
     21 O          74.5000  -48.2300  -15.3600 O.2       2 ALA2        0.0000 
     22 O          74.4500  -46.9600  -16.1600 O.2       2 ALA2        0.0000 
     23 O          74.3900  -45.6900  -16.9600 O.2       2 ALA2        0.0000 
     24 N          74.3300  -44.4300  -17.7600 N.am      2 ALA2        0.0000 
     25 N          76.5100  -45.6700  -17.0700 N.am      2 ALA2        0.0000 
     26 N          75.4900  -45.1100  -16.1200 N.am      2 ALA2        0.0000 
     27 N          76.6400  -45.7900  -14.4800 N.am      2 ALA2        0.0000 
     28 N          76.5800  -44.5300  -15.2800 N.am      2 ALA2        0.0000 
     29 N          76.6800  -40.9900  -12.5100 N.am      2 ALA2        0.0000 
     30 O          76.8100  -41.1100   -9.9100 O.2       2 ALA2        0.0000 
     31 OD1        72.2200  -44.4500  -17.6600 O.co2     3 ASP3        0.0000 
     32 OD1        73.3700  -45.1400  -16.0100 O.co2     3 ASP3        0.0000 
     33 NZ         73.4300  -46.4000  -15.2100 N.4       4 LYS4        0.0000 
     34 NZ         74.5800  -47.0900  -13.5700 N.4       4 LYS4        0.0000 
     35 NZ         74.5200  -45.8200  -14.3700 N.4       4 LYS4        0.0000 
     36 NZ         73.5000  -45.2700  -13.4200 N.4       4 LYS4        0.0000 
     37 NZ         74.7100  -47.2200  -10.9800 N.4       4 LYS4        0.0000 
     38 NZ         74.6500  -45.9500  -11.7800 N.4       4 LYS4        0.0000 
     39 CZ         76.5700  -46.9300  -16.2700 C.ar      5 PHE5        0.0000 
     40 CZ         77.6600  -46.3500  -15.4200 C.ar      5 PHE5        0.0000 
     41 CZ         74.6000  -44.6800  -12.5800 C.ar      5 PHE5        0.0000 
     42 CZ         74.5400  -43.4200  -13.3800 C.ar      5 PHE5        0.0000 
     43 CZ         78.7600  -45.7700  -14.5800 C.ar      5 PHE5        0.0000 
     44 CZ         78.7000  -44.5000  -15.3900 C.ar      5 PHE5        0.0000 
     45 CZ         75.6400  -42.8400  -12.5400 C.ar      5 PHE5        0.0000 
     46 CZ         74.6200  -42.2800  -11.6000 C.ar      5 PHE5        0.0000 
     47 CZ         76.7400  -42.2500  -11.7000 C.ar      5 PHE5        0.0000 
     48 CZ         77.8300  -41.6700  -10.8600 C.ar      5 PHE5        0.0000 
     49 CA         76.3800  -45.5400  -19.6600 C.3       6 GLY6        0.0000 
     50 CA         74.5600  -49.4900  -14.5500 C.3       6 GLY6        0.0000 
     51 CA         74.2800  -43.1600  -18.5700 C.3       6 GLY6        0.0000 
     52 CA         73.3100  -43.8700  -16.8200 C.3       6 GLY6        0.0000 
     53 CA         75.6600  -48.9100  -13.7100 C.3       6 GLY6        0.0000 
     54 CA         74.6400  -48.3500  -12.7600 C.3       6 GLY6        0.0000 
     55 CA         74.4700  -44.5600  -15.1700 C.3       6 GLY6        0.0000 
     56 CA         76.7500  -48.3300  -12.8700 C.3       6 GLY6        0.0000 
     57 CA         75.7900  -49.0400  -11.1200 C.3       6 GLY6        0.0000 
     58 CA         75.7300  -47.7700  -11.9200 C.3       6 GLY6        0.0000 
     59 CA         75.5600  -43.9700  -14.3300 C.3       6 GLY6        0.0000 
     60 CA         77.6800  -43.9500  -14.4400 C.3       6 GLY6        0.0000 
     61 CA         76.6600  -43.3900  -13.4900 C.3       6 GLY6        0.0000 
     62 CA         75.7500  -45.3700  -10.9400 C.3       6 GLY6        0.0000 
     63 CA         75.7000  -44.1000  -11.7400 C.3       6 GLY6        0.0000 
     64 CA         79.8600  -45.1800  -13.7400 C.3       6 GLY6        0.0000 
     65 CA         78.7800  -43.3600  -13.6000 C.3       6 GLY6        0.0000 
     66 CA         77.7600  -42.8100  -12.6500 C.3       6 GLY6        0.0000 
     67 CA         76.8500  -44.7800  -10.1000 C.3       6 GLY6        0.0000 
     68 CA         76.7900  -43.5200  -10.9000 C.3       6 GLY6        0.0000 
     69 CA         75.7100  -41.7000  -10.7500 C.3       6 GLY6        0.0000 
     70 CA         75.6600  -40.4300  -11.5600 C.3       6 GLY6        0.0000 
     71 DU         76.6200  -48.2000  -15.4600 H         7 CUB7        0.0000 
     72 DU         75.6000  -47.6400  -14.5200 H         7 CUB7        0.0000 
     73 DU         75.5400  -46.3800  -15.3200 H         7 CUB7        0.0000 
     74 DU         75.6800  -46.5000  -12.7300 H         7 CUB7        0.0000 
     75 DU         75.6200  -45.2400  -13.5300 H         7 CUB7        0.0000 
     76 DU         77.7900  -46.4800  -12.8300 H         7 CUB7        0.0000 
     77 DU         77.7400  -45.2100  -13.6400 H         7 CUB7        0.0000 
     78 DU         76.7200  -44.6600  -12.6900 H         7 CUB7        0.0000 
     79 DU         77.8100  -44.0700  -11.8500 H         7 CUB7        0.0000 
@<TRIPOS>BOND
@<TRIPOS>SUBSTRUCTURE
     1 SER1        1 GROUP   
     2 ALA2        8 GROUP   
     3 ASP3       31 GROUP   
     4 LYS4       33 GROUP   
     5 PHE5       39 GROUP   
     6 GLY6       49 GROUP   
     7 CUB7       71 GROUP   
@<TRIPOS>SET

