#    Name: 6fd2_1_5AD
#    Modification time : Fri May 22 19:31:02 2020

@<TRIPOS>MOLECULE
6fd2_1_5AD
   18    20     1     0     0
SMALL
NO_CHARGES


@<TRIPOS>ATOM
      1 N1         77.6810  -41.8600   -9.5860 N.ar      1 5AD504      0.0000 
      2 C2         77.6660  -43.1780   -9.1850 C.ar      1 5AD504      0.0000 
      3 N3         77.2010  -44.1560  -10.0390 N.ar      1 5AD504      0.0000 
      4 C4         76.7580  -43.8270  -11.2770 C.ar      1 5AD504      0.0000 
      5 N9         76.2480  -44.5660  -12.3190 N.pl3     1 5AD504      0.0000 
      6 C8         75.9660  -43.7040  -13.3420 C.2       1 5AD504      0.0000 
      7 N7         76.2840  -42.4530  -12.9500 N.2       1 5AD504      0.0000 
      8 C5         76.7700  -42.5030  -11.6900 C.ar      1 5AD504      0.0000 
      9 C6         77.2350  -41.5170  -10.8410 C.ar      1 5AD504      0.0000 
     10 N6         77.2480  -40.2520  -11.2410 N.pl3     1 5AD504      0.0000 
     11 C1'        76.0510  -46.0190  -12.3680 C.3       1 5AD504      0.0000 
     12 C2'        74.6460  -46.3330  -12.8310 C.3       1 5AD504      0.0000 
     13 C3'        74.8040  -46.9970  -14.1820 C.3       1 5AD504      0.0000 
     14 C4'        76.2730  -47.3610  -14.2650 C.3       1 5AD504      0.0000 
     15 C5'        76.8440  -47.1650  -15.6640 C.3       1 5AD504      0.0000 
     16 O4'        76.9480  -46.5490  -13.3260 O.3       1 5AD504      0.0000 
     17 O2'        74.0690  -47.2260  -11.9050 O.3       1 5AD504      0.0000 
     18 O3'        74.0370  -48.1690  -14.2480 O.3       1 5AD504      0.0000 
@<TRIPOS>BOND
     1    1    2 ar   
     2    1    9 ar   
     3    2    3 ar   
     4    3    4 ar   
     5    4    5 1    
     6    4    8 ar   
     7    5    6 1    
     8    5   11 1    
     9    6    7 2    
    10    7    8 1    
    11    8    9 ar   
    12    9   10 1    
    13   11   12 1    
    14   11   16 1    
    15   12   13 1    
    16   12   17 1    
    17   13   14 1    
    18   13   18 1    
    19   14   15 1    
    20   14   16 1    
@<TRIPOS>SUBSTRUCTURE
     1 5AD504      1 GROUP   
@<TRIPOS>SET

