#    Name: 6npu_1_STI
#    Modification time : Fri May 22 19:24:47 2020

@<TRIPOS>MOLECULE
6npu_1_STI
   37    41     1     0     0
SMALL
NO_CHARGES


@<TRIPOS>ATOM
      1 C1         11.6520    2.6380  -10.5770 C.ar      1 STI601      0.0000 
      2 C6         12.0350    1.3470  -10.2590 C.ar      1 STI601      0.0000 
      3 C5         13.2810    1.1600   -9.7340 C.ar      1 STI601      0.0000 
      4 C4         14.1220    2.2610   -9.5540 C.ar      1 STI601      0.0000 
      5 N3         13.7250    3.4770   -9.8720 N.ar      1 STI601      0.0000 
      6 C2         12.5380    3.6860  -10.3650 C.ar      1 STI601      0.0000 
      7 C7         13.7550   -0.2160   -9.3580 C.ar      1 STI601      0.0000 
      8 C12        12.9380   -1.3210   -9.3920 C.ar      1 STI601      0.0000 
      9 C11        13.4840   -2.5630   -9.0310 C.ar      1 STI601      0.0000 
     10 N10        14.7810   -2.6280   -8.6680 N.ar      1 STI601      0.0000 
     11 C9         15.5050   -1.5550   -8.6360 C.ar      1 STI601      0.0000 
     12 N8         15.0140   -0.3600   -8.9650 N.ar      1 STI601      0.0000 
     13 N13        16.9180   -1.5790   -8.2310 N.pl3     1 STI601      0.0000 
     14 C14        17.6270   -2.8060   -7.8680 C.ar      1 STI601      0.0000 
     15 C19        17.5620   -3.2620   -6.5440 C.ar      1 STI601      0.0000 
     16 C18        18.2670   -4.4190   -6.1750 C.ar      1 STI601      0.0000 
     17 C17        19.0190   -5.1060   -7.1200 C.ar      1 STI601      0.0000 
     18 C16        19.0680   -4.6650   -8.4440 C.ar      1 STI601      0.0000 
     19 C15        18.3890   -3.4830   -8.8260 C.ar      1 STI601      0.0000 
     20 N21        19.9550   -5.4030   -9.3560 N.am      1 STI601      0.0000 
     21 C22        20.1490   -5.1320  -10.7710 C.2       1 STI601      0.0000 
     22 C23        21.2110   -5.9730  -11.5060 C.ar      1 STI601      0.0000 
     23 C25        21.7440   -5.4490  -12.7350 C.ar      1 STI601      0.0000 
     24 C26        22.7380   -6.1600  -13.4400 C.ar      1 STI601      0.0000 
     25 C27        23.2020   -7.3570  -12.9260 C.ar      1 STI601      0.0000 
     26 C28        22.6720   -7.8740  -11.6720 C.ar      1 STI601      0.0000 
     27 C29        21.6780   -7.1650  -10.9570 C.ar      1 STI601      0.0000 
     28 C46        24.3010   -8.1310  -13.7360 C.3       1 STI601      0.0000 
     29 N48        23.9840   -9.3700  -13.8360 N.4       1 STI601      0.0000 
     30 C53        22.8830   -9.5500  -14.6340 C.3       1 STI601      0.0000 
     31 C52        22.4830  -11.0080  -14.8620 C.3       1 STI601      0.0000 
     32 N51        23.4900  -11.9480  -14.6980 N.3       1 STI601      0.0000 
     33 C54        23.2970  -12.9050  -15.5250 C.3       1 STI601      0.0000 
     34 C50        24.7890  -11.4890  -14.8000 C.3       1 STI601      0.0000 
     35 C49        25.0950  -10.1180  -14.1890 C.3       1 STI601      0.0000 
     36 O29        19.5470   -4.3310  -11.3620 O.2       1 STI601      0.0000 
     37 C20        16.7180   -2.5130   -5.4740 C.3       1 STI601      0.0000 
@<TRIPOS>BOND
     1    1    2 ar   
     2    1    6 ar   
     3    2    3 ar   
     4    3    4 ar   
     5    3    7 1    
     6    4    5 ar   
     7    5    6 ar   
     8    7    8 ar   
     9    7   12 ar   
    10    8    9 ar   
    11    9   10 ar   
    12   10   11 ar   
    13   11   12 ar   
    14   11   13 1    
    15   13   14 1    
    16   14   15 ar   
    17   14   19 ar   
    18   15   16 ar   
    19   15   37 1    
    20   16   17 ar   
    21   17   18 ar   
    22   18   19 ar   
    23   18   20 1    
    24   20   21 am   
    25   21   22 1    
    26   21   36 2    
    27   22   23 ar   
    28   22   27 ar   
    29   23   24 ar   
    30   24   25 ar   
    31   25   26 ar   
    32   25   28 1    
    33   26   27 ar   
    34   28   29 1    
    35   29   30 1    
    36   29   35 1    
    37   30   31 1    
    38   31   32 1    
    39   32   33 1    
    40   32   34 1    
    41   34   35 1    
@<TRIPOS>SUBSTRUCTURE
     1 STI601      1 GROUP   
@<TRIPOS>SET

