#    Name: 6npu_2_STI
#    Modification time : Fri May 22 19:24:50 2020

@<TRIPOS>MOLECULE
6npu_2_STI
   37    41     1     0     0
SMALL
NO_CHARGES


@<TRIPOS>ATOM
      1 C1         22.8560   42.0000   -3.6730 C.ar      1 STI602      0.0000 
      2 C6         21.9100   42.2010   -2.6810 C.ar      1 STI602      0.0000 
      3 C5         22.1400   41.6320   -1.4660 C.ar      1 STI602      0.0000 
      4 C4         23.3150   40.9050   -1.2590 C.ar      1 STI602      0.0000 
      5 N3         24.1940   40.7320   -2.2230 N.ar      1 STI602      0.0000 
      6 C2         23.9970   41.2540   -3.3990 C.ar      1 STI602      0.0000 
      7 C7         21.1840   41.8280   -0.3260 C.ar      1 STI602      0.0000 
      8 C12        20.0640   42.6050   -0.4230 C.ar      1 STI602      0.0000 
      9 C11        19.2580   42.7420    0.7200 C.ar      1 STI602      0.0000 
     10 N10        19.6200   42.1190    1.8570 N.ar      1 STI602      0.0000 
     11 C9         20.6820   41.3920    1.8940 C.ar      1 STI602      0.0000 
     12 N8         21.4610   41.2510    0.8360 N.ar      1 STI602      0.0000 
     13 N13        21.0850   40.7100    3.1350 N.pl3     1 STI602      0.0000 
     14 C14        20.2680   40.8830    4.3440 C.ar      1 STI602      0.0000 
     15 C19        20.4190   42.0310    5.1240 C.ar      1 STI602      0.0000 
     16 C18        19.6330   42.2030    6.2820 C.ar      1 STI602      0.0000 
     17 C17        18.7160   41.2200    6.6620 C.ar      1 STI602      0.0000 
     18 C16        18.5540   40.0780    5.8630 C.ar      1 STI602      0.0000 
     19 C15        19.3500   39.9030    4.7090 C.ar      1 STI602      0.0000 
     20 N21        17.6130   39.0240    6.2920 N.am      1 STI602      0.0000 
     21 C22        17.1120   37.9250    5.4860 C.2       1 STI602      0.0000 
     22 C23        16.1940   36.9140    6.2240 C.ar      1 STI602      0.0000 
     23 C25        16.0540   35.5670    5.7310 C.ar      1 STI602      0.0000 
     24 C26        15.2260   34.6570    6.4330 C.ar      1 STI602      0.0000 
     25 C27        14.5680   35.0560    7.5920 C.ar      1 STI602      0.0000 
     26 C28        14.7300   36.3990    8.0880 C.ar      1 STI602      0.0000 
     27 C29        15.5510   37.3110    7.3930 C.ar      1 STI602      0.0000 
     28 C46        13.6640   34.0310    8.3500 C.3       1 STI602      0.0000 
     29 N48        12.5000   34.4990    8.5770 N.4       1 STI602      0.0000 
     30 C53        11.8420   34.8350    7.4180 C.3       1 STI602      0.0000 
     31 C52        10.4380   35.3750    7.6980 C.3       1 STI602      0.0000 
     32 N51         9.6860   34.5030    8.4700 N.3       1 STI602      0.0000 
     33 C54         8.5840   35.0510    8.7630 C.3       1 STI602      0.0000 
     34 C50        10.3020   33.9860    9.5990 C.3       1 STI602      0.0000 
     35 C49        11.7980   33.6790    9.4580 C.3       1 STI602      0.0000 
     36 O29        17.3690   37.7830    4.3500 O.2       1 STI602      0.0000 
     37 C20        21.4390   43.1120    4.7050 C.3       1 STI602      0.0000 
@<TRIPOS>BOND
     1    1    2 ar   
     2    1    6 ar   
     3    2    3 ar   
     4    3    4 ar   
     5    3    7 1    
     6    4    5 ar   
     7    5    6 ar   
     8    7    8 ar   
     9    7   12 ar   
    10    8    9 ar   
    11    9   10 ar   
    12   10   11 ar   
    13   11   12 ar   
    14   11   13 1    
    15   13   14 1    
    16   14   15 ar   
    17   14   19 ar   
    18   15   16 ar   
    19   15   37 1    
    20   16   17 ar   
    21   17   18 ar   
    22   18   19 ar   
    23   18   20 1    
    24   20   21 am   
    25   21   22 1    
    26   21   36 2    
    27   22   23 ar   
    28   22   27 ar   
    29   23   24 ar   
    30   24   25 ar   
    31   25   26 ar   
    32   25   28 1    
    33   26   27 ar   
    34   28   29 1    
    35   29   30 1    
    36   29   35 1    
    37   30   31 1    
    38   31   32 1    
    39   32   33 1    
    40   32   34 1    
    41   34   35 1    
@<TRIPOS>SUBSTRUCTURE
     1 STI602      1 GROUP   
@<TRIPOS>SET

