#    Name: 6q0j_2_AGS
#    Modification time : Fri May 22 19:27:17 2020

@<TRIPOS>MOLECULE
6q0j_2_AGS
   31    33     1     0     0
SMALL
NO_CHARGES


@<TRIPOS>ATOM
      1 PG        136.9780  181.2950  132.1060 P.3       1 AGS403      0.0000 
      2 S1G       137.6360  180.0250  133.6090 S.2       1 AGS403      0.0000 
      3 O2G       136.0860  180.4650  131.0550 O.3       1 AGS403      0.0000 
      4 O3G       138.1450  181.8800  131.4090 O.3       1 AGS403      0.0000 
      5 PB        134.9060  183.1620  131.9050 P.3       1 AGS403      0.0000 
      6 O1B       135.0870  184.6600  131.9670 O.co2     1 AGS403      0.0000 
      7 O2B       134.8160  182.4680  130.5670 O.co2     1 AGS403      0.0000 
      8 O3B       136.0920  182.4750  132.7500 O.3       1 AGS403      0.0000 
      9 PA        132.3380  183.7810  132.8220 P.3       1 AGS403      0.0000 
     10 O1A       132.8480  185.1620  133.1580 O.co2     1 AGS403      0.0000 
     11 O2A       131.2690  183.1440  133.6760 O.co2     1 AGS403      0.0000 
     12 O3A       133.5960  182.7790  132.7600 O.3       1 AGS403      0.0000 
     13 O5'       131.8220  183.7960  131.2970 O.3       1 AGS403      0.0000 
     14 C5'       131.0480  182.7150  130.7810 C.3       1 AGS403      0.0000 
     15 C4'       129.8600  183.2430  129.9830 C.3       1 AGS403      0.0000 
     16 O4'       128.6700  183.1660  130.7750 O.3       1 AGS403      0.0000 
     17 C3'       130.0470  184.6950  129.5650 C.3       1 AGS403      0.0000 
     18 O3'       130.1650  184.7760  128.1380 O.3       1 AGS403      0.0000 
     19 C2'       128.8360  185.4480  130.1000 C.3       1 AGS403      0.0000 
     20 O2'       128.0910  186.1080  129.0680 O.3       1 AGS403      0.0000 
     21 C1'       127.9610  184.4080  130.7830 C.3       1 AGS403      0.0000 
     22 N9        127.6800  184.8230  132.1800 N.pl3     1 AGS403      0.0000 
     23 C8        128.3880  184.4640  133.2670 C.2       1 AGS403      0.0000 
     24 N7        127.8690  185.0140  134.3950 N.2       1 AGS403      0.0000 
     25 C5        126.8000  185.7460  134.0310 C.ar      1 AGS403      0.0000 
     26 C6        125.7950  186.5880  134.7240 C.ar      1 AGS403      0.0000 
     27 N6        125.8330  186.7610  136.0670 N.pl3     1 AGS403      0.0000 
     28 N1        124.8410  187.1780  133.9700 N.ar      1 AGS403      0.0000 
     29 C2        124.7930  187.0140  132.6350 C.ar      1 AGS403      0.0000 
     30 N3        125.6700  186.2660  131.9420 N.ar      1 AGS403      0.0000 
     31 C4        126.6790  185.6170  132.5710 C.ar      1 AGS403      0.0000 
@<TRIPOS>BOND
     1    1    2 2    
     2    1    3 1    
     3    1    4 1    
     4    1    8 1    
     5    5    6 ar   
     6    5    7 ar   
     7    5    8 1    
     8    5   12 1    
     9    9   10 ar   
    10    9   11 ar   
    11    9   12 1    
    12    9   13 1    
    13   13   14 1    
    14   14   15 1    
    15   15   16 1    
    16   15   17 1    
    17   16   21 1    
    18   17   18 1    
    19   17   19 1    
    20   19   20 1    
    21   19   21 1    
    22   21   22 1    
    23   22   23 1    
    24   22   31 1    
    25   23   24 2    
    26   24   25 1    
    27   25   26 ar   
    28   25   31 ar   
    29   26   27 1    
    30   26   28 ar   
    31   28   29 ar   
    32   29   30 ar   
    33   30   31 ar   
@<TRIPOS>SUBSTRUCTURE
     1 AGS403      1 GROUP   
@<TRIPOS>SET

