#    Name: 6q0j_1_AGS
#    Modification time : Fri May 22 19:27:10 2020

@<TRIPOS>MOLECULE
6q0j_1_AGS
   31    33     1     0     0
SMALL
NO_CHARGES


@<TRIPOS>ATOM
      1 PG        147.1300  101.7880  133.0150 P.3       1 AGS403      0.0000 
      2 S1G       145.4760  102.0440  133.9840 S.2       1 AGS403      0.0000 
      3 O2G       148.2700  102.8750  133.5630 O.3       1 AGS403      0.0000 
      4 O3G       146.8600  102.0410  131.4030 O.3       1 AGS403      0.0000 
      5 PB        149.2150   99.6770  132.8530 P.3       1 AGS403      0.0000 
      6 O1B       149.2020   98.1680  132.6310 O.co2     1 AGS403      0.0000 
      7 O2B       149.6780  100.3650  131.6020 O.co2     1 AGS403      0.0000 
      8 O3B       147.7000  100.1940  133.2470 O.3       1 AGS403      0.0000 
      9 PA        151.5150   99.1040  134.3930 P.3       1 AGS403      0.0000 
     10 O1A       151.0670   97.7300  134.7550 O.co2     1 AGS403      0.0000 
     11 O2A       152.2740   99.7160  135.5550 O.co2     1 AGS403      0.0000 
     12 O3A       150.2280  100.0220  134.0460 O.3       1 AGS403      0.0000 
     13 O5'       152.5010   99.0290  133.0590 O.3       1 AGS403      0.0000 
     14 C5'       152.8220  100.2490  132.3720 C.3       1 AGS403      0.0000 
     15 C4'       154.1640  100.0500  131.5330 C.3       1 AGS403      0.0000 
     16 O4'       155.3960  100.0300  132.4680 O.3       1 AGS403      0.0000 
     17 C3'       154.1540   98.9200  130.9370 C.3       1 AGS403      0.0000 
     18 O3'       154.6950   99.0670  129.6150 O.3       1 AGS403      0.0000 
     19 C2'       155.1210   97.9020  131.8290 C.3       1 AGS403      0.0000 
     20 O2'       155.6600   96.8060  130.9670 O.3       1 AGS403      0.0000 
     21 C1'       156.0590   98.6260  132.2470 C.3       1 AGS403      0.0000 
     22 N9        156.5860   98.0840  133.5350 N.pl3     1 AGS403      0.0000 
     23 C8        155.8570   98.2110  134.6330 C.2       1 AGS403      0.0000 
     24 N7        156.5450   97.6470  135.6470 N.2       1 AGS403      0.0000 
     25 C5        157.6950   97.1780  135.1570 C.ar      1 AGS403      0.0000 
     26 C6        158.7490   96.5230  135.7490 C.ar      1 AGS403      0.0000 
     27 N6        158.8280   96.1790  137.1550 N.pl3     1 AGS403      0.0000 
     28 N1        159.8020   96.1540  135.0160 N.ar      1 AGS403      0.0000 
     29 C2        159.8340   96.4220  133.7020 C.ar      1 AGS403      0.0000 
     30 N3        158.7900   97.0720  133.1120 N.ar      1 AGS403      0.0000 
     31 C4        157.7280   97.4440  133.8500 C.ar      1 AGS403      0.0000 
@<TRIPOS>BOND
     1    1    2 2    
     2    1    3 1    
     3    1    4 1    
     4    1    8 1    
     5    5    6 ar   
     6    5    7 ar   
     7    5    8 1    
     8    5   12 1    
     9    9   10 ar   
    10    9   11 ar   
    11    9   12 1    
    12    9   13 1    
    13   13   14 1    
    14   14   15 1    
    15   15   16 1    
    16   15   17 1    
    17   16   21 1    
    18   17   18 1    
    19   17   19 1    
    20   19   20 1    
    21   19   21 1    
    22   21   22 1    
    23   22   23 1    
    24   22   31 1    
    25   23   24 2    
    26   24   25 1    
    27   25   26 ar   
    28   25   31 ar   
    29   26   27 1    
    30   26   28 ar   
    31   28   29 ar   
    32   29   30 ar   
    33   30   31 ar   
@<TRIPOS>SUBSTRUCTURE
     1 AGS403      1 GROUP   
@<TRIPOS>SET

