#    Name: 6a3i_2_4PW_CAVITY_N1_6
#    Modification time : Fri May 22 19:30:03 2020

@<TRIPOS>MOLECULE
6a3i_2_4PW_CAVITY_N1_6
   71     0     7     0     0
SMALL
NO_CHARGES


@<TRIPOS>ATOM
      1 OG         31.0500    7.9500  -40.6800 O.3       1 SER1        0.0000 
      2 OG         31.6300    9.7500  -39.7100 O.3       1 SER1        0.0000 
      3 OG         31.8100    8.2900  -39.4300 O.3       1 SER1        0.0000 
      4 OG         32.7300   11.2200  -40.7800 O.3       1 SER1        0.0000 
      5 OG         32.4000   10.0800  -38.4700 O.3       1 SER1        0.0000 
      6 OG         32.5800    8.6200  -38.1900 O.3       1 SER1        0.0000 
      7 OG         33.6800   10.0900  -39.2500 O.3       1 SER1        0.0000 
      8 OG         33.3500    8.9500  -36.9400 O.3       1 SER1        0.0000 
      9 OG         33.5300    7.4900  -36.6600 O.3       1 SER1        0.0000 
     10 O          34.3900    4.2300  -38.1300 O.2       2 ALA2        0.0000 
     11 N          34.6200    8.9500  -37.7300 N.am      2 ALA2        0.0000 
     12 O          35.1600    4.5700  -36.8900 O.2       2 ALA2        0.0000 
     13 OD1        33.7800    6.5000  -41.9700 O.co2     3 ASP3        0.0000 
     14 OD1        33.9600    5.0400  -41.6900 O.co2     3 ASP3        0.0000 
     15 OD1        34.1400    3.5800  -41.4100 O.co2     3 ASP3        0.0000 
     16 OD1        34.3100    2.1100  -41.1300 O.co2     3 ASP3        0.0000 
     17 OD1        35.5900    2.1200  -41.9200 O.co2     3 ASP3        0.0000 
     18 OD1        33.2700    6.8300  -39.9400 O.co2     3 ASP3        0.0000 
     19 OD1        34.3700    8.3000  -41.0100 O.co2     3 ASP3        0.0000 
     20 OD1        34.5500    6.8300  -40.7300 O.co2     3 ASP3        0.0000 
     21 OD1        34.7200    5.3700  -40.4500 O.co2     3 ASP3        0.0000 
     22 OD1        34.9000    3.9100  -40.1700 O.co2     3 ASP3        0.0000 
     23 OD1        35.0800    2.4400  -39.8900 O.co2     3 ASP3        0.0000 
     24 OD1        33.8600    8.6200  -38.9700 O.co2     3 ASP3        0.0000 
     25 OD1        35.1300    8.6300  -39.7600 O.co2     3 ASP3        0.0000 
     26 OD1        35.3100    7.1700  -39.4800 O.co2     3 ASP3        0.0000 
     27 OD1        35.4900    5.7000  -39.2000 O.co2     3 ASP3        0.0000 
     28 OD1        35.6700    4.2400  -38.9200 O.co2     3 ASP3        0.0000 
     29 NZ         34.9800    6.0300  -37.1700 N.4       4 LYS4        0.0000 
     30 NZ         36.4400    4.5700  -37.6800 N.4       4 LYS4        0.0000 
     31 CZ         29.0000    7.6200  -41.1400 C.ar      5 PHE5        0.0000 
     32 CZ         29.7700    7.9500  -39.8900 C.ar      5 PHE5        0.0000 
     33 CZ         33.9800    0.9800  -38.8200 C.ar      5 PHE5        0.0000 
     34 CZ         35.2600    0.9800  -39.6100 C.ar      5 PHE5        0.0000 
     35 CZ         36.5400    0.9900  -40.3900 C.ar      5 PHE5        0.0000 
     36 CZ         34.5700    2.7700  -37.8500 C.ar      5 PHE5        0.0000 
     37 CZ         35.8500    2.7800  -38.6400 C.ar      5 PHE5        0.0000 
     38 CA         31.1500    4.3700  -43.4000 C.3       6 GLY6        0.0000 
     39 CA         31.3200    2.9100  -43.1200 C.3       6 GLY6        0.0000 
     40 CA         30.2800    7.6200  -41.9200 C.3       6 GLY6        0.0000 
     41 CA         30.4600    6.1600  -41.6400 C.3       6 GLY6        0.0000 
     42 CA         31.7300    6.1600  -42.4300 C.3       6 GLY6        0.0000 
     43 CA         31.9100    4.7000  -42.1500 C.3       6 GLY6        0.0000 
     44 CA         32.0900    3.2400  -41.8700 C.3       6 GLY6        0.0000 
     45 CA         32.2700    1.7800  -41.5900 C.3       6 GLY6        0.0000 
     46 CA         33.0100    6.1700  -43.2200 C.3       6 GLY6        0.0000 
     47 CA         33.1900    4.7100  -42.9400 C.3       6 GLY6        0.0000 
     48 CA         31.2200    6.4900  -40.4000 C.3       6 GLY6        0.0000 
     49 CA         31.4000    5.0300  -40.1200 C.3       6 GLY6        0.0000 
     50 CA         31.5800    3.5600  -39.8400 C.3       6 GLY6        0.0000 
     51 CA         32.5000    6.5000  -41.1800 C.3       6 GLY6        0.0000 
     52 CA         32.8600    3.5700  -40.6200 C.3       6 GLY6        0.0000 
     53 CA         33.0400    2.1100  -40.3400 C.3       6 GLY6        0.0000 
     54 CA         33.2200    0.6400  -40.0600 C.3       6 GLY6        0.0000 
     55 CA         30.5400    8.2800  -38.6400 C.3       6 GLY6        0.0000 
     56 CA         31.9900    6.8200  -39.1500 C.3       6 GLY6        0.0000 
     57 CA         32.1700    5.3600  -38.8700 C.3       6 GLY6        0.0000 
     58 CA         32.9100    9.7500  -40.5000 C.3       6 GLY6        0.0000 
     59 CA         33.0900    8.2900  -40.2200 C.3       6 GLY6        0.0000 
     60 CA         33.6300    3.9000  -39.3800 C.3       6 GLY6        0.0000 
     61 CA         33.8000    2.4400  -39.1000 C.3       6 GLY6        0.0000 
     62 CA         31.4800    7.1500  -37.1200 C.3       6 GLY6        0.0000 
     63 CA         32.9400    5.6900  -37.6300 C.3       6 GLY6        0.0000 
     64 CA         33.1200    4.2300  -37.3500 C.3       6 GLY6        0.0000 
     65 CA         34.8000    7.4900  -37.4500 C.3       6 GLY6        0.0000 
     66 DU         33.3700    3.2400  -42.6600 H         7 CUB7        0.0000 
     67 DU         32.6800    5.0300  -40.9000 H         7 CUB7        0.0000 
     68 DU         33.4500    5.3700  -39.6600 H         7 CUB7        0.0000 
     69 DU         32.7600    7.1500  -37.9100 H         7 CUB7        0.0000 
     70 DU         34.0400    7.1600  -38.6900 H         7 CUB7        0.0000 
     71 DU         34.2100    5.7000  -38.4100 H         7 CUB7        0.0000 
@<TRIPOS>BOND
@<TRIPOS>SUBSTRUCTURE
     1 SER1        1 GROUP   
     2 ALA2       10 GROUP   
     3 ASP3       13 GROUP   
     4 LYS4       29 GROUP   
     5 PHE5       31 GROUP   
     6 GLY6       38 GROUP   
     7 CUB7       66 GROUP   
@<TRIPOS>SET

