#    Name: 6a3i_2_4PW
#    Modification time : Fri May 22 19:30:02 2020

@<TRIPOS>MOLECULE
6a3i_2_4PW
   11    12     1     0     0
SMALL
NO_CHARGES


@<TRIPOS>ATOM
      1 O3         34.3840   10.1690  -38.9600           1 4PW401      0.0000 
      2 C3         33.8490    8.8100  -38.8140           1 4PW401      0.0000 
      3 C2         32.9720    8.6550  -37.5610           1 4PW401      0.0000 
      4 O1         31.7500    9.4320  -37.7200           1 4PW401      0.0000 
      5 C4         34.9550    7.7630  -38.7110           1 4PW401      0.0000 
      6 O4         35.7530    7.8690  -39.8570           1 4PW401      0.0000 
      7 C5         34.3510    6.3040  -38.6090           1 4PW401      0.0000 
      8 O5         32.9230    6.3550  -38.5270           1 4PW401      0.0000 
      9 C6         34.5960    5.6950  -37.2690           1 4PW401      0.0000 
     10 O6         33.7250    6.5180  -36.4350           1 4PW401      0.0000 
     11 C1         32.7140    7.1230  -37.3260           1 4PW401      0.0000 
@<TRIPOS>BOND
     1    1    2 du   
     2    2    3 du   
     3    2    5 du   
     4    3    4 du   
     5    3   11 du   
     6    5    6 du   
     7    5    7 du   
     8    7    8 du   
     9    7    9 du   
    10    8   11 du   
    11    9   10 du   
    12   10   11 du   
@<TRIPOS>SUBSTRUCTURE
     1 4PW401      1 GROUP   
@<TRIPOS>SET

