#    Name: 6cp3_4_ADP
#    Modification time : Fri May 22 19:35:14 2020

@<TRIPOS>MOLECULE
6cp3_4_ADP
   27    29     1     0     1
SMALL
NO_CHARGES


@<TRIPOS>ATOM
      1 PB        -17.4090  -32.2300   48.1570 P.3       1 ADP600      0.0000 
      2 O1B       -16.2860  -33.1850   48.4030 O.co2     1 ADP600      0.0000 
      3 O2B       -18.6960  -32.7510   48.7060 O.co2     1 ADP600      0.0000 
      4 O3B       -17.1470  -30.7780   48.4440 O.co2     1 ADP600      0.0000 
      5 PA        -17.8700  -33.7160   45.8700 P.3       1 ADP600      0.0000 
      6 O1A       -16.5900  -34.4900   45.8350 O.co2     1 ADP600      0.0000 
      7 O2A       -19.1020  -34.3690   46.4200 O.co2     1 ADP600      0.0000 
      8 O3A       -17.6080  -32.3020   46.5730 O.3       1 ADP600      0.0000 
      9 O5'       -18.2250  -33.2720   44.3830 O.3       1 ADP600      0.0000 
     10 C5'       -18.9660  -34.1920   43.6050 C.3       1 ADP600      0.0000 
     11 C4'       -19.5640  -33.4700   42.4170 C.3       1 ADP600      0.0000 
     12 O4'       -18.5770  -33.3200   41.4030 O.3       1 ADP600      0.0000 
     13 C3'       -20.6600  -34.3290   41.8570 C.3       1 ADP600      0.0000 
     14 O3'       -21.7620  -33.4770   41.5690 O.3       1 ADP600      0.0000 
     15 C2'       -20.1050  -34.8870   40.5770 C.3       1 ADP600      0.0000 
     16 O2'       -21.0620  -34.7640   39.5310 O.3       1 ADP600      0.0000 
     17 C1'       -18.9120  -34.0400   40.2220 C.3       1 ADP600      0.0000 
     18 N9        -17.7460  -34.8830   39.8890 N.pl3     1 ADP600      0.0000 
     19 C8        -16.5380  -34.7010   40.4350 C.2       1 ADP600      0.0000 
     20 N7        -15.6370  -35.5910   39.9700 N.2       1 ADP600      0.0000 
     21 C5        -16.2760  -36.3680   39.0960 C.ar      1 ADP600      0.0000 
     22 C6        -15.9040  -37.5090   38.2520 C.ar      1 ADP600      0.0000 
     23 N6        -14.6420  -37.9770   38.2530 N.pl3     1 ADP600      0.0000 
     24 N1        -16.8420  -38.0580   37.4690 N.ar      1 ADP600      0.0000 
     25 C2        -18.0910  -37.5910   37.4650 C.ar      1 ADP600      0.0000 
     26 N3        -18.5020  -36.5550   38.2070 N.ar      1 ADP600      0.0000 
     27 C4        -17.6630  -35.9090   39.0430 C.ar      1 ADP600      0.0000 
@<TRIPOS>BOND
     1    1    2 ar   
     2    1    3 ar   
     3    1    4 ar   
     4    1    8 1    
     5    5    6 ar   
     6    5    7 ar   
     7    5    8 1    
     8    5    9 1    
     9    9   10 1    
    10   10   11 1    
    11   11   12 1    
    12   11   13 1    
    13   12   17 1    
    14   13   14 1    
    15   13   15 1    
    16   15   16 1    
    17   15   17 1    
    18   17   18 1    
    19   18   19 1    
    20   18   27 1    
    21   19   20 2    
    22   20   21 1    
    23   21   22 ar   
    24   21   27 ar   
    25   22   23 1    
    26   22   24 ar   
    27   24   25 ar   
    28   25   26 ar   
    29   26   27 ar   
@<TRIPOS>SUBSTRUCTURE
     1 ADP600      1 GROUP   
@<TRIPOS>SET
ATOM$ORANGE STATIC     ATOMS   COLORGROUP SYSTEM 
20 10 10 11 11 13 13 15 15 17 17 19 19 21 21 22 22 25 \
25 27 27 

