#    Name: 6cp3_3_ATP
#    Modification time : Fri May 22 19:35:03 2020

@<TRIPOS>MOLECULE
6cp3_3_ATP
   31    33     1     0     1
SMALL
NO_CHARGES


@<TRIPOS>ATOM
      1 PG        -36.1600  -12.2240   45.3380 P.3       1 ATP600      0.0000 
      2 O1G       -34.7780  -11.6410   45.4010 O.co2     1 ATP600      0.0000 
      3 O2G       -37.2660  -11.2540   45.6300 O.co2     1 ATP600      0.0000 
      4 O3G       -36.3260  -13.5680   45.9900 O.co2     1 ATP600      0.0000 
      5 PB        -37.4320  -13.6570   43.4350 P.3       1 ATP600      0.0000 
      6 O1B       -36.8080  -15.0260   43.4840 O.co2     1 ATP600      0.0000 
      7 O2B       -38.6470  -13.3660   44.2670 O.co2     1 ATP600      0.0000 
      8 O3B       -36.3450  -12.5440   43.7880 O.3       1 ATP600      0.0000 
      9 PA        -39.1920  -13.7370   41.3790 P.3       1 ATP600      0.0000 
     10 O1A       -39.3530  -15.2190   41.5780 O.co2     1 ATP600      0.0000 
     11 O2A       -40.1800  -12.7650   41.9570 O.co2     1 ATP600      0.0000 
     12 O3A       -37.7400  -13.3520   41.9040 O.3       1 ATP600      0.0000 
     13 O5'       -39.0150  -13.4040   39.8310 O.3       1 ATP600      0.0000 
     14 C5'       -38.3410  -12.1980   39.5160 C.3       1 ATP600      0.0000 
     15 C4'       -38.9300  -11.6700   38.2260 C.3       1 ATP600      0.0000 
     16 O4'       -38.4260  -12.4240   37.1320 O.3       1 ATP600      0.0000 
     17 C3'       -40.4250  -11.8530   38.2420 C.3       1 ATP600      0.0000 
     18 O3'       -41.0400  -10.5740   38.3310 O.3       1 ATP600      0.0000 
     19 C2'       -40.7670  -12.4700   36.9150 C.3       1 ATP600      0.0000 
     20 O2'       -41.5250  -11.5290   36.1640 O.3       1 ATP600      0.0000 
     21 C1'       -39.4600  -12.7160   36.2050 C.3       1 ATP600      0.0000 
     22 N9        -39.4260  -14.1450   35.8600 N.pl3     1 ATP600      0.0000 
     23 C8        -39.1150  -15.1300   36.7050 C.2       1 ATP600      0.0000 
     24 N7        -39.1820  -16.3320   36.0890 N.2       1 ATP600      0.0000 
     25 C5        -39.5530  -16.1130   34.8250 C.ar      1 ATP600      0.0000 
     26 C6        -39.8130  -16.9440   33.6400 C.ar      1 ATP600      0.0000 
     27 N6        -39.6900  -18.2860   33.6890 N.pl3     1 ATP600      0.0000 
     28 N1        -40.1850  -16.3270   32.5110 N.ar      1 ATP600      0.0000 
     29 C2        -40.3130  -14.9980   32.4630 C.ar      1 ATP600      0.0000 
     30 N3        -40.0930  -14.1790   33.4950 N.ar      1 ATP600      0.0000 
     31 C4        -39.7160  -14.6710   34.6830 C.ar      1 ATP600      0.0000 
@<TRIPOS>BOND
     1    1    2 ar   
     2    1    3 ar   
     3    1    4 ar   
     4    1    8 1    
     5    5    6 ar   
     6    5    7 ar   
     7    5    8 1    
     8    5   12 1    
     9    9   10 ar   
    10    9   11 ar   
    11    9   12 1    
    12    9   13 1    
    13   13   14 1    
    14   14   15 1    
    15   15   16 1    
    16   15   17 1    
    17   16   21 1    
    18   17   18 1    
    19   17   19 1    
    20   19   20 1    
    21   19   21 1    
    22   21   22 1    
    23   22   23 1    
    24   22   31 1    
    25   23   24 2    
    26   24   25 1    
    27   25   26 ar   
    28   25   31 ar   
    29   26   27 1    
    30   26   28 ar   
    31   28   29 ar   
    32   29   30 ar   
    33   30   31 ar   
@<TRIPOS>SUBSTRUCTURE
     1 ATP600      1 GROUP   
@<TRIPOS>SET
ATOM$ORANGE STATIC     ATOMS   COLORGROUP SYSTEM 
20 14 14 15 15 17 17 19 19 21 21 23 23 25 25 26 26 29 \
29 31 31 

