#    Name: 6cp3_2_ATP
#    Modification time : Fri May 22 19:34:51 2020

@<TRIPOS>MOLECULE
6cp3_2_ATP
   31    33     1     0     1
SMALL
NO_CHARGES


@<TRIPOS>ATOM
      1 PG         -3.0860   21.9840   48.6900 P.3       1 ATP600      0.0000 
      2 O1G        -4.1800   20.9640   48.5600 O.co2     1 ATP600      0.0000 
      3 O2G        -3.5470   23.3310   49.1720 O.co2     1 ATP600      0.0000 
      4 O3G        -1.8250   21.4800   49.3320 O.co2     1 ATP600      0.0000 
      5 PB         -3.8600   22.3540   46.1220 P.3       1 ATP600      0.0000 
      6 O1B        -4.1780   20.9860   45.6000 O.co2     1 ATP600      0.0000 
      7 O2B        -4.9590   23.1950   46.7100 O.co2     1 ATP600      0.0000 
      8 O3B        -2.6610   22.2170   47.1700 O.3       1 ATP600      0.0000 
      9 PA         -3.1890   24.7800   45.1760 P.3       1 ATP600      0.0000 
     10 O1A        -4.5140   25.3300   44.7300 O.co2     1 ATP600      0.0000 
     11 O2A        -2.6860   25.0130   46.5720 O.co2     1 ATP600      0.0000 
     12 O3A        -3.2020   23.2040   44.9480 O.3       1 ATP600      0.0000 
     13 O5'        -2.0590   25.2210   44.1470 O.3       1 ATP600      0.0000 
     14 C5'        -0.9830   24.3240   43.9990 C.3       1 ATP600      0.0000 
     15 C4'        -0.1670   24.7470   42.7990 C.3       1 ATP600      0.0000 
     16 O4'        -0.9980   25.0110   41.6730 O.3       1 ATP600      0.0000 
     17 C3'         0.5340   26.0420   43.0990 C.3       1 ATP600      0.0000 
     18 O3'         1.9310   25.7830   43.1460 O.3       1 ATP600      0.0000 
     19 C2'         0.2720   26.9300   41.9160 C.3       1 ATP600      0.0000 
     20 O2'         1.5240   27.3530   41.3890 O.3       1 ATP600      0.0000 
     21 C1'        -0.4040   26.0470   40.9010 C.3       1 ATP600      0.0000 
     22 N9         -1.4330   26.8270   40.1870 N.pl3     1 ATP600      0.0000 
     23 C8         -2.7460   26.5790   40.2140 C.2       1 ATP600      0.0000 
     24 N7         -3.4350   27.4590   39.4530 N.2       1 ATP600      0.0000 
     25 C5         -2.5440   28.2950   38.9190 C.ar      1 ATP600      0.0000 
     26 C6         -2.6020   29.4590   38.0260 C.ar      1 ATP600      0.0000 
     27 N6         -3.7730   29.9060   37.5370 N.pl3     1 ATP600      0.0000 
     28 N1         -1.4450   30.0520   37.7010 N.ar      1 ATP600      0.0000 
     29 C2         -0.2740   29.6130   38.1800 C.ar      1 ATP600      0.0000 
     30 N3         -0.1490   28.5610   38.9980 N.ar      1 ATP600      0.0000 
     31 C4         -1.2300   27.8730   39.3980 C.ar      1 ATP600      0.0000 
@<TRIPOS>BOND
     1    1    2 ar   
     2    1    3 ar   
     3    1    4 ar   
     4    1    8 1    
     5    5    6 ar   
     6    5    7 ar   
     7    5    8 1    
     8    5   12 1    
     9    9   10 ar   
    10    9   11 ar   
    11    9   12 1    
    12    9   13 1    
    13   13   14 1    
    14   14   15 1    
    15   15   16 1    
    16   15   17 1    
    17   16   21 1    
    18   17   18 1    
    19   17   19 1    
    20   19   20 1    
    21   19   21 1    
    22   21   22 1    
    23   22   23 1    
    24   22   31 1    
    25   23   24 2    
    26   24   25 1    
    27   25   26 ar   
    28   25   31 ar   
    29   26   27 1    
    30   26   28 ar   
    31   28   29 ar   
    32   29   30 ar   
    33   30   31 ar   
@<TRIPOS>SUBSTRUCTURE
     1 ATP600      1 GROUP   
@<TRIPOS>SET
ATOM$ORANGE STATIC     ATOMS   COLORGROUP SYSTEM 
20 14 14 15 15 17 17 19 19 21 21 23 23 25 25 26 26 29 \
29 31 31 

