#    Name: 6cp3_5_ADP
#    Modification time : Fri May 22 19:35:25 2020

@<TRIPOS>MOLECULE
6cp3_5_ADP
   27    29     1     0     1
SMALL
NO_CHARGES


@<TRIPOS>ATOM
      1 PB        -28.9440   13.8900   45.6280 P.3       1 ADP600      0.0000 
      2 O1B       -28.1800   12.6350   45.3440 O.co2     1 ADP600      0.0000 
      3 O2B       -30.3850   13.6600   45.9700 O.co2     1 ADP600      0.0000 
      4 O3B       -28.2710   14.8500   46.5630 O.co2     1 ADP600      0.0000 
      5 PA        -30.1030   14.6290   43.1680 P.3       1 ADP600      0.0000 
      6 O1A       -30.7450   13.2740   43.1750 O.co2     1 ADP600      0.0000 
      7 O2A       -30.9300   15.8640   43.3790 O.co2     1 ADP600      0.0000 
      8 O3A       -28.8920   14.6560   44.2200 O.3       1 ADP600      0.0000 
      9 O5'       -29.3540   14.8210   41.7720 O.3       1 ADP600      0.0000 
     10 C5'       -29.6160   15.9940   41.0110 C.3       1 ADP600      0.0000 
     11 C4'       -28.5250   16.1410   39.9620 C.3       1 ADP600      0.0000 
     12 O4'       -28.7700   15.2230   38.9100 O.3       1 ADP600      0.0000 
     13 C3'       -28.4770   17.5190   39.3420 C.3       1 ADP600      0.0000 
     14 O3'       -27.2230   18.1220   39.6400 O.3       1 ADP600      0.0000 
     15 C2'       -28.5410   17.3200   37.8550 C.3       1 ADP600      0.0000 
     16 O2'       -27.3400   17.7860   37.2540 O.3       1 ADP600      0.0000 
     17 C1'       -28.6090   15.8340   37.6420 C.3       1 ADP600      0.0000 
     18 N9        -29.8280   15.5140   36.8930 N.pl3     1 ADP600      0.0000 
     19 C8        -30.8930   14.8570   37.3720 C.2       1 ADP600      0.0000 
     20 N7        -31.8540   14.7120   36.4350 N.2       1 ADP600      0.0000 
     21 C5        -31.3850   15.2870   35.3310 C.ar      1 ADP600      0.0000 
     22 C6        -31.8800   15.5000   33.9740 C.ar      1 ADP600      0.0000 
     23 N6        -33.0920   15.0480   33.6160 N.pl3     1 ADP600      0.0000 
     24 N1        -31.0930   16.1460   33.1030 N.ar      1 ADP600      0.0000 
     25 C2        -29.8860   16.6000   33.4570 C.ar      1 ADP600      0.0000 
     26 N3        -29.3650   16.4370   34.6780 N.ar      1 ADP600      0.0000 
     27 C4        -30.0630   15.8180   35.6390 C.ar      1 ADP600      0.0000 
@<TRIPOS>BOND
     1    1    2 ar   
     2    1    3 ar   
     3    1    4 ar   
     4    1    8 1    
     5    5    6 ar   
     6    5    7 ar   
     7    5    8 1    
     8    5    9 1    
     9    9   10 1    
    10   10   11 1    
    11   11   12 1    
    12   11   13 1    
    13   12   17 1    
    14   13   14 1    
    15   13   15 1    
    16   15   16 1    
    17   15   17 1    
    18   17   18 1    
    19   18   19 1    
    20   18   27 1    
    21   19   20 2    
    22   20   21 1    
    23   21   22 ar   
    24   21   27 ar   
    25   22   23 1    
    26   22   24 ar   
    27   24   25 ar   
    28   25   26 ar   
    29   26   27 ar   
@<TRIPOS>SUBSTRUCTURE
     1 ADP600      1 GROUP   
@<TRIPOS>SET
ATOM$ORANGE STATIC     ATOMS   COLORGROUP SYSTEM 
20 10 10 11 11 13 13 15 15 17 17 19 19 21 21 22 22 25 \
25 27 27 

