#    Name: 6cp3_1_ATP
#    Modification time : Fri May 22 19:34:38 2020

@<TRIPOS>MOLECULE
6cp3_1_ATP
   31    33     1     0     1
SMALL
NO_CHARGES


@<TRIPOS>ATOM
      1 PG          7.6500  -25.6210   51.6620 P.3       1 ATP600      0.0000 
      2 O1G         6.4300  -24.7890   51.4020 O.co2     1 ATP600      0.0000 
      3 O2G         7.3790  -27.0430   52.0590 O.co2     1 ATP600      0.0000 
      4 O3G         8.7140  -24.9250   52.4680 O.co2     1 ATP600      0.0000 
      5 PB          9.8250  -26.0950   50.1040 P.3       1 ATP600      0.0000 
      6 O1B        10.6310  -24.8270   50.0270 O.co2     1 ATP600      0.0000 
      7 O2B        10.0850  -27.1040   51.1810 O.co2     1 ATP600      0.0000 
      8 O3B         8.2820  -25.7350   50.2030 O.3       1 ATP600      0.0000 
      9 PA         11.0190  -27.9720   48.5450 P.3       1 ATP600      0.0000 
     10 O1A        12.3470  -27.3560   48.8970 O.co2     1 ATP600      0.0000 
     11 O2A        10.5220  -29.1880   49.2720 O.co2     1 ATP600      0.0000 
     12 O3A         9.9100  -26.8310   48.6910 O.3       1 ATP600      0.0000 
     13 O5'        10.9250  -28.2830   46.9860 O.3       1 ATP600      0.0000 
     14 C5'         9.6020  -28.3320   46.4860 C.3       1 ATP600      0.0000 
     15 C4'         9.5160  -29.3510   45.3710 C.3       1 ATP600      0.0000 
     16 O4'        10.3100  -28.9220   44.2760 O.3       1 ATP600      0.0000 
     17 C3'        10.0450  -30.6810   45.8270 C.3       1 ATP600      0.0000 
     18 O3'         9.0650  -31.6520   45.4820 O.3       1 ATP600      0.0000 
     19 C2'        11.2810  -30.9420   45.0110 C.3       1 ATP600      0.0000 
     20 O2'        11.1740  -32.2450   44.4440 O.3       1 ATP600      0.0000 
     21 C1'        11.2590  -29.9100   43.9060 C.3       1 ATP600      0.0000 
     22 N9         12.5650  -29.2370   43.7840 N.pl3     1 ATP600      0.0000 
     23 C8         13.0630  -28.3550   44.6570 C.2       1 ATP600      0.0000 
     24 N7         14.2730  -27.9060   44.2580 N.2       1 ATP600      0.0000 
     25 C5         14.5590  -28.5020   43.1040 C.ar      1 ATP600      0.0000 
     26 C6         15.6750  -28.4650   42.1540 C.ar      1 ATP600      0.0000 
     27 N6         16.7530  -27.6900   42.3820 N.pl3     1 ATP600      0.0000 
     28 N1         15.5920  -29.2480   41.0690 N.ar      1 ATP600      0.0000 
     29 C2         14.5270  -30.0310   40.8540 C.ar      1 ATP600      0.0000 
     30 N3         13.4680  -30.1000   41.6680 N.ar      1 ATP600      0.0000 
     31 C4         13.4330  -29.3770   42.7950 C.ar      1 ATP600      0.0000 
@<TRIPOS>BOND
     1    1    2 ar   
     2    1    3 ar   
     3    1    4 ar   
     4    1    8 1    
     5    5    6 ar   
     6    5    7 ar   
     7    5    8 1    
     8    5   12 1    
     9    9   10 ar   
    10    9   11 ar   
    11    9   12 1    
    12    9   13 1    
    13   13   14 1    
    14   14   15 1    
    15   15   16 1    
    16   15   17 1    
    17   16   21 1    
    18   17   18 1    
    19   17   19 1    
    20   19   20 1    
    21   19   21 1    
    22   21   22 1    
    23   22   23 1    
    24   22   31 1    
    25   23   24 2    
    26   24   25 1    
    27   25   26 ar   
    28   25   31 ar   
    29   26   27 1    
    30   26   28 ar   
    31   28   29 ar   
    32   29   30 ar   
    33   30   31 ar   
@<TRIPOS>SUBSTRUCTURE
     1 ATP600      1 GROUP   
@<TRIPOS>SET
ATOM$ORANGE STATIC     ATOMS   COLORGROUP SYSTEM 
20 14 14 15 15 17 17 19 19 21 21 23 23 25 25 26 26 29 \
29 31 31 

