#    Name: 6p78_1_SAM_CAVITY_N1_4
#    Modification time : Fri May 22 19:27:00 2020

@<TRIPOS>MOLECULE
6p78_1_SAM_CAVITY_N1_4
   82     0     7     0     0
SMALL
NO_CHARGES


@<TRIPOS>ATOM
      1 OG         -0.2500   41.8300   67.1800 O.3       1 SER1        0.0000 
      2 OG          0.1800   40.4900   67.6900 O.3       1 SER1        0.0000 
      3 O           3.0400   39.2600   66.4500 O.2       2 ALA2        0.0000 
      4 O           3.8100   39.9300   67.5500 O.2       2 ALA2        0.0000 
      5 O           5.0200   39.9800   66.6700 O.2       2 ALA2        0.0000 
      6 N           3.2700   44.6200   67.1000 N.am      2 ALA2        0.0000 
      7 N           5.7900   40.6600   67.7700 N.am      2 ALA2        0.0000 
      8 N           4.0400   45.2900   68.2000 N.am      2 ALA2        0.0000 
      9 N           4.9100   42.6200   69.2300 N.am      2 ALA2        0.0000 
     10 N           4.8200   46.6900   66.8000 N.am      2 ALA2        0.0000 
     11 N           5.2500   45.3500   67.3200 N.am      2 ALA2        0.0000 
     12 N           6.1200   42.6700   68.3500 N.am      2 ALA2        0.0000 
     13 N           5.6000   48.0800   65.4000 N.am      2 ALA2        0.0000 
     14 N           6.8100   48.1400   64.5200 N.am      2 ALA2        0.0000 
     15 N           4.8100   45.9700   69.3000 N.am      2 ALA2        0.0000 
     16 N           5.6700   43.2900   70.3300 N.am      2 ALA2        0.0000 
     17 N           5.5900   47.3600   67.9000 N.am      2 ALA2        0.0000 
     18 N           6.8900   43.3400   69.4500 N.am      2 ALA2        0.0000 
     19 N           6.3600   48.7500   66.5000 N.am      2 ALA2        0.0000 
     20 O          10.1000   44.8500   66.3000 O.2       2 ALA2        0.0000 
     21 O          10.5300   43.5100   66.8100 O.2       2 ALA2        0.0000 
     22 O           6.7900   46.7000   69.5200 O.2       2 ALA2        0.0000 
     23 O           7.2200   45.3600   70.0400 O.2       2 ALA2        0.0000 
     24 N           8.0000   46.7500   68.6400 N.am      2 ALA2        0.0000 
     25 N           8.4300   45.4100   69.1600 N.am      2 ALA2        0.0000 
     26 N           8.3500   49.4800   66.7200 N.am      2 ALA2        0.0000 
     27 N           8.7800   48.1400   67.2400 N.am      2 ALA2        0.0000 
     28 N           9.2100   46.8000   67.7600 N.am      2 ALA2        0.0000 
     29 N           9.6500   45.4600   68.2800 N.am      2 ALA2        0.0000 
     30 O          10.8600   45.5200   67.4000 O.2       2 ALA2        0.0000 
     31 OD1         6.0300   46.7400   65.9200 O.co2     3 ASP3        0.0000 
     32 OD1         6.4700   45.4000   66.4400 O.co2     3 ASP3        0.0000 
     33 OD1         7.6800   45.4600   65.5600 O.co2     3 ASP3        0.0000 
     34 OD1         8.0100   47.4700   66.1400 O.co2     3 ASP3        0.0000 
     35 NZ          4.1600   42.6600   65.6400 N.4       4 LYS4        0.0000 
     36 NZ          4.5900   41.3200   66.1500 N.4       4 LYS4        0.0000 
     37 NZ          5.8000   41.3800   65.2800 N.4       4 LYS4        0.0000 
     38 NZ          4.9200   43.3400   66.7400 N.4       4 LYS4        0.0000 
     39 NZ          5.7000   44.7300   65.3400 N.4       4 LYS4        0.0000 
     40 NZ          6.1400   43.3900   65.8600 N.4       4 LYS4        0.0000 
     41 NZ          6.5700   42.0500   66.3700 N.4       4 LYS4        0.0000 
     42 NZ          8.1000   43.4000   68.5700 N.4       4 LYS4        0.0000 
     43 CZ         -0.5900   39.8100   66.5900 C.ar      5 PHE5        0.0000 
     44 CZ          1.7300   42.5500   67.4000 C.ar      5 PHE5        0.0000 
     45 CZ          2.1600   41.2200   67.9100 C.ar      5 PHE5        0.0000 
     46 CZ          2.9400   42.6100   66.5200 C.ar      5 PHE5        0.0000 
     47 CZ          3.3800   41.2700   67.0300 C.ar      5 PHE5        0.0000 
     48 CZ          3.7100   43.2800   67.6200 C.ar      5 PHE5        0.0000 
     49 CZ          4.1400   41.9400   68.1300 C.ar      5 PHE5        0.0000 
     50 CZ          4.4900   44.6800   66.2200 C.ar      5 PHE5        0.0000 
     51 CZ          4.4700   43.9600   68.7200 C.ar      5 PHE5        0.0000 
     52 CZ          7.5800   48.8100   65.6200 C.ar      5 PHE5        0.0000 
     53 CZ          9.2300   47.5200   65.2600 C.ar      5 PHE5        0.0000 
     54 CA          0.6300   39.8700   65.7100 C.3       6 GLY6        0.0000 
     55 CA          1.0600   38.5300   66.2300 C.3       6 GLY6        0.0000 
     56 CA          0.9600   41.8800   66.3000 C.3       6 GLY6        0.0000 
     57 CA          1.4000   40.5400   66.8100 C.3       6 GLY6        0.0000 
     58 CA          1.8300   39.2000   67.3300 C.3       6 GLY6        0.0000 
     59 CA          2.6100   40.6000   65.9300 C.3       6 GLY6        0.0000 
     60 CA          3.8200   40.6500   65.0500 C.3       6 GLY6        0.0000 
     61 CA          6.2400   40.0400   65.7900 C.3       6 GLY6        0.0000 
     62 CA          7.0000   40.7100   66.8900 C.3       6 GLY6        0.0000 
     63 CA          7.7800   42.1100   65.5000 C.3       6 GLY6        0.0000 
     64 CA          7.3400   42.7200   67.4700 C.3       6 GLY6        0.0000 
     65 CA          8.1200   44.1200   66.0800 C.3       6 GLY6        0.0000 
     66 CA          8.5500   42.7800   66.5900 C.3       6 GLY6        0.0000 
     67 CA          9.3200   43.4500   67.6900 C.3       6 GLY6        0.0000 
     68 CA          9.6600   46.1800   65.7800 C.3       6 GLY6        0.0000 
     69 CA          5.5700   46.6400   70.4000 C.3       6 GLY6        0.0000 
     70 CA          6.0100   45.3000   70.9100 C.3       6 GLY6        0.0000 
     71 CA          7.5700   48.0900   68.1200 C.3       6 GLY6        0.0000 
     72 CA          9.9900   48.2000   66.3600 C.3       6 GLY6        0.0000 
     73 DU          5.3600   42.0000   67.2500 H         7 CUB7        0.0000 
     74 DU          5.6900   44.0100   67.8400 H         7 CUB7        0.0000 
     75 DU          6.9000   44.0600   66.9600 H         7 CUB7        0.0000 
     76 DU          6.0200   46.0200   68.4200 H         7 CUB7        0.0000 
     77 DU          6.4500   44.6800   68.9400 H         7 CUB7        0.0000 
     78 DU          6.8000   47.4200   67.0200 H         7 CUB7        0.0000 
     79 DU          7.2300   46.0800   67.5400 H         7 CUB7        0.0000 
     80 DU          7.6700   44.7400   68.0600 H         7 CUB7        0.0000 
     81 DU          8.4500   46.1300   66.6600 H         7 CUB7        0.0000 
     82 DU          8.8800   44.7900   67.1800 H         7 CUB7        0.0000 
@<TRIPOS>BOND
@<TRIPOS>SUBSTRUCTURE
     1 SER1        1 GROUP   
     2 ALA2        3 GROUP   
     3 ASP3       31 GROUP   
     4 LYS4       35 GROUP   
     5 PHE5       43 GROUP   
     6 GLY6       54 GROUP   
     7 CUB7       73 GROUP   
@<TRIPOS>SET

