#    Name: 6p78_1_SAM
#    Modification time : Fri May 22 19:26:58 2020

@<TRIPOS>MOLECULE
6p78_1_SAM
   27    29     1     0     0
SMALL
NO_CHARGES


@<TRIPOS>ATOM
      1 N           9.2360   47.0820   67.5990 N.4       1 SAM503      0.0000 
      2 CA          9.9800   45.9790   67.0150 C.3       1 SAM503      0.0000 
      3 C           9.5610   45.7860   65.5640 C.2       1 SAM503      0.0000 
      4 O          10.3820   45.4000   64.7280 O.co2     1 SAM503      0.0000 
      5 OXT         8.4090   46.0550   65.1950 O.co2     1 SAM503      0.0000 
      6 CB          9.7660   44.7160   67.8450 C.3       1 SAM503      0.0000 
      7 CG          8.5680   43.8280   67.4990 C.3       1 SAM503      0.0000 
      8 SD          6.9800   44.2740   68.2590 S.3       1 SAM503      0.0000 
      9 CE          7.5010   44.8810   69.8900 C.3       1 SAM503      0.0000 
     10 C5'         6.2060   42.6880   68.7280 C.3       1 SAM503      0.0000 
     11 C4'         5.6610   41.7090   67.6630 C.3       1 SAM503      0.0000 
     12 O4'         4.3950   41.1830   68.0440 O.3       1 SAM503      0.0000 
     13 C3'         5.4340   42.2730   66.2630 C.3       1 SAM503      0.0000 
     14 O3'         6.6250   42.2990   65.4970 O.3       1 SAM503      0.0000 
     15 C2'         4.4070   41.3070   65.6890 C.3       1 SAM503      0.0000 
     16 O2'         5.0690   40.2090   65.0490 O.3       1 SAM503      0.0000 
     17 C1'         3.6500   40.7900   66.9120 C.3       1 SAM503      0.0000 
     18 N9          2.2490   41.3030   66.9730 N.pl3     1 SAM503      0.0000 
     19 C8          1.8040   42.5990   67.1350 C.2       1 SAM503      0.0000 
     20 N7          0.4520   42.6130   67.1190 N.2       1 SAM503      0.0000 
     21 C5          0.0200   41.3380   66.9510 C.ar      1 SAM503      0.0000 
     22 C6         -1.2440   40.7670   66.8460 C.ar      1 SAM503      0.0000 
     23 N6         -2.3410   41.5110   66.9300 N.pl3     1 SAM503      0.0000 
     24 N1         -1.3580   39.4110   66.6670 N.ar      1 SAM503      0.0000 
     25 C2         -0.2380   38.6180   66.5620 C.ar      1 SAM503      0.0000 
     26 N3          1.0060   39.1710   66.6630 N.ar      1 SAM503      0.0000 
     27 C4          1.1380   40.5150   66.8630 C.ar      1 SAM503      0.0000 
@<TRIPOS>BOND
     1    1    2 1    
     2    2    3 1    
     3    2    6 1    
     4    3    4 ar   
     5    3    5 ar   
     6    6    7 1    
     7    7    8 1    
     8    8    9 1    
     9    8   10 1    
    10   10   11 1    
    11   11   12 1    
    12   11   13 1    
    13   12   17 1    
    14   13   14 1    
    15   13   15 1    
    16   15   16 1    
    17   15   17 1    
    18   17   18 1    
    19   18   19 1    
    20   18   27 1    
    21   19   20 2    
    22   20   21 1    
    23   21   22 ar   
    24   21   27 ar   
    25   22   23 1    
    26   22   24 ar   
    27   24   25 ar   
    28   25   26 ar   
    29   26   27 ar   
@<TRIPOS>SUBSTRUCTURE
     1 SAM503      1 GROUP   
@<TRIPOS>SET

