#    Name: 6b1d_2_QUE
#    Modification time : Fri May 22 19:32:13 2020

@<TRIPOS>MOLECULE
6b1d_2_QUE
   22    24     1     0     0
SMALL
NO_CHARGES


@<TRIPOS>ATOM
      1 C1         22.2830   20.5270    1.9130 C.ar      1 QUE1001     0.0000 
      2 C2         23.5010   20.1620    2.4830 C.ar      1 QUE1001     0.0000 
      3 C3         23.6960   20.3530    3.9430 C.ar      1 QUE1001     0.0000 
      4 C4         22.5760   20.9300    4.7250 C.ar      1 QUE1001     0.0000 
      5 C5         21.3960   21.2610    4.0700 C.ar      1 QUE1001     0.0000 
      6 C6         21.2580   21.0630    2.6980 C.ar      1 QUE1001     0.0000 
      7 C9         24.9510   20.0010    4.6510 C.2       1 QUE1001     0.0000 
      8 C10        25.0260   20.2420    6.1270 C.2       1 QUE1001     0.0000 
      9 C11        23.8170   20.8240    6.8190 C.2       1 QUE1001     0.0000 
     10 C14        23.7230   21.1470    8.2810 C.ar      1 QUE1001     0.0000 
     11 C15        23.0410   22.3270    8.6280 C.ar      1 QUE1001     0.0000 
     12 C16        22.8840   22.7410    9.9500 C.ar      1 QUE1001     0.0000 
     13 C17        23.4060   21.9770   10.9810 C.ar      1 QUE1001     0.0000 
     14 C18        24.1250   20.7250   10.6290 C.ar      1 QUE1001     0.0000 
     15 C19        24.2630   20.3430    9.2890 C.ar      1 QUE1001     0.0000 
     16 O12        22.6920   21.1320    6.0770 O.3       1 QUE1001     0.0000 
     17 O13        25.9100   19.5240    4.0140 O.2       1 QUE1001     0.0000 
     18 O23        24.6370   19.9680   11.6280 O.3       1 QUE1001     0.0000 
     19 O24        23.2630   22.3630   12.2830 O.3       1 QUE1001     0.0000 
     20 O27        26.1730   19.9220    6.7920 O.co2     1 QUE1001     0.0000 
     21 O29        20.0830   21.4130    2.1220 O.3       1 QUE1001     0.0000 
     22 O30        24.4940   19.6450    1.7180 O.co2     1 QUE1001     0.0000 
@<TRIPOS>BOND
     1    1    2 ar   
     2    1    6 ar   
     3    2    3 ar   
     4    2   22 ar   
     5    3    4 ar   
     6    3    7 1    
     7    4    5 ar   
     8    4   16 1    
     9    5    6 ar   
    10    6   21 1    
    11    7    8 1    
    12    7   17 2    
    13    8    9 2    
    14    8   20 ar   
    15    9   10 1    
    16    9   16 1    
    17   10   11 ar   
    18   10   15 ar   
    19   11   12 ar   
    20   12   13 ar   
    21   13   14 ar   
    22   13   19 1    
    23   14   15 ar   
    24   14   18 1    
@<TRIPOS>SUBSTRUCTURE
     1 QUE1001     1 GROUP   
@<TRIPOS>SET

