#    Name: 6b1d_1_QUE
#    Modification time : Fri May 22 19:32:11 2020

@<TRIPOS>MOLECULE
6b1d_1_QUE
   22    24     1     0     0
SMALL
NO_CHARGES


@<TRIPOS>ATOM
      1 C1         41.7930   15.3730  -18.3540 C.ar      1 QUE1001     0.0000 
      2 C2         40.6220   14.7730  -18.8340 C.ar      1 QUE1001     0.0000 
      3 C3         40.4960   14.4920  -20.2920 C.ar      1 QUE1001     0.0000 
      4 C4         41.6420   14.8830  -21.1580 C.ar      1 QUE1001     0.0000 
      5 C5         42.7710   15.4760  -20.5930 C.ar      1 QUE1001     0.0000 
      6 C6         42.8490   15.7170  -19.2170 C.ar      1 QUE1001     0.0000 
      7 C9         39.2960   13.8540  -20.9240 C.2       1 QUE1001     0.0000 
      8 C10        39.3150   13.6400  -22.4030 C.2       1 QUE1001     0.0000 
      9 C11        40.5340   14.0770  -23.1750 C.2       1 QUE1001     0.0000 
     10 C14        40.6980   13.9150  -24.6570 C.ar      1 QUE1001     0.0000 
     11 C15        41.5660   14.7870  -25.3380 C.ar      1 QUE1001     0.0000 
     12 C16        41.7730   14.6770  -26.7110 C.ar      1 QUE1001     0.0000 
     13 C17        41.1260   13.6780  -27.4390 C.ar      1 QUE1001     0.0000 
     14 C18        40.2170   12.7430  -26.7220 C.ar      1 QUE1001     0.0000 
     15 C19        40.0430   12.8950  -25.3550 C.ar      1 QUE1001     0.0000 
     16 O12        41.5990   14.6560  -22.5090 O.3       1 QUE1001     0.0000 
     17 O13        38.3000   13.5090  -20.2420 O.2       1 QUE1001     0.0000 
     18 O23        39.5550   11.7490  -27.3760 O.3       1 QUE1001     0.0000 
     19 O24        41.3200   13.5580  -28.7830 O.3       1 QUE1001     0.0000 
     20 O27        38.2290   13.0610  -22.9970 O.co2     1 QUE1001     0.0000 
     21 O29        43.9790   16.2980  -18.7160 O.3       1 QUE1001     0.0000 
     22 O30        39.6130   14.4480  -17.9860 O.co2     1 QUE1001     0.0000 
@<TRIPOS>BOND
     1    1    2 ar   
     2    1    6 ar   
     3    2    3 ar   
     4    2   22 ar   
     5    3    4 ar   
     6    3    7 1    
     7    4    5 ar   
     8    4   16 1    
     9    5    6 ar   
    10    6   21 1    
    11    7    8 1    
    12    7   17 2    
    13    8    9 2    
    14    8   20 ar   
    15    9   10 1    
    16    9   16 1    
    17   10   11 ar   
    18   10   15 ar   
    19   11   12 ar   
    20   12   13 ar   
    21   13   14 ar   
    22   13   19 1    
    23   14   15 ar   
    24   14   18 1    
@<TRIPOS>SUBSTRUCTURE
     1 QUE1001     1 GROUP   
@<TRIPOS>SET

