#    Name: 6huf_12_GNP
#    Modification time : Fri May 22 19:31:41 2020

@<TRIPOS>MOLECULE
6huf_12_GNP
   32    34     1     0     1
SMALL
NO_CHARGES


@<TRIPOS>ATOM
      1 PG         95.9060   39.4220   17.9810 P.3       1 GNP202      0.0000 
      2 O1G        96.1660   39.6140   16.5100 O.co2     1 GNP202      0.0000 
      3 O2G        95.3680   40.7170   18.5620 O.co2     1 GNP202      0.0000 
      4 O3G        97.1760   38.9810   18.6680 O.co2     1 GNP202      0.0000 
      5 N3B        94.8370   38.2370   18.1290 N.3       1 GNP202      0.0000 
      6 PB         95.3240   36.7110   17.8430 P.3       1 GNP202      0.0000 
      7 O1B        95.2480   36.5100   16.3610 O.co2     1 GNP202      0.0000 
      8 O2B        96.6230   36.4270   18.5530 O.co2     1 GNP202      0.0000 
      9 O3A        94.1550   35.7950   18.4520 O.3       1 GNP202      0.0000 
     10 PA         93.9180   35.3180   19.9610 P.3       1 GNP202      0.0000 
     11 O1A        94.7230   34.1010   20.2490 O.co2     1 GNP202      0.0000 
     12 O2A        94.1220   36.4560   20.9160 O.co2     1 GNP202      0.0000 
     13 O5'        92.3640   34.9480   19.8550 O.3       1 GNP202      0.0000 
     14 C5'        91.4000   36.0160   20.0190 C.3       1 GNP202      0.0000 
     15 C4'        90.1910   35.4680   20.7380 C.3       1 GNP202      0.0000 
     16 O4'        89.6950   34.2980   20.0360 O.3       1 GNP202      0.0000 
     17 C3'        90.4040   34.9970   22.1820 C.3       1 GNP202      0.0000 
     18 O3'        89.2040   35.1380   22.9250 O.3       1 GNP202      0.0000 
     19 C2'        90.6760   33.5080   22.0070 C.3       1 GNP202      0.0000 
     20 O2'        90.3910   32.7820   23.1840 O.3       1 GNP202      0.0000 
     21 C1'        89.6860   33.1880   20.8990 C.3       1 GNP202      0.0000 
     22 N9         90.0340   32.0220   20.1020 N.pl3     1 GNP202      0.0000 
     23 C8         91.1900   31.8100   19.4010 C.2       1 GNP202      0.0000 
     24 N7         91.1910   30.6800   18.7380 N.2       1 GNP202      0.0000 
     25 C5         89.9590   30.1150   19.0240 C.2       1 GNP202      0.0000 
     26 C6         89.3870   28.8950   18.5880 C.2       1 GNP202      0.0000 
     27 O6         89.8670   28.0470   17.8170 O.2       1 GNP202      0.0000 
     28 N1         88.1010   28.7210   19.1090 N.am      1 GNP202      0.0000 
     29 C2         87.4610   29.5820   19.9640 C.2       1 GNP202      0.0000 
     30 N2         86.2410   29.2270   20.3890 N.pl3     1 GNP202      0.0000 
     31 N3         87.9960   30.7330   20.3650 N.2       1 GNP202      0.0000 
     32 C4         89.2380   30.9310   19.8610 C.2       1 GNP202      0.0000 
@<TRIPOS>BOND
     1    1    2 ar   
     2    1    3 ar   
     3    1    4 ar   
     4    1    5 1    
     5    5    6 1    
     6    6    7 ar   
     7    6    8 ar   
     8    6    9 1    
     9    9   10 1    
    10   10   11 ar   
    11   10   12 ar   
    12   10   13 1    
    13   13   14 1    
    14   14   15 1    
    15   15   16 1    
    16   15   17 1    
    17   16   21 1    
    18   17   18 1    
    19   17   19 1    
    20   19   20 1    
    21   19   21 1    
    22   21   22 1    
    23   22   23 1    
    24   22   32 1    
    25   23   24 2    
    26   24   25 1    
    27   25   26 1    
    28   25   32 2    
    29   26   27 2    
    30   26   28 am   
    31   28   29 1    
    32   29   30 1    
    33   29   31 2    
    34   31   32 1    
@<TRIPOS>SUBSTRUCTURE
     1 GNP202      1 GROUP   
@<TRIPOS>SET
ATOM$ORANGE STATIC     ATOMS   COLORGROUP SYSTEM 
20 14 14 15 15 17 17 19 19 21 21 23 23 25 25 26 26 29 \
29 32 32 

