#    Name: 6huf_5_GNP
#    Modification time : Fri May 22 19:31:08 2020

@<TRIPOS>MOLECULE
6huf_5_GNP
   32    34     1     0     1
SMALL
NO_CHARGES


@<TRIPOS>ATOM
      1 PG         15.2760   54.7370   66.3040 P.3       1 GNP202      0.0000 
      2 O1G        15.8870   55.8820   65.5670 O.co2     1 GNP202      0.0000 
      3 O2G        15.0040   55.2480   67.6940 O.co2     1 GNP202      0.0000 
      4 O3G        16.1570   53.5050   66.0990 O.co2     1 GNP202      0.0000 
      5 N3B        13.8280   54.2870   65.7250 N.3       1 GNP202      0.0000 
      6 PB         13.5630   53.6370   64.2520 P.3       1 GNP202      0.0000 
      7 O1B        13.6770   54.8140   63.3130 O.co2     1 GNP202      0.0000 
      8 O2B        14.4270   52.4130   64.0370 O.co2     1 GNP202      0.0000 
      9 O3A        12.0010   53.2330   64.2890 O.3       1 GNP202      0.0000 
     10 PA         11.2280   51.9620   64.9010 P.3       1 GNP202      0.0000 
     11 O1A        11.2310   50.8100   63.9410 O.co2     1 GNP202      0.0000 
     12 O2A        11.8030   51.7080   66.2640 O.co2     1 GNP202      0.0000 
     13 O5'         9.7360   52.5540   64.9940 O.3       1 GNP202      0.0000 
     14 C5'         9.3100   53.2330   66.1880 C.3       1 GNP202      0.0000 
     15 C4'         7.8340   53.0060   66.3830 C.3       1 GNP202      0.0000 
     16 O4'         7.1610   53.2690   65.1280 O.3       1 GNP202      0.0000 
     17 C3'         7.3990   51.5920   66.7940 C.3       1 GNP202      0.0000 
     18 O3'         6.2680   51.6420   67.6570 O.3       1 GNP202      0.0000 
     19 C2'         6.9980   50.9740   65.4560 C.3       1 GNP202      0.0000 
     20 O2'         6.1160   49.8850   65.6330 O.3       1 GNP202      0.0000 
     21 C1'         6.3340   52.1810   64.8070 C.3       1 GNP202      0.0000 
     22 N9          6.2540   52.1450   63.3570 N.pl3     1 GNP202      0.0000 
     23 C8          7.3270   52.1710   62.5050 C.2       1 GNP202      0.0000 
     24 N7          6.9830   52.1700   61.2410 N.2       1 GNP202      0.0000 
     25 C5          5.5960   52.1610   61.2700 C.2       1 GNP202      0.0000 
     26 C6          4.6810   52.1600   60.1980 C.2       1 GNP202      0.0000 
     27 O6          4.9380   52.1800   58.9870 O.2       1 GNP202      0.0000 
     28 N1          3.3610   52.1490   60.6540 N.am      1 GNP202      0.0000 
     29 C2          2.9770   52.1320   61.9710 C.2       1 GNP202      0.0000 
     30 N2          1.6570   52.1230   62.2030 N.pl3     1 GNP202      0.0000 
     31 N3          3.8400   52.1380   62.9900 N.2       1 GNP202      0.0000 
     32 C4          5.1280   52.1490   62.5650 C.2       1 GNP202      0.0000 
@<TRIPOS>BOND
     1    1    2 ar   
     2    1    3 ar   
     3    1    4 ar   
     4    1    5 1    
     5    5    6 1    
     6    6    7 ar   
     7    6    8 ar   
     8    6    9 1    
     9    9   10 1    
    10   10   11 ar   
    11   10   12 ar   
    12   10   13 1    
    13   13   14 1    
    14   14   15 1    
    15   15   16 1    
    16   15   17 1    
    17   16   21 1    
    18   17   18 1    
    19   17   19 1    
    20   19   20 1    
    21   19   21 1    
    22   21   22 1    
    23   22   23 1    
    24   22   32 1    
    25   23   24 2    
    26   24   25 1    
    27   25   26 1    
    28   25   32 2    
    29   26   27 2    
    30   26   28 am   
    31   28   29 1    
    32   29   30 1    
    33   29   31 2    
    34   31   32 1    
@<TRIPOS>SUBSTRUCTURE
     1 GNP202      1 GROUP   
@<TRIPOS>SET
ATOM$ORANGE STATIC     ATOMS   COLORGROUP SYSTEM 
20 14 14 15 15 17 17 19 19 21 21 23 23 25 25 26 26 29 \
29 32 32 

