#    Name: 6huf_2_GNP_CAVITY_N1_4
#    Modification time : Fri May 22 19:30:43 2020

@<TRIPOS>MOLECULE
6huf_2_GNP_CAVITY_N1_4
   86     0     6     0     0
SMALL
NO_CHARGES


@<TRIPOS>ATOM
      1 OG         11.7000   37.1700   91.4400 O.3       1 SER1        0.0000 
      2 OG         11.9700   35.6900   91.4500 O.3       1 SER1        0.0000 
      3 OG         12.2400   34.2200   91.4600 O.3       1 SER1        0.0000 
      4 OG         12.4900   37.3000   90.1700 O.3       1 SER1        0.0000 
      5 OG         12.7600   35.8300   90.1800 O.3       1 SER1        0.0000 
      6 OG         17.2900   36.6600   91.2900 O.3       1 SER1        0.0000 
      7 OG         18.8100   35.4200   92.1000 O.3       1 SER1        0.0000 
      8 N          13.5400   35.9600   88.9100 N.am      2 ALA2        0.0000 
      9 N          14.3200   36.1000   87.6300 N.am      2 ALA2        0.0000 
     10 O          12.7100   34.3200   93.5300 O.2       2 ALA2        0.0000 
     11 O          12.9800   32.8400   93.5400 O.2       2 ALA2        0.0000 
     12 O          13.2500   31.3600   93.5500 O.2       2 ALA2        0.0000 
     13 N          12.6900   38.8800   92.2200 N.am      2 ALA2        0.0000 
     14 N          12.9600   37.4000   92.2300 N.am      2 ALA2        0.0000 
     15 N          13.2200   35.9300   92.2400 N.am      2 ALA2        0.0000 
     16 O          14.0300   31.5000   92.2700 O.2       2 ALA2        0.0000 
     17 N          13.6900   36.0200   94.3100 N.am      2 ALA2        0.0000 
     18 N          13.9600   34.5500   94.3200 N.am      2 ALA2        0.0000 
     19 N          14.2100   37.6300   93.0300 N.am      2 ALA2        0.0000 
     20 N          14.4800   36.1600   93.0400 N.am      2 ALA2        0.0000 
     21 N          14.9900   37.7700   91.7600 N.am      2 ALA2        0.0000 
     22 N          14.9400   36.2600   95.1100 N.am      2 ALA2        0.0000 
     23 N          15.1900   39.3400   93.8100 N.am      2 ALA2        0.0000 
     24 N          15.4600   37.8700   93.8200 N.am      2 ALA2        0.0000 
     25 N          15.7300   36.3900   93.8300 N.am      2 ALA2        0.0000 
     26 NZ         15.2800   31.7300   93.0700 N.4       3 LYS4        0.0000 
     27 NZ         16.0700   31.8700   91.8000 N.4       3 LYS4        0.0000 
     28 NZ         16.8500   32.0000   90.5200 N.4       3 LYS4        0.0000 
     29 NZ         17.6300   32.1400   89.2500 N.4       3 LYS4        0.0000 
     30 NZ         17.9000   30.6600   89.2600 N.4       3 LYS4        0.0000 
     31 NZ         18.1700   29.1800   89.2700 N.4       3 LYS4        0.0000 
     32 NZ         18.6900   30.7900   87.9900 N.4       3 LYS4        0.0000 
     33 NZ         19.1500   30.8900   90.0600 N.4       3 LYS4        0.0000 
     34 NZ         19.4200   29.4200   90.0700 N.4       3 LYS4        0.0000 
     35 CZ         12.5100   32.7400   91.4700 C.ar      4 PHE5        0.0000 
     36 CZ         12.7800   31.2700   91.4800 C.ar      4 PHE5        0.0000 
     37 CZ         13.0300   34.3500   90.1900 C.ar      4 PHE5        0.0000 
     38 CZ         13.8100   34.4900   88.9200 C.ar      4 PHE5        0.0000 
     39 CZ         14.5500   33.1100   90.9900 C.ar      4 PHE5        0.0000 
     40 CZ         14.8200   31.6300   91.0000 C.ar      4 PHE5        0.0000 
     41 CZ         15.0600   34.7200   89.7100 C.ar      4 PHE5        0.0000 
     42 CZ         15.3300   33.2400   89.7200 C.ar      4 PHE5        0.0000 
     43 CZ         15.6000   31.7700   89.7300 C.ar      4 PHE5        0.0000 
     44 CZ         16.1100   33.3800   88.4500 C.ar      4 PHE5        0.0000 
     45 CZ         16.3800   31.9000   88.4600 C.ar      4 PHE5        0.0000 
     46 CZ         16.6500   30.4300   88.4700 C.ar      4 PHE5        0.0000 
     47 CZ         19.4000   33.9800   88.7700 C.ar      4 PHE5        0.0000 
     48 CZ         19.6700   32.5000   88.7800 C.ar      4 PHE5        0.0000 
     49 CZ         19.9400   31.0300   88.7900 C.ar      4 PHE5        0.0000 
     50 CA         11.4600   34.0800   92.7300 C.3       5 GLY6        0.0000 
     51 CA         11.7300   32.6100   92.7400 C.3       5 GLY6        0.0000 
     52 CA         14.5900   34.6200   87.6400 C.3       5 GLY6        0.0000 
     53 CA         12.4400   35.7900   93.5200 C.3       5 GLY6        0.0000 
     54 CA         14.2300   33.0700   94.3300 C.3       5 GLY6        0.0000 
     55 CA         14.7400   34.6800   93.0500 C.3       5 GLY6        0.0000 
     56 CA         15.0100   33.2100   93.0600 C.3       5 GLY6        0.0000 
     57 CA         15.9900   34.9200   93.8400 C.3       5 GLY6        0.0000 
     58 CA         16.2600   33.4400   93.8500 C.3       5 GLY6        0.0000 
     59 CA         16.7800   35.0500   92.5700 C.3       5 GLY6        0.0000 
     60 CA         17.0500   33.5800   92.5800 C.3       5 GLY6        0.0000 
     61 CA         17.3200   32.1000   92.5900 C.3       5 GLY6        0.0000 
     62 CA         17.5600   35.1900   91.3000 C.3       5 GLY6        0.0000 
     63 CA         17.8300   33.7100   91.3100 C.3       5 GLY6        0.0000 
     64 CA         18.1000   32.2300   91.3200 C.3       5 GLY6        0.0000 
     65 CA         18.3500   35.3200   90.0300 C.3       5 GLY6        0.0000 
     66 CA         18.6100   33.8400   90.0400 C.3       5 GLY6        0.0000 
     67 CA         18.8800   32.3700   90.0500 C.3       5 GLY6        0.0000 
     68 CA         19.8600   34.0800   90.8300 C.3       5 GLY6        0.0000 
     69 DU         13.4900   34.4500   92.2500 H         6 CUB7        0.0000 
     70 DU         13.7600   32.9700   92.2600 H         6 CUB7        0.0000 
     71 DU         13.7400   37.5400   90.9600 H         6 CUB7        0.0000 
     72 DU         14.0100   36.0600   90.9700 H         6 CUB7        0.0000 
     73 DU         14.2800   34.5800   90.9800 H         6 CUB7        0.0000 
     74 DU         14.7900   36.1900   89.7000 H         6 CUB7        0.0000 
     75 DU         15.8400   34.8500   88.4400 H         6 CUB7        0.0000 
     76 DU         15.2600   36.2900   91.7700 H         6 CUB7        0.0000 
     77 DU         15.5300   34.8200   91.7800 H         6 CUB7        0.0000 
     78 DU         15.8000   33.3400   91.7900 H         6 CUB7        0.0000 
     79 DU         16.3100   34.9500   90.5100 H         6 CUB7        0.0000 
     80 DU         16.5800   33.4800   90.5200 H         6 CUB7        0.0000 
     81 DU         17.0900   35.0900   89.2300 H         6 CUB7        0.0000 
     82 DU         17.3600   33.6100   89.2400 H         6 CUB7        0.0000 
     83 DU         18.1500   33.7500   87.9700 H         6 CUB7        0.0000 
     84 DU         18.4200   32.2700   87.9800 H         6 CUB7        0.0000 
     85 DU         16.2400   38.0000   92.5500 H         6 CUB7        0.0000 
     86 DU         16.5100   36.5300   92.5600 H         6 CUB7        0.0000 
@<TRIPOS>BOND
@<TRIPOS>SUBSTRUCTURE
     1 SER1        1 GROUP   
     2 ALA2        8 GROUP   
     3 LYS4       26 GROUP   
     4 PHE5       35 GROUP   
     5 GLY6       50 GROUP   
     6 CUB7       69 GROUP   
@<TRIPOS>SET

