#    Name: 6huf_14_GNP_CAVITY_N1_4
#    Modification time : Fri May 22 19:31:49 2020

@<TRIPOS>MOLECULE
6huf_14_GNP_CAVITY_N1_4
   75     0     6     0     0
SMALL
NO_CHARGES


@<TRIPOS>ATOM
      1 OG         96.2300   73.5100   27.0600 O.3       1 SER1        0.0000 
      2 OG         96.5000   72.0300   27.0700 O.3       1 SER1        0.0000 
      3 OG         97.4800   73.7400   27.8600 O.3       1 SER1        0.0000 
      4 OG         97.7500   72.2700   27.8700 O.3       1 SER1        0.0000 
      5 OG         98.7300   73.9800   28.6500 O.3       1 SER1        0.0000 
      6 N          93.1400   74.4800   28.8000 N.am      2 ALA2        0.0000 
      7 N          95.4400   73.3700   28.3400 N.am      2 ALA2        0.0000 
      8 N          97.7000   70.7600   31.2200 N.am      2 ALA2        0.0000 
      9 N          98.2100   72.3700   29.9400 N.am      2 ALA2        0.0000 
     10 N          98.4800   70.8900   29.9500 N.am      2 ALA2        0.0000 
     11 N          98.6800   72.4600   32.0000 N.am      2 ALA2        0.0000 
     12 N          98.9500   70.9900   32.0100 N.am      2 ALA2        0.0000 
     13 N          99.4700   72.6000   30.7300 N.am      2 ALA2        0.0000 
     14 O          99.1700   78.6400   29.4200 O.2       2 ALA2        0.0000 
     15 O          99.4400   77.1600   29.4300 O.2       2 ALA2        0.0000 
     16 O          99.7100   75.6900   29.4400 O.2       2 ALA2        0.0000 
     17 N          99.9800   74.2100   29.4500 N.am      2 ALA2        0.0000 
     18 N         100.2500   72.7300   29.4600 N.am      2 ALA2        0.0000 
     19 N         100.7200   72.8300   31.5300 N.am      2 ALA2        0.0000 
     20 NZ         93.2700   79.1100   32.9100 N.4       3 LYS4        0.0000 
     21 NZ         94.5200   79.3400   33.7000 N.4       3 LYS4        0.0000 
     22 NZ         95.5700   78.0000   32.4400 N.4       3 LYS4        0.0000 
     23 NZ         95.8400   76.5200   32.4500 N.4       3 LYS4        0.0000 
     24 NZ         96.3500   78.1300   31.1700 N.4       3 LYS4        0.0000 
     25 NZ         96.6200   76.6600   31.1800 N.4       3 LYS4        0.0000 
     26 NZ         97.8700   76.8900   31.9700 N.4       3 LYS4        0.0000 
     27 NZ         98.3900   78.5000   30.6900 N.4       3 LYS4        0.0000 
     28 NZ         98.6600   77.0300   30.7000 N.4       3 LYS4        0.0000 
     29 CZ         93.0700   77.5300   30.8500 C.ar      4 PHE5        0.0000 
     30 CZ         93.3400   76.0600   30.8600 C.ar      4 PHE5        0.0000 
     31 CZ         94.3900   74.7200   29.6000 C.ar      4 PHE5        0.0000 
     32 CZ         95.1800   74.8500   28.3300 C.ar      4 PHE5        0.0000 
     33 CZ         94.3200   77.7700   31.6500 C.ar      4 PHE5        0.0000 
     34 CZ         95.1000   77.9000   30.3700 C.ar      4 PHE5        0.0000 
     35 CZ         95.3700   76.4200   30.3800 C.ar      4 PHE5        0.0000 
     36 CZ         95.6400   74.9500   30.3900 C.ar      4 PHE5        0.0000 
     37 CZ         96.4300   75.0800   29.1200 C.ar      4 PHE5        0.0000 
     38 CZ         97.2100   75.2200   27.8500 C.ar      4 PHE5        0.0000 
     39 CZ         94.0000   77.7300   34.9900 C.ar      4 PHE5        0.0000 
     40 CZ         94.2700   76.2500   34.9900 C.ar      4 PHE5        0.0000 
     41 CZ         97.4100   76.7900   29.9100 C.ar      4 PHE5        0.0000 
     42 CZ         97.6800   75.3200   29.9200 C.ar      4 PHE5        0.0000 
     43 CZ         98.1900   76.9300   28.6300 C.ar      4 PHE5        0.0000 
     44 CZ         98.4600   75.4500   28.6400 C.ar      4 PHE5        0.0000 
     45 CA         94.0800   74.6800   32.9400 C.3       5 GLY6        0.0000 
     46 CA         94.0500   79.2400   31.6400 C.3       5 GLY6        0.0000 
     47 CA         94.7900   77.8600   33.7100 C.3       5 GLY6        0.0000 
     48 CA         95.0600   76.3900   33.7200 C.3       5 GLY6        0.0000 
     49 CA         96.1100   75.0500   32.4600 C.3       5 GLY6        0.0000 
     50 CA         97.1400   78.2700   29.9000 C.3       5 GLY6        0.0000 
     51 CA         99.0000   72.5000   28.6600 C.3       5 GLY6        0.0000 
     52 CA         99.2400   75.5900   27.3700 C.3       5 GLY6        0.0000 
     53 CA         99.5100   74.1100   27.3800 C.3       5 GLY6        0.0000 
     54 CA         97.6300   73.8100   33.2700 C.3       5 GLY6        0.0000 
     55 CA         97.9000   72.3300   33.2800 C.3       5 GLY6        0.0000 
     56 CA         98.1400   75.4200   31.9800 C.3       5 GLY6        0.0000 
     57 CA         98.4100   73.9400   31.9900 C.3       5 GLY6        0.0000 
     58 CA         98.9300   75.5500   30.7100 C.3       5 GLY6        0.0000 
     59 CA         99.2000   74.0700   30.7200 C.3       5 GLY6        0.0000 
     60 CA        100.2200   77.3000   28.1600 C.3       5 GLY6        0.0000 
     61 CA         99.6600   74.1700   32.7900 C.3       5 GLY6        0.0000 
     62 CA        100.4500   74.3100   31.5200 C.3       5 GLY6        0.0000 
     63 DU         93.5400   77.6300   32.9200 H         6 CUB7        0.0000 
     64 DU         93.8100   76.1600   32.9300 H         6 CUB7        0.0000 
     65 DU         94.5900   76.2900   31.6600 H         6 CUB7        0.0000 
     66 DU         94.8600   74.8100   31.6700 H         6 CUB7        0.0000 
     67 DU         95.9100   73.4700   30.4000 H         6 CUB7        0.0000 
     68 DU         96.6900   73.6100   29.1300 H         6 CUB7        0.0000 
     69 DU         96.9600   72.1300   29.1400 H         6 CUB7        0.0000 
     70 DU         96.3800   73.5700   32.4700 H         6 CUB7        0.0000 
     71 DU         96.6500   72.1000   32.4800 H         6 CUB7        0.0000 
     72 DU         96.8900   75.1800   31.1900 H         6 CUB7        0.0000 
     73 DU         97.1600   73.7100   31.2000 H         6 CUB7        0.0000 
     74 DU         97.4300   72.2300   31.2100 H         6 CUB7        0.0000 
     75 DU         97.9500   73.8400   29.9300 H         6 CUB7        0.0000 
@<TRIPOS>BOND
@<TRIPOS>SUBSTRUCTURE
     1 SER1        1 GROUP   
     2 ALA2        6 GROUP   
     3 LYS4       20 GROUP   
     4 PHE5       29 GROUP   
     5 GLY6       45 GROUP   
     6 CUB7       63 GROUP   
@<TRIPOS>SET

