#    Name: 6huf_2_GNP
#    Modification time : Fri May 22 19:30:41 2020

@<TRIPOS>MOLECULE
6huf_2_GNP
   32    34     1     0     1
SMALL
NO_CHARGES


@<TRIPOS>ATOM
      1 PG          7.4810   42.2710   93.9890 P.3       1 GNP202      0.0000 
      2 O1G         8.1150   43.4910   93.3920 O.co2     1 GNP202      0.0000 
      3 O2G         7.4820   42.3760   95.4850 O.co2     1 GNP202      0.0000 
      4 O3G         6.0380   41.9710   93.5640 O.co2     1 GNP202      0.0000 
      5 N3B         8.4680   41.0400   93.6160 N.3       1 GNP202      0.0000 
      6 PB          8.0840   39.5230   94.0730 P.3       1 GNP202      0.0000 
      7 O1B         6.6750   39.3120   93.5770 O.co2     1 GNP202      0.0000 
      8 O2B         8.3690   39.4280   95.5470 O.co2     1 GNP202      0.0000 
      9 O3A         9.2080   38.5700   93.4150 O.3       1 GNP202      0.0000 
     10 PA          9.5050   38.0620   91.9210 P.3       1 GNP202      0.0000 
     11 O1A         9.1120   39.1420   90.9610 O.co2     1 GNP202      0.0000 
     12 O2A         8.8540   36.7200   91.8190 O.co2     1 GNP202      0.0000 
     13 O5'        11.0880   37.8420   91.9340 O.3       1 GNP202      0.0000 
     14 C5'        11.9850   38.8860   91.5410 C.3       1 GNP202      0.0000 
     15 C4'        13.1930   38.2610   90.8880 C.3       1 GNP202      0.0000 
     16 O4'        13.6220   37.1060   91.6500 O.3       1 GNP202      0.0000 
     17 C3'        13.0080   37.7320   89.4620 C.3       1 GNP202      0.0000 
     18 O3'        14.2450   37.7780   88.7630 O.3       1 GNP202      0.0000 
     19 C2'        12.6660   36.2650   89.6900 C.3       1 GNP202      0.0000 
     20 O2'        12.9260   35.5170   88.5210 O.3       1 GNP202      0.0000 
     21 C1'        13.6320   35.9620   90.8270 C.3       1 GNP202      0.0000 
     22 N9         13.2850   34.8090   91.6490 N.pl3     1 GNP202      0.0000 
     23 C8         12.1490   34.5920   92.3880 C.2       1 GNP202      0.0000 
     24 N7         12.1670   33.4560   93.0400 N.2       1 GNP202      0.0000 
     25 C5         13.3950   32.9010   92.7170 C.2       1 GNP202      0.0000 
     26 C6         13.9870   31.6870   93.1270 C.2       1 GNP202      0.0000 
     27 O6         13.5330   30.8410   93.9110 O.2       1 GNP202      0.0000 
     28 N1         15.2640   31.5340   92.5740 N.am      1 GNP202      0.0000 
     29 C2         15.8880   32.4220   91.7310 C.2       1 GNP202      0.0000 
     30 N2         17.1110   32.1060   91.2810 N.pl3     1 GNP202      0.0000 
     31 N3         15.3230   33.5530   91.3350 N.2       1 GNP202      0.0000 
     32 C4         14.0940   33.7280   91.8720 C.2       1 GNP202      0.0000 
@<TRIPOS>BOND
     1    1    2 ar   
     2    1    3 ar   
     3    1    4 ar   
     4    1    5 1    
     5    5    6 1    
     6    6    7 ar   
     7    6    8 ar   
     8    6    9 1    
     9    9   10 1    
    10   10   11 ar   
    11   10   12 ar   
    12   10   13 1    
    13   13   14 1    
    14   14   15 1    
    15   15   16 1    
    16   15   17 1    
    17   16   21 1    
    18   17   18 1    
    19   17   19 1    
    20   19   20 1    
    21   19   21 1    
    22   21   22 1    
    23   22   23 1    
    24   22   32 1    
    25   23   24 2    
    26   24   25 1    
    27   25   26 1    
    28   25   32 2    
    29   26   27 2    
    30   26   28 am   
    31   28   29 1    
    32   29   30 1    
    33   29   31 2    
    34   31   32 1    
@<TRIPOS>SUBSTRUCTURE
     1 GNP202      1 GROUP   
@<TRIPOS>SET
ATOM$ORANGE STATIC     ATOMS   COLORGROUP SYSTEM 
20 14 14 15 15 17 17 19 19 21 21 23 23 25 25 26 26 29 \
29 32 32 

