#    Name: 6huf_14_GNP
#    Modification time : Fri May 22 19:31:48 2020

@<TRIPOS>MOLECULE
6huf_14_GNP
   32    34     1     0     1
SMALL
NO_CHARGES


@<TRIPOS>ATOM
      1 PG        101.5930   66.3770   24.7070 P.3       1 GNP202      0.0000 
      2 O1G       101.8410   66.6250   23.2250 O.co2     1 GNP202      0.0000 
      3 O2G       100.6420   65.2430   25.0650 O.co2     1 GNP202      0.0000 
      4 O3G       102.9680   66.0820   25.2370 O.co2     1 GNP202      0.0000 
      5 N3B       100.9440   67.7630   25.2830 N.3       1 GNP202      0.0000 
      6 PB        101.5660   69.2540   25.0510 P.3       1 GNP202      0.0000 
      7 O1B       101.5640   69.7150   23.6200 O.co2     1 GNP202      0.0000 
      8 O2B       102.8680   69.2810   25.8240 O.co2     1 GNP202      0.0000 
      9 O3A       100.5890   70.1250   25.9650 O.3       1 GNP202      0.0000 
     10 PA         99.2640   70.9200   25.5770 P.3       1 GNP202      0.0000 
     11 O1A        98.3890   69.9420   24.8420 O.co2     1 GNP202      0.0000 
     12 O2A        99.6580   72.2210   24.9610 O.co2     1 GNP202      0.0000 
     13 O5'        98.6670   71.2510   27.0170 O.3       1 GNP202      0.0000 
     14 C5'        97.9930   70.1780   27.6770 C.3       1 GNP202      0.0000 
     15 C4'        97.1320   70.7640   28.7580 C.3       1 GNP202      0.0000 
     16 O4'        97.8460   71.8580   29.3740 O.3       1 GNP202      0.0000 
     17 C3'        95.8050   71.3840   28.3360 C.3       1 GNP202      0.0000 
     18 O3'        94.9890   71.3890   29.4960 O.3       1 GNP202      0.0000 
     19 C2'        96.1910   72.8270   28.0580 C.3       1 GNP202      0.0000 
     20 O2'        95.1140   73.7360   28.1120 O.3       1 GNP202      0.0000 
     21 C1'        97.0840   73.0290   29.2660 C.3       1 GNP202      0.0000 
     22 N9         98.0050   74.1360   29.1210 N.pl3     1 GNP202      0.0000 
     23 C8         99.0430   74.2380   28.2290 C.2       1 GNP202      0.0000 
     24 N7         99.7020   75.3630   28.3390 N.2       1 GNP202      0.0000 
     25 C5         99.0540   76.0350   29.3660 C.2       1 GNP202      0.0000 
     26 C6         99.3330   77.2950   29.9260 C.2       1 GNP202      0.0000 
     27 O6        100.2440   78.0610   29.5930 O.2       1 GNP202      0.0000 
     28 N1         98.4290   77.6040   30.9540 N.am      1 GNP202      0.0000 
     29 C2         97.3950   76.7910   31.3830 C.2       1 GNP202      0.0000 
     30 N2         96.6050   77.2380   32.3720 N.pl3     1 GNP202      0.0000 
     31 N3         97.1490   75.5920   30.8650 N.2       1 GNP202      0.0000 
     32 C4         98.0080   75.2910   29.8610 C.2       1 GNP202      0.0000 
@<TRIPOS>BOND
     1    1    2 ar   
     2    1    3 ar   
     3    1    4 ar   
     4    1    5 1    
     5    5    6 1    
     6    6    7 ar   
     7    6    8 ar   
     8    6    9 1    
     9    9   10 1    
    10   10   11 ar   
    11   10   12 ar   
    12   10   13 1    
    13   13   14 1    
    14   14   15 1    
    15   15   16 1    
    16   15   17 1    
    17   16   21 1    
    18   17   18 1    
    19   17   19 1    
    20   19   20 1    
    21   19   21 1    
    22   21   22 1    
    23   22   23 1    
    24   22   32 1    
    25   23   24 2    
    26   24   25 1    
    27   25   26 1    
    28   25   32 2    
    29   26   27 2    
    30   26   28 am   
    31   28   29 1    
    32   29   30 1    
    33   29   31 2    
    34   31   32 1    
@<TRIPOS>SUBSTRUCTURE
     1 GNP202      1 GROUP   
@<TRIPOS>SET
ATOM$ORANGE STATIC     ATOMS   COLORGROUP SYSTEM 
20 14 14 15 15 17 17 19 19 21 21 23 23 25 25 26 26 29 \
29 32 32 

