#    Name: 6huf_10_GNP
#    Modification time : Fri May 22 19:31:34 2020

@<TRIPOS>MOLECULE
6huf_10_GNP
   32    34     1     0     1
SMALL
NO_CHARGES


@<TRIPOS>ATOM
      1 PG         81.4320   67.4830   36.2850 P.3       1 GNP202      0.0000 
      2 O1G        80.1260   67.9050   35.7060 O.co2     1 GNP202      0.0000 
      3 O2G        81.8890   66.1650   35.7090 O.co2     1 GNP202      0.0000 
      4 O3G        81.2380   67.5070   37.8110 O.co2     1 GNP202      0.0000 
      5 N3B        82.5320   68.5880   35.8180 N.3       1 GNP202      0.0000 
      6 PB         82.5160   70.0130   36.5700 P.3       1 GNP202      0.0000 
      7 O1B        81.3310   70.7290   35.9640 O.co2     1 GNP202      0.0000 
      8 O2B        82.6160   69.8610   38.0710 O.co2     1 GNP202      0.0000 
      9 O3A        83.7410   70.8790   36.0510 O.3       1 GNP202      0.0000 
     10 PA         85.2630   70.9860   36.4930 P.3       1 GNP202      0.0000 
     11 O1A        85.8380   69.6070   36.5720 O.co2     1 GNP202      0.0000 
     12 O2A        85.4640   71.8620   37.6820 O.co2     1 GNP202      0.0000 
     13 O5'        85.6980   71.7850   35.1660 O.3       1 GNP202      0.0000 
     14 C5'        86.0860   71.0540   33.9920 C.3       1 GNP202      0.0000 
     15 C4'        87.3890   71.6080   33.4760 C.3       1 GNP202      0.0000 
     16 O4'        87.2800   73.0480   33.3690 O.3       1 GNP202      0.0000 
     17 C3'        88.6390   71.3550   34.3240 C.3       1 GNP202      0.0000 
     18 O3'        89.6760   71.0550   33.4080 O.3       1 GNP202      0.0000 
     19 C2'        88.9080   72.6930   35.0150 C.3       1 GNP202      0.0000 
     20 O2'        90.2850   72.7880   35.3310 O.3       1 GNP202      0.0000 
     21 C1'        88.3940   73.6690   33.9530 C.3       1 GNP202      0.0000 
     22 N9         87.8700   74.9300   34.4410 N.pl3     1 GNP202      0.0000 
     23 C8         86.7990   75.0600   35.2880 C.2       1 GNP202      0.0000 
     24 N7         86.4960   76.3070   35.5370 N.2       1 GNP202      0.0000 
     25 C5         87.4070   77.0360   34.7870 C.2       1 GNP202      0.0000 
     26 C6         87.5470   78.4320   34.6630 C.2       1 GNP202      0.0000 
     27 O6         86.8550   79.3140   35.1970 O.2       1 GNP202      0.0000 
     28 N1         88.5970   78.7570   33.8000 N.am      1 GNP202      0.0000 
     29 C2         89.4110   77.8610   33.1490 C.2       1 GNP202      0.0000 
     30 N2         90.3700   78.3800   32.3660 N.pl3     1 GNP202      0.0000 
     31 N3         89.2800   76.5400   33.2660 N.2       1 GNP202      0.0000 
     32 C4         88.2590   76.2040   34.0960 C.2       1 GNP202      0.0000 
@<TRIPOS>BOND
     1    1    2 ar   
     2    1    3 ar   
     3    1    4 ar   
     4    1    5 1    
     5    5    6 1    
     6    6    7 ar   
     7    6    8 ar   
     8    6    9 1    
     9    9   10 1    
    10   10   11 ar   
    11   10   12 ar   
    12   10   13 1    
    13   13   14 1    
    14   14   15 1    
    15   15   16 1    
    16   15   17 1    
    17   16   21 1    
    18   17   18 1    
    19   17   19 1    
    20   19   20 1    
    21   19   21 1    
    22   21   22 1    
    23   22   23 1    
    24   22   32 1    
    25   23   24 2    
    26   24   25 1    
    27   25   26 1    
    28   25   32 2    
    29   26   27 2    
    30   26   28 am   
    31   28   29 1    
    32   29   30 1    
    33   29   31 2    
    34   31   32 1    
@<TRIPOS>SUBSTRUCTURE
     1 GNP202      1 GROUP   
@<TRIPOS>SET
ATOM$ORANGE STATIC     ATOMS   COLORGROUP SYSTEM 
20 14 14 15 15 17 17 19 19 21 21 23 23 25 25 26 26 29 \
29 32 32 

