#    Name: 6huf_7_GNP
#    Modification time : Fri May 22 19:31:15 2020

@<TRIPOS>MOLECULE
6huf_7_GNP
   32    34     1     0     1
SMALL
NO_CHARGES


@<TRIPOS>ATOM
      1 PG         87.8320   50.9230   46.0290 P.3       1 GNP202      0.0000 
      2 O1G        87.5530   50.9460   44.5470 O.co2     1 GNP202      0.0000 
      3 O2G        87.5600   52.2960   46.6180 O.co2     1 GNP202      0.0000 
      4 O3G        86.9160   49.9300   46.7290 O.co2     1 GNP202      0.0000 
      5 N3B        89.3680   50.4360   46.3050 N.3       1 GNP202      0.0000 
      6 PB         89.9700   50.2030   47.8130 P.3       1 GNP202      0.0000 
      7 O1B        89.2390   49.0210   48.3860 O.co2     1 GNP202      0.0000 
      8 O2B        90.0160   51.4990   48.5790 O.co2     1 GNP202      0.0000 
      9 O3A        91.5100   49.7710   47.6980 O.3       1 GNP202      0.0000 
     10 PA         92.2030   48.4510   47.0910 P.3       1 GNP202      0.0000 
     11 O1A        91.6950   48.1720   45.7000 O.co2     1 GNP202      0.0000 
     12 O2A        92.0640   47.3390   48.0660 O.co2     1 GNP202      0.0000 
     13 O5'        93.7420   48.9130   47.0700 O.3       1 GNP202      0.0000 
     14 C5'        94.1830   49.9330   46.1430 C.3       1 GNP202      0.0000 
     15 C4'        95.6260   49.6740   45.7910 C.3       1 GNP202      0.0000 
     16 O4'        96.4410   49.9400   46.9570 O.3       1 GNP202      0.0000 
     17 C3'        95.9770   48.2350   45.3840 C.3       1 GNP202      0.0000 
     18 O3'        97.0980   48.1980   44.5070 O.3       1 GNP202      0.0000 
     19 C2'        96.3400   47.5960   46.7240 C.3       1 GNP202      0.0000 
     20 O2'        97.0920   46.4070   46.5580 O.3       1 GNP202      0.0000 
     21 C1'        97.1070   48.7600   47.3510 C.3       1 GNP202      0.0000 
     22 N9         97.1530   48.7500   48.8090 N.pl3     1 GNP202      0.0000 
     23 C8         96.0810   48.7520   49.6620 C.2       1 GNP202      0.0000 
     24 N7         96.4290   48.7800   50.9250 N.2       1 GNP202      0.0000 
     25 C5         97.8180   48.7910   50.9060 C.2       1 GNP202      0.0000 
     26 C6         98.7500   48.8150   51.9770 C.2       1 GNP202      0.0000 
     27 O6         98.5270   48.8470   53.1960 O.2       1 GNP202      0.0000 
     28 N1        100.0650   48.8090   51.5050 N.am      1 GNP202      0.0000 
     29 C2        100.4330   48.7830   50.1800 C.2       1 GNP202      0.0000 
     30 N2        101.7490   48.7710   49.9170 N.pl3     1 GNP202      0.0000 
     31 N3         99.5580   48.7780   49.1730 N.2       1 GNP202      0.0000 
     32 C4         98.2750   48.7750   49.6060 C.2       1 GNP202      0.0000 
@<TRIPOS>BOND
     1    1    2 ar   
     2    1    3 ar   
     3    1    4 ar   
     4    1    5 1    
     5    5    6 1    
     6    6    7 ar   
     7    6    8 ar   
     8    6    9 1    
     9    9   10 1    
    10   10   11 ar   
    11   10   12 ar   
    12   10   13 1    
    13   13   14 1    
    14   14   15 1    
    15   15   16 1    
    16   15   17 1    
    17   16   21 1    
    18   17   18 1    
    19   17   19 1    
    20   19   20 1    
    21   19   21 1    
    22   21   22 1    
    23   22   23 1    
    24   22   32 1    
    25   23   24 2    
    26   24   25 1    
    27   25   26 1    
    28   25   32 2    
    29   26   27 2    
    30   26   28 am   
    31   28   29 1    
    32   29   30 1    
    33   29   31 2    
    34   31   32 1    
@<TRIPOS>SUBSTRUCTURE
     1 GNP202      1 GROUP   
@<TRIPOS>SET
ATOM$ORANGE STATIC     ATOMS   COLORGROUP SYSTEM 
20 14 14 15 15 17 17 19 19 21 21 23 23 25 25 26 26 29 \
29 32 32 

