#    Name: 6huf_4_GNP
#    Modification time : Fri May 22 19:31:01 2020

@<TRIPOS>MOLECULE
6huf_4_GNP
   32    34     1     0     1
SMALL
NO_CHARGES


@<TRIPOS>ATOM
      1 PG         24.7320   43.0220   79.0390 P.3       1 GNP202      0.0000 
      2 O1G        25.5050   42.6790   77.7830 O.co2     1 GNP202      0.0000 
      3 O2G        23.4900   43.8360   78.7490 O.co2     1 GNP202      0.0000 
      4 O3G        25.6720   43.7540   79.9940 O.co2     1 GNP202      0.0000 
      5 N3B        24.2420   41.6710   79.7880 N.3       1 GNP202      0.0000 
      6 PB         25.1360   40.3260   79.9170 P.3       1 GNP202      0.0000 
      7 O1B        25.1100   39.7190   78.5490 O.co2     1 GNP202      0.0000 
      8 O2B        26.4630   40.4850   80.6170 O.co2     1 GNP202      0.0000 
      9 O3A        24.1770   39.4530   80.8400 O.3       1 GNP202      0.0000 
     10 PA         24.2250   39.3380   82.4360 P.3       1 GNP202      0.0000 
     11 O1A        25.3960   38.4640   82.7010 O.co2     1 GNP202      0.0000 
     12 O2A        24.1580   40.6790   83.0940 O.co2     1 GNP202      0.0000 
     13 O5'        22.8720   38.5230   82.7220 O.3       1 GNP202      0.0000 
     14 C5'        21.5650   39.1320   82.5750 C.3       1 GNP202      0.0000 
     15 C4'        20.6310   38.4610   83.5470 C.3       1 GNP202      0.0000 
     16 O4'        20.6510   37.0390   83.2730 O.3       1 GNP202      0.0000 
     17 C3'        21.0290   38.5610   85.0280 C.3       1 GNP202      0.0000 
     18 O3'        19.9510   38.3090   85.9250 O.3       1 GNP202      0.0000 
     19 C2'        21.9820   37.3800   85.1620 C.3       1 GNP202      0.0000 
     20 O2'        22.2170   37.0700   86.5190 O.3       1 GNP202      0.0000 
     21 C1'        21.1340   36.3590   84.4100 C.3       1 GNP202      0.0000 
     22 N9         21.8450   35.1620   83.9910 N.pl3     1 GNP202      0.0000 
     23 C8         23.0120   35.1120   83.2720 C.2       1 GNP202      0.0000 
     24 N7         23.4160   33.8810   83.0560 N.2       1 GNP202      0.0000 
     25 C5         22.4450   33.0850   83.6530 C.2       1 GNP202      0.0000 
     26 C6         22.3440   31.6810   83.7220 C.2       1 GNP202      0.0000 
     27 O6         23.1170   30.8480   83.2340 O.2       1 GNP202      0.0000 
     28 N1         21.2030   31.2760   84.4210 N.am      1 GNP202      0.0000 
     29 C2         20.2670   32.1130   84.9750 C.2       1 GNP202      0.0000 
     30 N2         19.2230   31.5310   85.5900 N.pl3     1 GNP202      0.0000 
     31 N3         20.3630   33.4440   84.9150 N.2       1 GNP202      0.0000 
     32 C4         21.4680   33.8570   84.2380 C.2       1 GNP202      0.0000 
@<TRIPOS>BOND
     1    1    2 ar   
     2    1    3 ar   
     3    1    4 ar   
     4    1    5 1    
     5    5    6 1    
     6    6    7 ar   
     7    6    8 ar   
     8    6    9 1    
     9    9   10 1    
    10   10   11 ar   
    11   10   12 ar   
    12   10   13 1    
    13   13   14 1    
    14   14   15 1    
    15   15   16 1    
    16   15   17 1    
    17   16   21 1    
    18   17   18 1    
    19   17   19 1    
    20   19   20 1    
    21   19   21 1    
    22   21   22 1    
    23   22   23 1    
    24   22   32 1    
    25   23   24 2    
    26   24   25 1    
    27   25   26 1    
    28   25   32 2    
    29   26   27 2    
    30   26   28 am   
    31   28   29 1    
    32   29   30 1    
    33   29   31 2    
    34   31   32 1    
@<TRIPOS>SUBSTRUCTURE
     1 GNP202      1 GROUP   
@<TRIPOS>SET
ATOM$ORANGE STATIC     ATOMS   COLORGROUP SYSTEM 
20 14 14 15 15 17 17 19 19 21 21 23 23 25 25 26 26 29 \
29 32 32 

