#    Name: 6huf_8_GNP_CAVITY_N1_4
#    Modification time : Fri May 22 19:31:23 2020

@<TRIPOS>MOLECULE
6huf_8_GNP_CAVITY_N1_4
   69     0     6     0     0
SMALL
NO_CHARGES


@<TRIPOS>ATOM
      1 OG         80.4300   32.5100   27.1500 O.3       1 SER1        0.0000 
      2 OG         80.9500   34.1200   25.8700 O.3       1 SER1        0.0000 
      3 O          79.9200   30.9000   28.4300 O.2       2 ALA2        0.0000 
      4 O          80.1900   29.4200   28.4400 O.2       2 ALA2        0.0000 
      5 N          83.2500   33.0100   25.4000 N.am      2 ALA2        0.0000 
      6 N          84.0400   33.1500   24.1300 N.am      2 ALA2        0.0000 
      7 N          82.4200   31.3700   30.0200 N.am      2 ALA2        0.0000 
      8 N          82.9400   32.9800   28.7400 N.am      2 ALA2        0.0000 
      9 N          83.6700   31.6000   30.8200 N.am      2 ALA2        0.0000 
     10 N          84.4600   31.7300   29.5500 N.am      2 ALA2        0.0000 
     11 NZ         81.2400   28.0800   27.1800 N.4       3 LYS4        0.0000 
     12 NZ         83.8600   27.0100   23.3700 N.4       3 LYS4        0.0000 
     13 NZ         83.2800   28.4500   26.7000 N.4       3 LYS4        0.0000 
     14 NZ         84.0600   28.5800   25.4300 N.4       3 LYS4        0.0000 
     15 NZ         84.8400   28.7200   24.1600 N.4       3 LYS4        0.0000 
     16 NZ         85.1100   27.2400   24.1700 N.4       3 LYS4        0.0000 
     17 NZ         85.9000   27.3800   22.9000 N.4       3 LYS4        0.0000 
     18 CZ         79.7200   29.3200   26.3800 C.ar      4 PHE5        0.0000 
     19 CZ         80.7000   31.0300   27.1600 C.ar      4 PHE5        0.0000 
     20 CZ         80.9700   29.5600   27.1700 C.ar      4 PHE5        0.0000 
     21 CZ         81.2200   32.6400   25.8800 C.ar      4 PHE5        0.0000 
     22 CZ         81.4900   31.1700   25.8900 C.ar      4 PHE5        0.0000 
     23 CZ         81.7600   29.6900   25.9000 C.ar      4 PHE5        0.0000 
     24 CZ         82.0000   32.7800   24.6100 C.ar      4 PHE5        0.0000 
     25 CZ         83.0500   31.4400   23.3500 C.ar      4 PHE5        0.0000 
     26 CZ         83.3200   29.9600   23.3500 C.ar      4 PHE5        0.0000 
     27 CZ         83.5900   28.4900   23.3600 C.ar      4 PHE5        0.0000 
     28 CZ         82.7400   31.4000   26.6800 C.ar      4 PHE5        0.0000 
     29 CZ         83.5200   31.5400   25.4100 C.ar      4 PHE5        0.0000 
     30 CZ         83.7900   30.0600   25.4200 C.ar      4 PHE5        0.0000 
     31 CZ         84.3000   31.6700   24.1400 C.ar      4 PHE5        0.0000 
     32 CZ         86.8800   29.0900   23.6800 C.ar      4 PHE5        0.0000 
     33 CZ         87.1500   27.6100   23.6900 C.ar      4 PHE5        0.0000 
     34 CA         79.6500   32.3700   28.4200 C.3       5 GLY6        0.0000 
     35 CA         82.0300   28.2200   25.9100 C.3       5 GLY6        0.0000 
     36 CA         82.8100   28.3500   24.6400 C.3       5 GLY6        0.0000 
     37 CA         82.7900   32.9100   23.3400 C.3       5 GLY6        0.0000 
     38 CA         80.9000   32.6100   29.2200 C.3       5 GLY6        0.0000 
     39 CA         81.4400   29.6600   29.2400 C.3       5 GLY6        0.0000 
     40 CA         82.2200   29.7900   27.9700 C.3       5 GLY6        0.0000 
     41 CA         82.6900   29.8900   30.0300 C.3       5 GLY6        0.0000 
     42 CA         83.4700   30.0200   28.7600 C.3       5 GLY6        0.0000 
     43 CA         83.7400   28.5500   28.7700 C.3       5 GLY6        0.0000 
     44 CA         84.2600   30.1600   27.4900 C.3       5 GLY6        0.0000 
     45 CA         84.5300   28.6800   27.5000 C.3       5 GLY6        0.0000 
     46 CA         85.0400   30.2900   26.2200 C.3       5 GLY6        0.0000 
     47 CA         85.3100   28.8200   26.2300 C.3       5 GLY6        0.0000 
     48 CA         86.0900   28.9500   24.9500 C.3       5 GLY6        0.0000 
     49 CA         83.9400   30.1200   30.8300 C.3       5 GLY6        0.0000 
     50 CA         84.7200   30.2600   29.5600 C.3       5 GLY6        0.0000 
     51 CA         85.5100   30.3900   28.2800 C.3       5 GLY6        0.0000 
     52 CA         86.0200   32.0000   27.0000 C.3       5 GLY6        0.0000 
     53 CA         86.2900   30.5300   27.0100 C.3       5 GLY6        0.0000 
     54 CA         87.0800   30.6600   25.7400 C.3       5 GLY6        0.0000 
     55 CA         87.3400   29.1900   25.7500 C.3       5 GLY6        0.0000 
     56 DU         81.6900   32.7400   27.9500 H         6 CUB7        0.0000 
     57 DU         81.9500   31.2700   27.9600 H         6 CUB7        0.0000 
     58 DU         82.2000   34.3500   26.6600 H         6 CUB7        0.0000 
     59 DU         82.4700   32.8800   26.6700 H         6 CUB7        0.0000 
     60 DU         83.0100   29.9300   26.6900 H         6 CUB7        0.0000 
     61 DU         84.5700   30.1900   24.1500 H         6 CUB7        0.0000 
     62 DU         85.6300   28.8500   22.8900 H         6 CUB7        0.0000 
     63 DU         83.2000   31.5000   28.7500 H         6 CUB7        0.0000 
     64 DU         83.9900   31.6300   27.4800 H         6 CUB7        0.0000 
     65 DU         84.5000   33.2400   26.2000 H         6 CUB7        0.0000 
     66 DU         84.7700   31.7700   26.2100 H         6 CUB7        0.0000 
     67 DU         85.5600   31.9000   24.9400 H         6 CUB7        0.0000 
     68 DU         85.8200   30.4300   24.9400 H         6 CUB7        0.0000 
     69 DU         85.2400   31.8700   28.2700 H         6 CUB7        0.0000 
@<TRIPOS>BOND
@<TRIPOS>SUBSTRUCTURE
     1 SER1        1 GROUP   
     2 ALA2        3 GROUP   
     3 LYS4       11 GROUP   
     4 PHE5       18 GROUP   
     5 GLY6       34 GROUP   
     6 CUB7       56 GROUP   
@<TRIPOS>SET

