#    Name: 6huf_4_GNP_CAVITY_N1_4
#    Modification time : Fri May 22 19:31:03 2020

@<TRIPOS>MOLECULE
6huf_4_GNP_CAVITY_N1_4
   84     0     6     0     0
SMALL
NO_CHARGES


@<TRIPOS>ATOM
      1 OG         16.9400   35.0200   83.8300 O.3       1 SER1        0.0000 
      2 OG         21.4800   35.8600   84.9400 O.3       1 SER1        0.0000 
      3 OG         21.9900   37.4700   83.6600 O.3       1 SER1        0.0000 
      4 OG         22.2600   35.9900   83.6700 O.3       1 SER1        0.0000 
      5 OG         22.5300   34.5200   83.6800 O.3       1 SER1        0.0000 
      6 OG         22.4600   37.5700   85.7300 O.3       1 SER1        0.0000 
      7 N          18.2400   36.7700   81.2700 N.am      2 ALA2        0.0000 
      8 N          18.5100   35.2900   81.2800 N.am      2 ALA2        0.0000 
      9 N          19.4900   37.0000   82.0700 N.am      2 ALA2        0.0000 
     10 N          19.7600   35.5300   82.0800 N.am      2 ALA2        0.0000 
     11 N          20.8100   34.1900   80.8200 N.am      2 ALA2        0.0000 
     12 N          20.7400   37.2400   82.8600 N.am      2 ALA2        0.0000 
     13 N          21.0100   35.7600   82.8700 N.am      2 ALA2        0.0000 
     14 N          21.8000   35.8900   81.6000 N.am      2 ALA2        0.0000 
     15 N          22.0700   34.4200   81.6100 N.am      2 ALA2        0.0000 
     16 O          22.3300   32.9400   81.6200 O.2       2 ALA2        0.0000 
     17 N          20.4300   37.2000   86.2000 N.am      2 ALA2        0.0000 
     18 O          22.8000   33.0400   83.6900 O.2       2 ALA2        0.0000 
     19 O          23.0700   31.5700   83.7000 O.2       2 ALA2        0.0000 
     20 NZ         17.4400   30.5600   87.2000 N.4       3 LYS4        0.0000 
     21 NZ         17.7000   29.0900   87.2100 N.4       3 LYS4        0.0000 
     22 NZ         18.2200   30.7000   85.9200 N.4       3 LYS4        0.0000 
     23 NZ         19.0000   30.8300   84.6500 N.4       3 LYS4        0.0000 
     24 NZ         19.7900   30.9600   83.3800 N.4       3 LYS4        0.0000 
     25 NZ         17.9000   30.6600   89.2600 N.4       3 LYS4        0.0000 
     26 NZ         18.6900   30.7900   87.9900 N.4       3 LYS4        0.0000 
     27 NZ         18.9600   29.3200   88.0000 N.4       3 LYS4        0.0000 
     28 NZ         19.4700   30.9300   86.7200 N.4       3 LYS4        0.0000 
     29 NZ         20.2500   31.0600   85.4500 N.4       3 LYS4        0.0000 
     30 NZ         21.0400   31.2000   84.1700 N.4       3 LYS4        0.0000 
     31 CZ         15.9200   31.8000   86.3900 C.ar      4 PHE5        0.0000 
     32 CZ         17.1700   32.0400   87.1900 C.ar      4 PHE5        0.0000 
     33 CZ         19.2000   32.4000   86.7100 C.ar      4 PHE5        0.0000 
     34 CZ         19.9800   32.5400   85.4400 C.ar      4 PHE5        0.0000 
     35 CZ         19.6700   32.5000   88.7800 C.ar      4 PHE5        0.0000 
     36 CZ         19.9400   31.0300   88.7900 C.ar      4 PHE5        0.0000 
     37 CZ         19.9100   35.5900   87.4800 C.ar      4 PHE5        0.0000 
     38 CZ         20.1800   34.1100   87.4900 C.ar      4 PHE5        0.0000 
     39 CZ         20.4500   32.6400   87.5000 C.ar      4 PHE5        0.0000 
     40 CZ         20.7000   35.7200   86.2100 C.ar      4 PHE5        0.0000 
     41 CZ         20.9700   34.2500   86.2200 C.ar      4 PHE5        0.0000 
     42 CZ         21.2300   32.7700   86.2300 C.ar      4 PHE5        0.0000 
     43 CZ         21.7500   34.3800   84.9500 C.ar      4 PHE5        0.0000 
     44 CZ         22.0200   32.9100   84.9600 C.ar      4 PHE5        0.0000 
     45 CZ         21.9500   35.9600   87.0100 C.ar      4 PHE5        0.0000 
     46 CA         16.4300   33.4100   85.1100 C.3       5 GLY6        0.0000 
     47 CA         17.2100   33.5500   83.8400 C.3       5 GLY6        0.0000 
     48 CA         17.7300   35.1600   82.5600 C.3       5 GLY6        0.0000 
     49 CA         18.0000   33.6800   82.5700 C.3       5 GLY6        0.0000 
     50 CA         18.7800   33.8200   81.2900 C.3       5 GLY6        0.0000 
     51 CA         16.9000   33.5100   87.1800 C.3       5 GLY6        0.0000 
     52 CA         17.9500   32.1700   85.9100 C.3       5 GLY6        0.0000 
     53 CA         18.4600   33.7800   84.6300 C.3       5 GLY6        0.0000 
     54 CA         18.7300   32.3100   84.6400 C.3       5 GLY6        0.0000 
     55 CA         19.2500   33.9200   83.3600 C.3       5 GLY6        0.0000 
     56 CA         19.5200   32.4400   83.3700 C.3       5 GLY6        0.0000 
     57 CA         20.0300   34.0500   82.0900 C.3       5 GLY6        0.0000 
     58 CA         21.5500   32.8100   82.8900 C.3       5 GLY6        0.0000 
     59 CA         21.8200   31.3300   82.9000 C.3       5 GLY6        0.0000 
     60 CA         20.2100   29.5500   88.8000 C.3       5 GLY6        0.0000 
     61 CA         20.7200   31.1600   87.5100 C.3       5 GLY6        0.0000 
     62 CA         22.2900   31.4300   84.9700 C.3       5 GLY6        0.0000 
     63 CA         22.7800   37.6000   82.3900 C.3       5 GLY6        0.0000 
     64 CA         23.0500   36.1300   82.4000 C.3       5 GLY6        0.0000 
     65 CA         23.3200   34.6500   82.4100 C.3       5 GLY6        0.0000 
     66 CA         21.1600   35.8200   88.2800 C.3       5 GLY6        0.0000 
     67 CA         23.7800   34.7500   84.4700 C.3       5 GLY6        0.0000 
     68 CA         24.0500   33.2800   84.4800 C.3       5 GLY6        0.0000 
     69 DU         17.4100   35.1200   85.8900 H         6 CUB7        0.0000 
     70 DU         17.6800   33.6500   85.9000 H         6 CUB7        0.0000 
     71 DU         18.1900   35.2600   84.6200 H         6 CUB7        0.0000 
     72 DU         18.9800   35.3900   83.3500 H         6 CUB7        0.0000 
     73 DU         18.1500   33.7500   87.9700 H         6 CUB7        0.0000 
     74 DU         18.4200   32.2700   87.9800 H         6 CUB7        0.0000 
     75 DU         18.6600   35.3600   86.6900 H         6 CUB7        0.0000 
     76 DU         18.9300   33.8800   86.7000 H         6 CUB7        0.0000 
     77 DU         19.4500   35.4900   85.4200 H         6 CUB7        0.0000 
     78 DU         19.7100   34.0200   85.4300 H         6 CUB7        0.0000 
     79 DU         19.9600   37.1000   84.1400 H         6 CUB7        0.0000 
     80 DU         20.5000   34.1500   84.1600 H         6 CUB7        0.0000 
     81 DU         20.7700   32.6700   84.1600 H         6 CUB7        0.0000 
     82 DU         21.2800   34.2800   82.8800 H         6 CUB7        0.0000 
     83 DU         20.9400   38.8100   84.9200 H         6 CUB7        0.0000 
     84 DU         21.2100   37.3300   84.9300 H         6 CUB7        0.0000 
@<TRIPOS>BOND
@<TRIPOS>SUBSTRUCTURE
     1 SER1        1 GROUP   
     2 ALA2        7 GROUP   
     3 LYS4       20 GROUP   
     4 PHE5       31 GROUP   
     5 GLY6       46 GROUP   
     6 CUB7       69 GROUP   
@<TRIPOS>SET

