#    Name: 6huf_8_GNP
#    Modification time : Fri May 22 19:31:21 2020

@<TRIPOS>MOLECULE
6huf_8_GNP
   32    34     1     0     1
SMALL
NO_CHARGES


@<TRIPOS>ATOM
      1 PG         78.3480   39.6940   32.7290 P.3       1 GNP202      0.0000 
      2 O1G        77.2790   40.2310   31.7810 O.co2     1 GNP202      0.0000 
      3 O2G        79.3890   40.7460   33.1450 O.co2     1 GNP202      0.0000 
      4 O3G        77.5720   39.2020   33.9270 O.co2     1 GNP202      0.0000 
      5 N3B        79.0550   38.4480   31.9760 N.3       1 GNP202      0.0000 
      6 PB         78.1890   37.0880   31.8270 P.3       1 GNP202      0.0000 
      7 O1B        76.7460   37.4390   31.5940 O.co2     1 GNP202      0.0000 
      8 O2B        78.5310   36.2180   32.9960 O.co2     1 GNP202      0.0000 
      9 O3A        78.8960   36.1310   30.7220 O.3       1 GNP202      0.0000 
     10 PA         79.1740   36.1640   29.1320 P.3       1 GNP202      0.0000 
     11 O1A        77.9920   35.5170   28.4830 O.co2     1 GNP202      0.0000 
     12 O2A        79.5520   37.5860   28.8070 O.co2     1 GNP202      0.0000 
     13 O5'        80.4470   35.2320   28.9050 O.3       1 GNP202      0.0000 
     14 C5'        81.6420   36.0330   28.8300 C.3       1 GNP202      0.0000 
     15 C4'        82.6790   35.2250   28.1130 C.3       1 GNP202      0.0000 
     16 O4'        82.4970   33.8480   28.5210 O.3       1 GNP202      0.0000 
     17 C3'        82.5830   35.2190   26.5820 C.3       1 GNP202      0.0000 
     18 O3'        83.8440   35.0300   25.9430 O.3       1 GNP202      0.0000 
     19 C2'        81.7390   33.9740   26.3580 C.3       1 GNP202      0.0000 
     20 O2'        81.8680   33.5430   25.0210 O.3       1 GNP202      0.0000 
     21 C1'        82.4090   33.0630   27.3760 C.3       1 GNP202      0.0000 
     22 N9         81.6640   31.8720   27.7220 N.pl3     1 GNP202      0.0000 
     23 C8         80.4350   31.8130   28.3240 C.2       1 GNP202      0.0000 
     24 N7         79.9910   30.5910   28.4770 N.2       1 GNP202      0.0000 
     25 C5         81.0010   29.8030   27.9470 C.2       1 GNP202      0.0000 
     26 C6         81.0800   28.3970   27.8340 C.2       1 GNP202      0.0000 
     27 O6         80.2370   27.5590   28.1840 O.2       1 GNP202      0.0000 
     28 N1         82.2760   28.0030   27.2240 N.am      1 GNP202      0.0000 
     29 C2         83.2710   28.8500   26.7890 C.2       1 GNP202      0.0000 
     30 N2         84.3490   28.2740   26.2330 N.pl3     1 GNP202      0.0000 
     31 N3         83.1960   30.1800   26.8870 N.2       1 GNP202      0.0000 
     32 C4         82.0380   30.5780   27.4760 C.2       1 GNP202      0.0000 
@<TRIPOS>BOND
     1    1    2 ar   
     2    1    3 ar   
     3    1    4 ar   
     4    1    5 1    
     5    5    6 1    
     6    6    7 ar   
     7    6    8 ar   
     8    6    9 1    
     9    9   10 1    
    10   10   11 ar   
    11   10   12 ar   
    12   10   13 1    
    13   13   14 1    
    14   14   15 1    
    15   15   16 1    
    16   15   17 1    
    17   16   21 1    
    18   17   18 1    
    19   17   19 1    
    20   19   20 1    
    21   19   21 1    
    22   21   22 1    
    23   22   23 1    
    24   22   32 1    
    25   23   24 2    
    26   24   25 1    
    27   25   26 1    
    28   25   32 2    
    29   26   27 2    
    30   26   28 am   
    31   28   29 1    
    32   29   30 1    
    33   29   31 2    
    34   31   32 1    
@<TRIPOS>SUBSTRUCTURE
     1 GNP202      1 GROUP   
@<TRIPOS>SET
ATOM$ORANGE STATIC     ATOMS   COLORGROUP SYSTEM 
20 14 14 15 15 17 17 19 19 21 21 23 23 25 25 26 26 29 \
29 32 32 

