#    Name: 6huf_9_GNP
#    Modification time : Fri May 22 19:31:28 2020

@<TRIPOS>MOLECULE
6huf_9_GNP
   32    34     1     0     1
SMALL
NO_CHARGES


@<TRIPOS>ATOM
      1 PG         72.4780   56.1360   22.8930 P.3       1 GNP202      0.0000 
      2 O1G        71.2760   55.2430   23.0580 O.co2     1 GNP202      0.0000 
      3 O2G        73.7730   55.4600   23.2560 O.co2     1 GNP202      0.0000 
      4 O3G        72.1950   57.4470   23.6380 O.co2     1 GNP202      0.0000 
      5 N3B        72.5470   56.3770   21.3080 N.3       1 GNP202      0.0000 
      6 PB         71.2200   56.9720   20.5720 P.3       1 GNP202      0.0000 
      7 O1B        70.3110   55.7660   20.6460 O.co2     1 GNP202      0.0000 
      8 O2B        70.7600   58.3040   21.1560 O.co2     1 GNP202      0.0000 
      9 O3A        71.6680   57.4140   19.0710 O.3       1 GNP202      0.0000 
     10 PA         72.5760   58.6630   18.5930 P.3       1 GNP202      0.0000 
     11 O1A        71.7190   59.8270   18.2630 O.co2     1 GNP202      0.0000 
     12 O2A        73.6360   58.9360   19.6210 O.co2     1 GNP202      0.0000 
     13 O5'        73.2140   58.1380   17.2240 O.3       1 GNP202      0.0000 
     14 C5'        74.1390   57.0440   17.1640 C.3       1 GNP202      0.0000 
     15 C4'        74.8850   57.1140   15.8500 C.3       1 GNP202      0.0000 
     16 O4'        74.0010   56.8470   14.7180 O.3       1 GNP202      0.0000 
     17 C3'        75.5390   58.4640   15.5350 C.3       1 GNP202      0.0000 
     18 O3'        76.6530   58.2520   14.6790 O.3       1 GNP202      0.0000 
     19 C2'        74.4130   59.1410   14.7720 C.3       1 GNP202      0.0000 
     20 O2'        74.8440   60.3500   14.1770 O.3       1 GNP202      0.0000 
     21 C1'        74.0460   57.9630   13.8610 C.3       1 GNP202      0.0000 
     22 N9         72.7320   58.0600   13.2490 N.pl3     1 GNP202      0.0000 
     23 C8         71.5690   58.2360   13.9460 C.2       1 GNP202      0.0000 
     24 N7         70.5190   58.2830   13.1720 N.2       1 GNP202      0.0000 
     25 C5         71.0120   58.0730   11.8960 C.2       1 GNP202      0.0000 
     26 C6         70.3230   57.9620   10.6740 C.2       1 GNP202      0.0000 
     27 O6         69.1020   58.0100   10.4740 O.2       1 GNP202      0.0000 
     28 N1         71.1850   57.6730    9.6220 N.am      1 GNP202      0.0000 
     29 C2         72.5440   57.5740    9.7170 C.2       1 GNP202      0.0000 
     30 N2         73.2000   57.3420    8.5700 N.pl3     1 GNP202      0.0000 
     31 N3         73.2040   57.6960   10.8720 N.2       1 GNP202      0.0000 
     32 C4         72.3750   57.9320   11.9220 C.2       1 GNP202      0.0000 
@<TRIPOS>BOND
     1    1    2 ar   
     2    1    3 ar   
     3    1    4 ar   
     4    1    5 1    
     5    5    6 1    
     6    6    7 ar   
     7    6    8 ar   
     8    6    9 1    
     9    9   10 1    
    10   10   11 ar   
    11   10   12 ar   
    12   10   13 1    
    13   13   14 1    
    14   14   15 1    
    15   15   16 1    
    16   15   17 1    
    17   16   21 1    
    18   17   18 1    
    19   17   19 1    
    20   19   20 1    
    21   19   21 1    
    22   21   22 1    
    23   22   23 1    
    24   22   32 1    
    25   23   24 2    
    26   24   25 1    
    27   25   26 1    
    28   25   32 2    
    29   26   27 2    
    30   26   28 am   
    31   28   29 1    
    32   29   30 1    
    33   29   31 2    
    34   31   32 1    
@<TRIPOS>SUBSTRUCTURE
     1 GNP202      1 GROUP   
@<TRIPOS>SET
ATOM$ORANGE STATIC     ATOMS   COLORGROUP SYSTEM 
20 14 14 15 15 17 17 19 19 21 21 23 23 25 25 26 26 29 \
29 32 32 

