#    Name: 6huf_5_GNP_CAVITY_N1_ALL
#    Modification time : Fri May 22 19:31:10 2020

@<TRIPOS>MOLECULE
6huf_5_GNP_CAVITY_N1_ALL
   73     0     6     0     0
SMALL
NO_CHARGES


@<TRIPOS>ATOM
      1 OG          3.3900   55.3000   65.2400 O.3       1 SER1        0.0000 
      2 OG          6.2300   51.2400   64.7900 O.3       1 SER1        0.0000 
      3 OG          6.5000   49.7600   64.8000 O.3       1 SER1        0.0000 
      4 OG          7.0100   51.3700   63.5200 O.3       1 SER1        0.0000 
      5 OG          7.4800   51.4700   65.5800 O.3       1 SER1        0.0000 
      6 OG          7.7500   50.0000   65.5900 O.3       1 SER1        0.0000 
      7 OG          8.2600   51.6100   64.3100 O.3       1 SER1        0.0000 
      8 O           4.0400   50.8100   59.8600 O.2       2 ALA2        0.0000 
      9 O           6.2700   52.7500   61.4400 O.2       2 ALA2        0.0000 
     10 N           5.4400   51.1100   66.0600 N.am      2 ALA2        0.0000 
     11 N           5.7100   49.6300   66.0700 N.am      2 ALA2        0.0000 
     12 N           5.6900   54.1900   64.7700 N.am      2 ALA2        0.0000 
     13 N           6.2000   55.8000   63.4900 N.am      2 ALA2        0.0000 
     14 N           6.4700   54.3300   63.5000 N.am      2 ALA2        0.0000 
     15 N           6.9400   54.4200   65.5600 N.am      2 ALA2        0.0000 
     16 N           7.9900   53.0800   64.3000 N.am      2 ALA2        0.0000 
     17 NZ          0.1700   51.6500   62.8700 N.4       3 LYS4        0.0000 
     18 NZ          0.4400   50.1700   62.8800 N.4       3 LYS4        0.0000 
     19 NZ          2.2100   52.0200   62.4000 N.4       3 LYS4        0.0000 
     20 NZ          2.9900   52.1500   61.1200 N.4       3 LYS4        0.0000 
     21 NZ          3.7700   52.2800   59.8500 N.4       3 LYS4        0.0000 
     22 NZ          5.1500   57.1400   64.7500 N.4       3 LYS4        0.0000 
     23 CZ         -0.6100   51.5100   64.1400 C.ar      4 PHE5        0.0000 
     24 CZ         -0.1400   51.6100   66.2100 C.ar      4 PHE5        0.0000 
     25 CZ          1.1800   48.7900   64.9600 C.ar      4 PHE5        0.0000 
     26 CZ          1.6900   50.4000   63.6800 C.ar      4 PHE5        0.0000 
     27 CZ          2.4800   50.5400   62.4000 C.ar      4 PHE5        0.0000 
     28 CZ          2.9400   50.6400   64.4700 C.ar      4 PHE5        0.0000 
     29 CZ          3.7300   50.7700   63.2000 C.ar      4 PHE5        0.0000 
     30 CZ          4.5100   50.9100   61.9300 C.ar      4 PHE5        0.0000 
     31 CZ          4.1900   50.8700   65.2700 C.ar      4 PHE5        0.0000 
     32 CZ          4.4600   49.4000   65.2800 C.ar      4 PHE5        0.0000 
     33 CZ          4.9800   51.0100   63.9900 C.ar      4 PHE5        0.0000 
     34 CZ          5.7600   51.1400   62.7200 C.ar      4 PHE5        0.0000 
     35 CA          0.3700   53.2200   64.9300 C.3       5 GLY6        0.0000 
     36 CA          1.1500   53.3600   63.6600 C.3       5 GLY6        0.0000 
     37 CA          1.4200   51.8800   63.6700 C.3       5 GLY6        0.0000 
     38 CA          1.9400   53.4900   62.3900 C.3       5 GLY6        0.0000 
     39 CA          2.7200   53.6300   61.1100 C.3       5 GLY6        0.0000 
     40 CA          3.2600   50.6700   61.1300 C.3       5 GLY6        0.0000 
     41 CA          1.6400   48.8900   67.0300 C.3       5 GLY6        0.0000 
     42 CA          2.4300   49.0300   65.7500 C.3       5 GLY6        0.0000 
     43 CA          2.4000   53.5900   64.4500 C.3       5 GLY6        0.0000 
     44 CA          3.1900   53.7200   63.1800 C.3       5 GLY6        0.0000 
     45 CA          3.9700   53.8600   61.9100 C.3       5 GLY6        0.0000 
     46 CA          5.0200   52.5200   60.6500 C.3       5 GLY6        0.0000 
     47 CA          5.2900   51.0400   60.6600 C.3       5 GLY6        0.0000 
     48 CA          4.1700   55.4300   63.9700 C.3       5 GLY6        0.0000 
     49 CA          4.9500   55.5700   62.6900 C.3       5 GLY6        0.0000 
     50 CA          5.2200   54.0900   62.7000 C.3       5 GLY6        0.0000 
     51 CA          6.0100   54.2300   61.4300 C.3       5 GLY6        0.0000 
     52 CA          6.5400   51.2800   61.4500 C.3       5 GLY6        0.0000 
     53 CA          7.5300   52.9800   62.2400 C.3       5 GLY6        0.0000 
     54 DU         -0.3400   50.0400   64.1500 H         6 CUB7        0.0000 
     55 DU          0.1300   50.1400   66.2200 H         6 CUB7        0.0000 
     56 DU          0.6400   51.7500   64.9400 H         6 CUB7        0.0000 
     57 DU          0.9100   50.2700   64.9500 H         6 CUB7        0.0000 
     58 DU          1.1100   51.8400   67.0100 H         6 CUB7        0.0000 
     59 DU          1.3800   50.3700   67.0200 H         6 CUB7        0.0000 
     60 DU          1.8900   51.9800   65.7300 H         6 CUB7        0.0000 
     61 DU          2.1600   50.5000   65.7400 H         6 CUB7        0.0000 
     62 DU          2.6700   52.1100   64.4600 H         6 CUB7        0.0000 
     63 DU          3.4600   52.2500   63.1900 H         6 CUB7        0.0000 
     64 DU          4.2400   52.3800   61.9200 H         6 CUB7        0.0000 
     65 DU          3.4100   50.7400   66.5400 H         6 CUB7        0.0000 
     66 DU          3.6500   53.8200   65.2500 H         6 CUB7        0.0000 
     67 DU          3.9200   52.3500   65.2600 H         6 CUB7        0.0000 
     68 DU          4.4400   53.9600   63.9800 H         6 CUB7        0.0000 
     69 DU          4.7100   52.4800   63.9800 H         6 CUB7        0.0000 
     70 DU          5.4900   52.6200   62.7100 H         6 CUB7        0.0000 
     71 DU          5.9600   52.7200   64.7800 H         6 CUB7        0.0000 
     72 DU          6.7400   52.8500   63.5100 H         6 CUB7        0.0000 
     73 DU          7.2100   52.9500   65.5700 H         6 CUB7        0.0000 
@<TRIPOS>BOND
@<TRIPOS>SUBSTRUCTURE
     1 SER1        1 GROUP   
     2 ALA2        8 GROUP   
     3 LYS4       17 GROUP   
     4 PHE5       23 GROUP   
     5 GLY6       35 GROUP   
     6 CUB7       54 GROUP   
@<TRIPOS>SET

