#    Name: 6huf_3_GNP
#    Modification time : Fri May 22 19:30:48 2020

@<TRIPOS>MOLECULE
6huf_3_GNP
   32    34     1     0     1
SMALL
NO_CHARGES


@<TRIPOS>ATOM
      1 PG         -3.3200   51.5110   79.8670 P.3       1 GNP202      0.0000 
      2 O1G        -4.3780   52.5870   79.9850 O.co2     1 GNP202      0.0000 
      3 O2G        -2.0290   51.7960   80.5970 O.co2     1 GNP202      0.0000 
      4 O3G        -4.0940   50.3480   80.4600 O.co2     1 GNP202      0.0000 
      5 N3B        -3.0050   51.2880   78.2770 N.3       1 GNP202      0.0000 
      6 PB         -4.2180   50.8230   77.2960 P.3       1 GNP202      0.0000 
      7 O1B        -5.2620   51.9080   77.2160 O.co2     1 GNP202      0.0000 
      8 O2B        -4.6380   49.4140   77.6750 O.co2     1 GNP202      0.0000 
      9 O3A        -3.5930   50.7550   75.8280 O.3       1 GNP202      0.0000 
     10 PA         -3.2940   51.9860   74.8530 P.3       1 GNP202      0.0000 
     11 O1A        -4.5640   52.4700   74.2550 O.co2     1 GNP202      0.0000 
     12 O2A        -2.4300   52.9030   75.6770 O.co2     1 GNP202      0.0000 
     13 O5'        -2.4900   51.3080   73.6520 O.3       1 GNP202      0.0000 
     14 C5'        -1.1720   50.8580   73.9580 C.3       1 GNP202      0.0000 
     15 C4'        -0.4100   50.7590   72.6720 C.3       1 GNP202      0.0000 
     16 O4'        -1.1600   49.8790   71.8200 O.3       1 GNP202      0.0000 
     17 C3'        -0.2360   52.0650   71.8930 C.3       1 GNP202      0.0000 
     18 O3'         1.0600   52.0810   71.3090 O.3       1 GNP202      0.0000 
     19 C2'        -1.4000   52.0210   70.8960 C.3       1 GNP202      0.0000 
     20 O2'        -1.2140   52.6700   69.6520 O.3       1 GNP202      0.0000 
     21 C1'        -1.4610   50.5340   70.6170 C.3       1 GNP202      0.0000 
     22 N9         -2.7670   50.0720   70.1660 N.pl3     1 GNP202      0.0000 
     23 C8         -3.9630   50.0520   70.8430 C.2       1 GNP202      0.0000 
     24 N7         -4.9400   49.5210   70.1440 N.2       1 GNP202      0.0000 
     25 C5         -4.3430   49.1690   68.9380 C.2       1 GNP202      0.0000 
     26 C6         -4.8900   48.5520   67.7860 C.2       1 GNP202      0.0000 
     27 O6         -6.0570   48.1620   67.6020 O.2       1 GNP202      0.0000 
     28 N1         -3.9110   48.3800   66.7960 N.am      1 GNP202      0.0000 
     29 C2         -2.5940   48.7760   66.8870 C.2       1 GNP202      0.0000 
     30 N2         -1.7980   48.5420   65.8340 N.pl3     1 GNP202      0.0000 
     31 N3         -2.0770   49.3330   67.9740 N.2       1 GNP202      0.0000 
     32 C4         -3.0070   49.5020   68.9430 C.2       1 GNP202      0.0000 
@<TRIPOS>BOND
     1    1    2 ar   
     2    1    3 ar   
     3    1    4 ar   
     4    1    5 1    
     5    5    6 1    
     6    6    7 ar   
     7    6    8 ar   
     8    6    9 1    
     9    9   10 1    
    10   10   11 ar   
    11   10   12 ar   
    12   10   13 1    
    13   13   14 1    
    14   14   15 1    
    15   15   16 1    
    16   15   17 1    
    17   16   21 1    
    18   17   18 1    
    19   17   19 1    
    20   19   20 1    
    21   19   21 1    
    22   21   22 1    
    23   22   23 1    
    24   22   32 1    
    25   23   24 2    
    26   24   25 1    
    27   25   26 1    
    28   25   32 2    
    29   26   27 2    
    30   26   28 am   
    31   28   29 1    
    32   29   30 1    
    33   29   31 2    
    34   31   32 1    
@<TRIPOS>SUBSTRUCTURE
     1 GNP202      1 GROUP   
@<TRIPOS>SET
ATOM$ORANGE STATIC     ATOMS   COLORGROUP SYSTEM 
20 14 14 15 15 17 17 19 19 21 21 23 23 25 25 26 26 29 \
29 32 32 

