#    Name: 6huf_10_GNP_CAVITY_N1_4
#    Modification time : Fri May 22 19:31:36 2020

@<TRIPOS>MOLECULE
6huf_10_GNP_CAVITY_N1_4
   71     0     6     0     0
SMALL
NO_CHARGES


@<TRIPOS>ATOM
      1 OG         88.8000   75.2200   29.7500 O.3       1 SER1        0.0000 
      2 OG         86.9200   74.9200   35.6300 O.3       1 SER1        0.0000 
      3 OG         87.1900   73.4400   35.6400 O.3       1 SER1        0.0000 
      4 OG         88.1700   75.1500   36.4300 O.3       1 SER1        0.0000 
      5 OG         89.2200   73.8100   35.1600 O.3       1 SER1        0.0000 
      6 N          85.9900   74.7200   31.5000 N.am      2 ALA2        0.0000 
      7 N          86.2600   73.2400   31.5100 N.am      2 ALA2        0.0000 
      8 N          85.4000   76.1600   34.8300 N.am      2 ALA2        0.0000 
      9 N          86.1800   76.2900   33.5500 N.am      2 ALA2        0.0000 
     10 N          86.4500   74.8200   33.5600 N.am      2 ALA2        0.0000 
     11 N          86.7200   73.3400   33.5700 N.am      2 ALA2        0.0000 
     12 N          86.9900   71.8700   33.5800 N.am      2 ALA2        0.0000 
     13 N          87.2400   74.9500   32.2900 N.am      2 ALA2        0.0000 
     14 N          87.5100   73.4800   32.3000 N.am      2 ALA2        0.0000 
     15 O          86.3800   77.8700   35.6100 O.2       2 ALA2        0.0000 
     16 O          86.6500   76.3900   35.6200 O.2       2 ALA2        0.0000 
     17 O          88.4200   78.2400   35.1300 O.2       2 ALA2        0.0000 
     18 N          90.2800   72.4700   33.9000 N.am      2 ALA2        0.0000 
     19 NZ         86.7700   74.8500   30.2300 N.4       3 LYS4        0.0000 
     20 NZ         89.2000   78.3700   33.8600 N.4       3 LYS4        0.0000 
     21 NZ         89.9800   78.5100   32.5900 N.4       3 LYS4        0.0000 
     22 NZ         91.2300   78.7400   33.3900 N.4       3 LYS4        0.0000 
     23 NZ         92.0200   78.8700   32.1100 N.4       3 LYS4        0.0000 
     24 NZ         93.2700   79.1100   32.9100 N.4       3 LYS4        0.0000 
     25 CZ         87.9000   76.6300   36.4200 C.ar      4 PHE5        0.0000 
     26 CZ         88.6900   76.7600   35.1400 C.ar      4 PHE5        0.0000 
     27 CZ         88.9500   75.2900   35.1500 C.ar      4 PHE5        0.0000 
     28 CZ         89.4700   76.9000   33.8700 C.ar      4 PHE5        0.0000 
     29 CZ         89.7400   75.4200   33.8800 C.ar      4 PHE5        0.0000 
     30 CZ         91.5000   77.2600   33.4000 C.ar      4 PHE5        0.0000 
     31 CZ         91.7700   75.7900   33.4100 C.ar      4 PHE5        0.0000 
     32 CZ         93.0700   77.5300   30.8500 C.ar      4 PHE5        0.0000 
     33 CZ         92.7500   77.5000   34.1900 C.ar      4 PHE5        0.0000 
     34 CZ         93.0200   76.0200   34.2000 C.ar      4 PHE5        0.0000 
     35 CA         85.7200   76.2000   31.4900 C.3       5 GLY6        0.0000 
     36 CA         85.6700   74.6800   34.8400 C.3       5 GLY6        0.0000 
     37 CA         85.9400   73.2100   34.8500 C.3       5 GLY6        0.0000 
     38 CA         86.9700   76.4300   32.2800 C.3       5 GLY6        0.0000 
     39 CA         87.7500   76.5600   31.0100 C.3       5 GLY6        0.0000 
     40 CA         88.0200   75.0900   31.0200 C.3       5 GLY6        0.0000 
     41 CA         87.1700   78.0000   34.3400 C.3       5 GLY6        0.0000 
     42 CA         87.9500   78.1400   33.0700 C.3       5 GLY6        0.0000 
     43 CA         88.7300   78.2700   31.8000 C.3       5 GLY6        0.0000 
     44 CA         89.0000   76.8000   31.8100 C.3       5 GLY6        0.0000 
     45 CA         89.7900   76.9300   30.5300 C.3       5 GLY6        0.0000 
     46 CA         90.0500   75.4600   30.5400 C.3       5 GLY6        0.0000 
     47 CA         87.6300   78.1000   36.4100 C.3       5 GLY6        0.0000 
     48 CA         91.0400   77.1600   31.3300 C.3       5 GLY6        0.0000 
     49 CA         91.8200   77.3000   30.0600 C.3       5 GLY6        0.0000 
     50 CA         92.0900   75.8200   30.0700 C.3       5 GLY6        0.0000 
     51 CA         90.4500   78.6000   34.6600 C.3       5 GLY6        0.0000 
     52 CA         92.0400   74.3100   33.4100 C.3       5 GLY6        0.0000 
     53 CA         92.5300   80.4800   30.8300 C.3       5 GLY6        0.0000 
     54 CA         92.8000   79.0100   30.8400 C.3       5 GLY6        0.0000 
     55 CA         92.4800   78.9700   34.1800 C.3       5 GLY6        0.0000 
     56 CA         94.0500   79.2400   31.6400 C.3       5 GLY6        0.0000 
     57 DU         87.4300   76.5300   34.3500 H         6 CUB7        0.0000 
     58 DU         87.7000   75.0500   34.3600 H         6 CUB7        0.0000 
     59 DU         87.9700   73.5800   34.3700 H         6 CUB7        0.0000 
     60 DU         88.2400   72.1000   34.3800 H         6 CUB7        0.0000 
     61 DU         88.2200   76.6600   33.0800 H         6 CUB7        0.0000 
     62 DU         88.4900   75.1900   33.0900 H         6 CUB7        0.0000 
     63 DU         89.2700   75.3200   31.8200 H         6 CUB7        0.0000 
     64 DU         90.0100   73.9400   33.8900 H         6 CUB7        0.0000 
     65 DU         90.2500   77.0300   32.6000 H         6 CUB7        0.0000 
     66 DU         90.5200   75.5500   32.6100 H         6 CUB7        0.0000 
     67 DU         90.7900   74.0800   32.6200 H         6 CUB7        0.0000 
     68 DU         91.3100   75.6900   31.3400 H         6 CUB7        0.0000 
     69 DU         92.2900   77.4000   32.1200 H         6 CUB7        0.0000 
     70 DU         92.5600   75.9200   32.1300 H         6 CUB7        0.0000 
     71 DU         93.5400   77.6300   32.9200 H         6 CUB7        0.0000 
@<TRIPOS>BOND
@<TRIPOS>SUBSTRUCTURE
     1 SER1        1 GROUP   
     2 ALA2        6 GROUP   
     3 LYS4       19 GROUP   
     4 PHE5       25 GROUP   
     5 GLY6       35 GROUP   
     6 CUB7       57 GROUP   
@<TRIPOS>SET

