#    Name: 6awu_5_DHC_CAVITY_N1_8
#    Modification time : Fri May 22 19:27:40 2020

@<TRIPOS>MOLECULE
6awu_5_DHC_CAVITY_N1_8
   22     0     4     0     0
SMALL
NO_CHARGES


@<TRIPOS>ATOM
      1 OG         49.8800   38.7900   11.3500 O.3       1 SER1        0.0000 
      2 OG         51.0400   40.9700   10.5200 O.3       1 SER1        0.0000 
      3 OG         51.0500   43.0900   10.6700 O.3       1 SER1        0.0000 
      4 OG         50.1500   40.7300   14.0800 O.3       1 SER1        0.0000 
      5 OG         49.4700   41.8500   13.3600 O.3       1 SER1        0.0000 
      6 CZ         51.7000   37.7300   11.1000 C.ar      2 PHE5        0.0000 
      7 CZ         51.0200   38.8500   10.3700 C.ar      2 PHE5        0.0000 
      8 CZ         51.2500   36.5500   12.8000 C.ar      2 PHE5        0.0000 
      9 CZ         50.5700   37.6700   12.0800 C.ar      2 PHE5        0.0000 
     10 CZ         51.7200   39.8500   11.2500 C.ar      2 PHE5        0.0000 
     11 CZ         50.3500   42.0900    9.8000 C.ar      2 PHE5        0.0000 
     12 CZ         49.9000   40.9100   11.5000 C.ar      2 PHE5        0.0000 
     13 CA         52.4000   38.7300   11.9700 C.3       3 GLY6        0.0000 
     14 CA         51.2700   38.6700   12.9500 C.3       3 GLY6        0.0000 
     15 CA         50.5900   39.7900   12.2300 C.3       3 GLY6        0.0000 
     16 CA         50.1400   38.6100   13.9300 C.3       3 GLY6        0.0000 
     17 CA         49.4500   39.7300   13.2100 C.3       3 GLY6        0.0000 
     18 CA         51.7400   41.9600   11.4000 C.3       3 GLY6        0.0000 
     19 CA         50.6000   41.9100   12.3800 C.3       3 GLY6        0.0000 
     20 CA         51.7600   44.0800   11.5500 C.3       3 GLY6        0.0000 
     21 CA         50.6200   44.0200   12.5300 C.3       3 GLY6        0.0000 
     22 DU         49.9200   43.0300   11.6500 H         4 CUB7        0.0000 
@<TRIPOS>BOND
@<TRIPOS>SUBSTRUCTURE
     1 SER1        1 GROUP   
     2 PHE5        6 GROUP   
     3 GLY6       13 GROUP   
     4 CUB7       22 GROUP   
@<TRIPOS>SET

