#    Name: 6awu_6_DHC
#    Modification time : Fri May 22 19:27:42 2020

@<TRIPOS>MOLECULE
6awu_6_DHC
   13    13     1     0     0
SMALL
NO_CHARGES


@<TRIPOS>ATOM
      1 C1         49.4200   45.1740   10.6840 C.2       1 DHC202      0.0000 
      2 O1         50.4060   45.3130    9.9510 O.co2     1 DHC202      0.0000 
      3 C2         49.2200   43.8790   11.3800 C.2       1 DHC202      0.0000 
      4 C3         50.0770   42.8510   11.2010 C.2       1 DHC202      0.0000 
      5 C1'        49.9170   41.5020   11.8220 C.ar      1 DHC202      0.0000 
      6 C2'        50.8260   40.5000   11.4520 C.ar      1 DHC202      0.0000 
      7 C3'        50.7170   39.2000   11.9800 C.ar      1 DHC202      0.0000 
      8 C4'        49.6160   38.8760   12.9290 C.ar      1 DHC202      0.0000 
      9 C5'        48.7300   39.8950   13.2630 C.ar      1 DHC202      0.0000 
     10 C6'        48.8800   41.1780   12.7180 C.ar      1 DHC202      0.0000 
     11 O4'        49.4960   37.6170   13.4540 O.3       1 DHC202      0.0000 
     12 O3'        51.5990   38.2090   11.6490 O.3       1 DHC202      0.0000 
     13 O2         48.6000   46.1140   10.7750 O.co2     1 DHC202      0.0000 
@<TRIPOS>BOND
     1    1    2 ar   
     2    1    3 1    
     3    1   13 ar   
     4    3    4 2    
     5    4    5 1    
     6    5    6 ar   
     7    5   10 ar   
     8    6    7 ar   
     9    7    8 ar   
    10    7   12 1    
    11    8    9 ar   
    12    8   11 1    
    13    9   10 ar   
@<TRIPOS>SUBSTRUCTURE
     1 DHC202      1 GROUP   
@<TRIPOS>SET

