#    Name: 6awu_3_DHC
#    Modification time : Fri May 22 19:27:36 2020

@<TRIPOS>MOLECULE
6awu_3_DHC
   13    13     1     0     0
SMALL
NO_CHARGES


@<TRIPOS>ATOM
      1 C1         26.0500   18.8980   37.3130 C.2       1 DHC201      0.0000 
      2 O1         27.3610   19.0260   37.5030 O.co2     1 DHC201      0.0000 
      3 C2         25.3080   20.0810   36.8570 C.2       1 DHC201      0.0000 
      4 C3         25.7810   21.3140   37.0990 C.2       1 DHC201      0.0000 
      5 C1'        25.0010   22.5180   36.6870 C.ar      1 DHC201      0.0000 
      6 C2'        25.3310   23.7730   37.1990 C.ar      1 DHC201      0.0000 
      7 C3'        24.5790   24.8900   36.8010 C.ar      1 DHC201      0.0000 
      8 C4'        23.4480   24.7600   35.8620 C.ar      1 DHC201      0.0000 
      9 C5'        23.1690   23.4980   35.3670 C.ar      1 DHC201      0.0000 
     10 C6'        23.9340   22.4110   35.7510 C.ar      1 DHC201      0.0000 
     11 O4'        22.7350   25.8790   35.5040 O.3       1 DHC201      0.0000 
     12 O3'        24.8470   26.1420   37.2580 O.3       1 DHC201      0.0000 
     13 O2         25.3930   17.8090   37.5110 O.co2     1 DHC201      0.0000 
@<TRIPOS>BOND
     1    1    2 ar   
     2    1    3 1    
     3    1   13 ar   
     4    3    4 2    
     5    4    5 1    
     6    5    6 ar   
     7    5   10 ar   
     8    6    7 ar   
     9    7    8 ar   
    10    7   12 1    
    11    8    9 ar   
    12    8   11 1    
    13    9   10 ar   
@<TRIPOS>SUBSTRUCTURE
     1 DHC201      1 GROUP   
@<TRIPOS>SET

