#    Name: 6awu_7_DHC_CAVITY_N1_8
#    Modification time : Fri May 22 19:27:46 2020

@<TRIPOS>MOLECULE
6awu_7_DHC_CAVITY_N1_8
   18     0     4     0     0
SMALL
NO_CHARGES


@<TRIPOS>ATOM
      1 OG         53.7100   53.9300   37.3600 O.3       1 SER1        0.0000 
      2 OG         53.0200   55.0500   36.6400 O.3       1 SER1        0.0000 
      3 OG         51.2200   58.2300   37.0500 O.3       1 SER1        0.0000 
      4 NZ         49.8300   58.3500   35.4500 N.4       2 LYS4        0.0000 
      5 CZ         50.5200   57.2300   36.1700 C.ar      3 PHE5        0.0000 
      6 CZ         52.3600   58.2900   36.0700 C.ar      3 PHE5        0.0000 
      7 CA         53.4300   52.0000   34.6400 C.3       4 GLY6        0.0000 
      8 CA         52.7500   53.1200   33.9100 C.3       4 GLY6        0.0000 
      9 CA         50.9300   54.1800   34.1700 C.3       4 GLY6        0.0000 
     10 CA         50.2500   55.3000   33.4400 C.3       4 GLY6        0.0000 
     11 CA         54.1400   52.9900   35.5100 C.3       4 GLY6        0.0000 
     12 CA         52.3200   54.0600   35.7700 C.3       4 GLY6        0.0000 
     13 CA         51.6300   55.1800   35.0400 C.3       4 GLY6        0.0000 
     14 CA         50.9500   56.3000   34.3200 C.3       4 GLY6        0.0000 
     15 CA         54.8400   53.9900   36.3800 C.3       4 GLY6        0.0000 
     16 CA         52.3400   56.1700   35.9200 C.3       4 GLY6        0.0000 
     17 CA         51.6500   57.2900   35.1900 C.3       4 GLY6        0.0000 
     18 CA         50.9700   58.4100   34.4700 C.3       4 GLY6        0.0000 
@<TRIPOS>BOND
@<TRIPOS>SUBSTRUCTURE
     1 SER1        1 GROUP   
     2 LYS4        4 GROUP   
     3 PHE5        5 GROUP   
     4 GLY6        7 GROUP   
@<TRIPOS>SET

