#    Name: 6awu_7_DHC
#    Modification time : Fri May 22 19:27:45 2020

@<TRIPOS>MOLECULE
6awu_7_DHC
   13    13     1     0     0
SMALL
NO_CHARGES


@<TRIPOS>ATOM
      1 C1         63.2620   55.4880   34.9670 C.2       1 DHC201      0.0000 
      2 O1         64.4920   55.5710   35.1270 O.co2     1 DHC201      0.0000 
      3 C2         62.6030   56.6230   34.2770 C.2       1 DHC201      0.0000 
      4 C3         61.2770   56.6790   34.0850 C.2       1 DHC201      0.0000 
      5 C1'        60.5750   57.8100   33.3990 C.ar      1 DHC201      0.0000 
      6 C2'        59.1990   57.7010   33.2160 C.ar      1 DHC201      0.0000 
      7 C3'        58.4600   58.7050   32.5920 C.ar      1 DHC201      0.0000 
      8 C4'        59.1550   59.9340   32.0880 C.ar      1 DHC201      0.0000 
      9 C5'        60.5240   59.9820   32.2900 C.ar      1 DHC201      0.0000 
     10 C6'        61.2170   58.9580   32.9320 C.ar      1 DHC201      0.0000 
     11 O4'        58.5360   61.0070   31.4690 O.3       1 DHC201      0.0000 
     12 O3'        57.1140   58.5200   32.4800 O.3       1 DHC201      0.0000 
     13 O2         62.6190   54.4980   35.3980 O.co2     1 DHC201      0.0000 
@<TRIPOS>BOND
     1    1    2 ar   
     2    1    3 1    
     3    1   13 ar   
     4    3    4 2    
     5    4    5 1    
     6    5    6 ar   
     7    5   10 ar   
     8    6    7 ar   
     9    7    8 ar   
    10    7   12 1    
    11    8    9 ar   
    12    8   11 1    
    13    9   10 ar   
@<TRIPOS>SUBSTRUCTURE
     1 DHC201      1 GROUP   
@<TRIPOS>SET

