#    Name: 6awu_5_DHC_CAVITY_N1_6
#    Modification time : Fri May 22 19:27:40 2020

@<TRIPOS>MOLECULE
6awu_5_DHC_CAVITY_N1_6
    2     0     2     0     0
SMALL
NO_CHARGES


@<TRIPOS>ATOM
      1 CZ         51.7200   39.8500   11.2500 C.ar      1 PHE5        0.0000 
      2 CA         52.4000   38.7300   11.9700 C.3       2 GLY6        0.0000 
@<TRIPOS>BOND
@<TRIPOS>SUBSTRUCTURE
     1 PHE5        1 GROUP   
     2 GLY6        2 GROUP   
@<TRIPOS>SET

