#    Name: 6awu_7_DHC_CAVITY_N1_6
#    Modification time : Fri May 22 19:27:46 2020

@<TRIPOS>MOLECULE
6awu_7_DHC_CAVITY_N1_6
    1     0     1     0     0
SMALL
NO_CHARGES


@<TRIPOS>ATOM
      1 CZ         52.3600   58.2900   36.0700 C.ar      1 PHE5        0.0000 
@<TRIPOS>BOND
@<TRIPOS>SUBSTRUCTURE
     1 PHE5        1 GROUP   
@<TRIPOS>SET

