#    Name: 6awu_8_DHC
#    Modification time : Fri May 22 19:27:48 2020

@<TRIPOS>MOLECULE
6awu_8_DHC
   13    13     1     0     0
SMALL
NO_CHARGES


@<TRIPOS>ATOM
      1 C1         52.1250   50.8650   37.1240 C.2       1 DHC202      0.0000 
      2 O1         53.4850   50.7290   36.7620 O.co2     1 DHC202      0.0000 
      3 C2         51.4410   52.0420   36.5600 C.2       1 DHC202      0.0000 
      4 C3         52.1560   53.1080   36.1540 C.2       1 DHC202      0.0000 
      5 C1'        51.3970   54.3090   35.6980 C.ar      1 DHC202      0.0000 
      6 C2'        51.8740   55.6070   35.8940 C.ar      1 DHC202      0.0000 
      7 C3'        51.0920   56.7130   35.5340 C.ar      1 DHC202      0.0000 
      8 C4'        49.7430   56.5010   34.9560 C.ar      1 DHC202      0.0000 
      9 C5'        49.3100   55.1980   34.7860 C.ar      1 DHC202      0.0000 
     10 C6'        50.1150   54.1250   35.1410 C.ar      1 DHC202      0.0000 
     11 O4'        48.9670   57.5680   34.5990 O.3       1 DHC202      0.0000 
     12 O3'        51.5320   57.9960   35.6960 O.3       1 DHC202      0.0000 
     13 O2         51.4050   50.0840   37.9460 O.co2     1 DHC202      0.0000 
@<TRIPOS>BOND
     1    1    2 ar   
     2    1    3 1    
     3    1   13 ar   
     4    3    4 2    
     5    4    5 1    
     6    5    6 ar   
     7    5   10 ar   
     8    6    7 ar   
     9    7    8 ar   
    10    7   12 1    
    11    8    9 ar   
    12    8   11 1    
    13    9   10 ar   
@<TRIPOS>SUBSTRUCTURE
     1 DHC202      1 GROUP   
@<TRIPOS>SET

