#    Name: 6awu_5_DHC
#    Modification time : Fri May 22 19:27:39 2020

@<TRIPOS>MOLECULE
6awu_5_DHC
   13    13     1     0     0
SMALL
NO_CHARGES


@<TRIPOS>ATOM
      1 C1         61.1580   45.0780    9.5020 C.2       1 DHC201      0.0000 
      2 O1         62.2530   45.4540    9.0220 O.co2     1 DHC201      0.0000 
      3 C2         61.1320   43.7760   10.2070 C.2       1 DHC201      0.0000 
      4 C3         59.9820   43.2910   10.6840 C.2       1 DHC201      0.0000 
      5 C1'        59.8760   42.0060   11.4100 C.ar      1 DHC201      0.0000 
      6 C2'        58.6330   41.7020   11.9730 C.ar      1 DHC201      0.0000 
      7 C3'        58.4400   40.5240   12.7100 C.ar      1 DHC201      0.0000 
      8 C4'        59.6110   39.5860   12.8770 C.ar      1 DHC201      0.0000 
      9 C5'        60.8250   39.9280   12.2920 C.ar      1 DHC201      0.0000 
     10 C6'        60.9540   41.1220   11.5780 C.ar      1 DHC201      0.0000 
     11 O4'        59.5390   38.4080   13.5650 O.3       1 DHC201      0.0000 
     12 O3'        57.1990   40.2600   13.2410 O.3       1 DHC201      0.0000 
     13 O2         60.1150   45.7750    9.3920 O.co2     1 DHC201      0.0000 
@<TRIPOS>BOND
     1    1    2 ar   
     2    1    3 1    
     3    1   13 ar   
     4    3    4 2    
     5    4    5 1    
     6    5    6 ar   
     7    5   10 ar   
     8    6    7 ar   
     9    7    8 ar   
    10    7   12 1    
    11    8    9 ar   
    12    8   11 1    
    13    9   10 ar   
@<TRIPOS>SUBSTRUCTURE
     1 DHC201      1 GROUP   
@<TRIPOS>SET

