#    Name: 6c4j_6_UPG
#    Modification time : Fri May 22 19:33:33 2020

@<TRIPOS>MOLECULE
6c4j_6_UPG
   36    38     1     0     0
SMALL
NO_CHARGES


@<TRIPOS>ATOM
      1 N1        -83.2420   -5.5940   33.0640 N.am      1 UPG502      0.0000 
      2 C2        -82.0520   -4.9710   32.6810 C.2       1 UPG502      0.0000 
      3 N3        -82.0100   -4.3110   31.4730 N.am      1 UPG502      0.0000 
      4 C4        -83.1020   -4.2880   30.7040 C.2       1 UPG502      0.0000 
      5 C5        -84.3120   -4.9280   31.0990 C.2       1 UPG502      0.0000 
      6 C6        -84.3500   -5.5850   32.3020 C.2       1 UPG502      0.0000 
      7 O2        -81.0490   -4.9930   33.3960 O.2       1 UPG502      0.0000 
      8 O4        -82.9870   -3.6820   29.6520 O.2       1 UPG502      0.0000 
      9 C1C       -83.2610   -6.2980   34.3610 C.3       1 UPG502      0.0000 
     10 C2C       -84.2490   -5.7520   35.3810 C.3       1 UPG502      0.0000 
     11 O2C       -83.7300   -4.6090   36.1070 O.3       1 UPG502      0.0000 
     12 C3C       -84.4640   -6.9730   36.3010 C.3       1 UPG502      0.0000 
     13 C4C       -84.2740   -8.1440   35.3430 C.3       1 UPG502      0.0000 
     14 O4C       -83.6220   -7.6220   34.1430 O.3       1 UPG502      0.0000 
     15 O3C       -83.5240   -7.0050   37.3860 O.3       1 UPG502      0.0000 
     16 C5C       -85.5530   -8.8110   34.9360 C.3       1 UPG502      0.0000 
     17 O5C       -86.4770   -7.7470   34.6700 O.3       1 UPG502      0.0000 
     18 PA        -87.8970   -8.1350   34.0700 P.3       1 UPG502      0.0000 
     19 O1A       -88.8630   -7.0290   33.9710 O.co2     1 UPG502      0.0000 
     20 O2A       -87.7230   -8.9630   32.8490 O.co2     1 UPG502      0.0000 
     21 O3A       -88.4010   -9.0120   35.3560 O.3       1 UPG502      0.0000 
     22 PB        -89.4490  -10.1430   35.6460 P.3       1 UPG502      0.0000 
     23 O1B       -88.8530  -11.2490   36.3910 O.co2     1 UPG502      0.0000 
     24 O2B       -90.5400   -9.3560   36.2900 O.co2     1 UPG502      0.0000 
     25 O3B       -89.9170  -10.7370   34.1960 O.3       1 UPG502      0.0000 
     26 C1'       -89.1480  -11.6600   33.4910 C.3       1 UPG502      0.0000 
     27 C2'       -89.6260  -11.6580   32.0220 C.3       1 UPG502      0.0000 
     28 C3'       -91.0180  -12.2450   31.9270 C.3       1 UPG502      0.0000 
     29 C4'       -91.0980  -13.6140   32.5720 C.3       1 UPG502      0.0000 
     30 C5'       -90.6180  -13.4890   34.0190 C.3       1 UPG502      0.0000 
     31 C6'       -90.5780  -14.8130   34.7610 C.3       1 UPG502      0.0000 
     32 O2'       -89.6580  -10.2970   31.5410 O.3       1 UPG502      0.0000 
     33 O3'       -91.3940  -12.4090   30.5490 O.3       1 UPG502      0.0000 
     34 O4'       -92.4670  -14.0220   32.5910 O.3       1 UPG502      0.0000 
     35 O5'       -89.2650  -12.9870   34.0560 O.3       1 UPG502      0.0000 
     36 O6'       -90.7840  -15.9600   33.8950 O.3       1 UPG502      0.0000 
@<TRIPOS>BOND
     1    1    2 1    
     2    1    6 1    
     3    1    9 1    
     4    2    3 1    
     5    2    7 2    
     6    3    4 1    
     7    4    5 1    
     8    4    8 2    
     9    5    6 2    
    10    9   10 1    
    11    9   14 1    
    12   10   11 1    
    13   10   12 1    
    14   12   13 1    
    15   12   15 1    
    16   13   14 1    
    17   13   16 1    
    18   16   17 1    
    19   17   18 1    
    20   18   19 ar   
    21   18   20 ar   
    22   18   21 1    
    23   21   22 1    
    24   22   23 ar   
    25   22   24 ar   
    26   22   25 1    
    27   25   26 1    
    28   26   27 1    
    29   26   35 1    
    30   27   28 1    
    31   27   32 1    
    32   28   29 1    
    33   28   33 1    
    34   29   30 1    
    35   29   34 1    
    36   30   31 1    
    37   30   35 1    
    38   31   36 1    
@<TRIPOS>SUBSTRUCTURE
     1 UPG502      1 GROUP   
@<TRIPOS>SET

