#    Name: 6c4j_2_UPG
#    Modification time : Fri May 22 19:32:39 2020

@<TRIPOS>MOLECULE
6c4j_2_UPG
   36    38     1     0     0
SMALL
NO_CHARGES


@<TRIPOS>ATOM
      1 N1        -66.9920  -58.7270   42.0680 N.am      1 UPG502      0.0000 
      2 C2        -67.7280  -58.2780   40.9580 C.2       1 UPG502      0.0000 
      3 N3        -67.7070  -59.0400   39.8100 N.am      1 UPG502      0.0000 
      4 C4        -66.9910  -60.1680   39.7730 C.2       1 UPG502      0.0000 
      5 C5        -66.2420  -60.6140   40.9000 C.2       1 UPG502      0.0000 
      6 C6        -66.2640  -59.8600   42.0450 C.2       1 UPG502      0.0000 
      7 O2        -68.3920  -57.2320   40.9730 O.2       1 UPG502      0.0000 
      8 O4        -67.0220  -60.7890   38.7200 O.2       1 UPG502      0.0000 
      9 C1C       -66.9880  -57.9240   43.3110 C.3       1 UPG502      0.0000 
     10 C2C       -67.7330  -58.5070   44.5040 C.3       1 UPG502      0.0000 
     11 O2C       -69.1650  -58.2510   44.4210 O.3       1 UPG502      0.0000 
     12 C3C       -67.0520  -57.7880   45.6970 C.3       1 UPG502      0.0000 
     13 C4C       -65.6370  -57.5710   45.1790 C.3       1 UPG502      0.0000 
     14 O4C       -65.6710  -57.8190   43.7360 O.3       1 UPG502      0.0000 
     15 O3C       -67.6650  -56.5290   46.0210 O.3       1 UPG502      0.0000 
     16 C5C       -64.5700  -58.4160   45.8120 C.3       1 UPG502      0.0000 
     17 O5C       -64.9140  -59.7890   45.5870 O.3       1 UPG502      0.0000 
     18 PA        -63.9520  -60.8910   46.2220 P.3       1 UPG502      0.0000 
     19 O1A       -64.6110  -62.1500   46.6000 O.co2     1 UPG502      0.0000 
     20 O2A       -62.7220  -61.0570   45.4120 O.co2     1 UPG502      0.0000 
     21 O3A       -63.6210  -60.1630   47.6560 O.3       1 UPG502      0.0000 
     22 PB        -62.6710  -60.4780   48.8740 P.3       1 UPG502      0.0000 
     23 O1B       -62.3050  -59.2780   49.6310 O.co2     1 UPG502      0.0000 
     24 O2B       -63.4250  -61.5490   49.5980 O.co2     1 UPG502      0.0000 
     25 O3B       -61.2930  -61.0630   48.2060 O.3       1 UPG502      0.0000 
     26 C1'       -60.4320  -60.2280   47.4960 C.3       1 UPG502      0.0000 
     27 C2'       -59.5090  -61.1000   46.6110 C.3       1 UPG502      0.0000 
     28 C3'       -58.5420  -61.8860   47.4770 C.3       1 UPG502      0.0000 
     29 C4'       -57.7830  -60.9750   48.4280 C.3       1 UPG502      0.0000 
     30 C5'       -58.8150  -60.2150   49.2670 C.3       1 UPG502      0.0000 
     31 C6'       -58.1830  -59.2440   50.2410 C.3       1 UPG502      0.0000 
     32 O2'       -60.3110  -62.0020   45.8170 O.3       1 UPG502      0.0000 
     33 O3'       -57.5700  -62.5450   46.6500 O.3       1 UPG502      0.0000 
     34 O4'       -56.9510  -61.7500   49.2990 O.3       1 UPG502      0.0000 
     35 O5'       -59.6450  -59.4130   48.4010 O.3       1 UPG502      0.0000 
     36 O6'       -56.9000  -58.7710   49.7570 O.3       1 UPG502      0.0000 
@<TRIPOS>BOND
     1    1    2 1    
     2    1    6 1    
     3    1    9 1    
     4    2    3 1    
     5    2    7 2    
     6    3    4 1    
     7    4    5 1    
     8    4    8 2    
     9    5    6 2    
    10    9   10 1    
    11    9   14 1    
    12   10   11 1    
    13   10   12 1    
    14   12   13 1    
    15   12   15 1    
    16   13   14 1    
    17   13   16 1    
    18   16   17 1    
    19   17   18 1    
    20   18   19 ar   
    21   18   20 ar   
    22   18   21 1    
    23   21   22 1    
    24   22   23 ar   
    25   22   24 ar   
    26   22   25 1    
    27   25   26 1    
    28   26   27 1    
    29   26   35 1    
    30   27   28 1    
    31   27   32 1    
    32   28   29 1    
    33   28   33 1    
    34   29   30 1    
    35   29   34 1    
    36   30   31 1    
    37   30   35 1    
    38   31   36 1    
@<TRIPOS>SUBSTRUCTURE
     1 UPG502      1 GROUP   
@<TRIPOS>SET

