#    Name: 6c4j_5_UPG
#    Modification time : Fri May 22 19:33:16 2020

@<TRIPOS>MOLECULE
6c4j_5_UPG
   36    38     1     0     0
SMALL
NO_CHARGES


@<TRIPOS>ATOM
      1 N1        -79.1340  -15.8740    8.5030 N.am      1 UPG502      0.0000 
      2 C2        -79.5560  -17.0780    9.0790 C.2       1 UPG502      0.0000 
      3 N3        -80.7270  -17.0790    9.8060 N.am      1 UPG502      0.0000 
      4 C4        -81.4180  -15.9450    9.9440 C.2       1 UPG502      0.0000 
      5 C5        -80.9830  -14.7190    9.3600 C.2       1 UPG502      0.0000 
      6 C6        -79.8170  -14.7170    8.6350 C.2       1 UPG502      0.0000 
      7 O2        -78.9070  -18.1230    8.9480 O.2       1 UPG502      0.0000 
      8 O4        -82.4410  -16.0360   10.6020 O.2       1 UPG502      0.0000 
      9 C1C       -77.8750  -15.8980    7.7290 C.3       1 UPG502      0.0000 
     10 C2C       -77.9910  -15.7310    6.2180 C.3       1 UPG502      0.0000 
     11 O2C       -78.4350  -16.9540    5.5580 O.3       1 UPG502      0.0000 
     12 C3C       -76.5400  -15.3060    5.8640 C.3       1 UPG502      0.0000 
     13 C4C       -76.1390  -14.4980    7.0950 C.3       1 UPG502      0.0000 
     14 O4C       -77.1020  -14.8300    8.1450 O.3       1 UPG502      0.0000 
     15 O3C       -75.6330  -16.4050    5.6570 O.3       1 UPG502      0.0000 
     16 C5C       -76.1120  -13.0060    6.9190 C.3       1 UPG502      0.0000 
     17 O5C       -77.2940  -12.6680    6.1810 O.3       1 UPG502      0.0000 
     18 PA        -77.6440  -11.1290    6.0080 P.3       1 UPG502      0.0000 
     19 O1A       -78.9400  -10.8960    5.3560 O.co2     1 UPG502      0.0000 
     20 O2A       -77.4010  -10.3980    7.2750 O.co2     1 UPG502      0.0000 
     21 O3A       -76.5750  -10.6840    4.8530 O.3       1 UPG502      0.0000 
     22 PB        -75.3680   -9.6690    4.8400 P.3       1 UPG502      0.0000 
     23 O1B       -74.1590  -10.2900    5.3770 O.co2     1 UPG502      0.0000 
     24 O2B       -75.3540   -9.2130    3.4140 O.co2     1 UPG502      0.0000 
     25 O3B       -75.7780   -8.4280    5.8320 O.3       1 UPG502      0.0000 
     26 C1'       -75.2030   -8.3210    7.0960 C.3       1 UPG502      0.0000 
     27 C2'       -76.0890   -7.4190    7.9940 C.3       1 UPG502      0.0000 
     28 C3'       -75.9710   -5.9650    7.5740 C.3       1 UPG502      0.0000 
     29 C4'       -74.5080   -5.5470    7.5210 C.3       1 UPG502      0.0000 
     30 C5'       -73.8370   -6.4620    6.4970 C.3       1 UPG502      0.0000 
     31 C6'       -72.3800   -6.1300    6.2240 C.3       1 UPG502      0.0000 
     32 O2'       -77.4600   -7.8660    7.9110 O.3       1 UPG502      0.0000 
     33 O3'       -76.6500   -5.1250    8.5240 O.3       1 UPG502      0.0000 
     34 O4'       -74.3460   -4.1930    7.0770 O.3       1 UPG502      0.0000 
     35 O5'       -73.8570   -7.8080    7.0020 O.3       1 UPG502      0.0000 
     36 O6'       -71.7180   -5.5620    7.3820 O.3       1 UPG502      0.0000 
@<TRIPOS>BOND
     1    1    2 1    
     2    1    6 1    
     3    1    9 1    
     4    2    3 1    
     5    2    7 2    
     6    3    4 1    
     7    4    5 1    
     8    4    8 2    
     9    5    6 2    
    10    9   10 1    
    11    9   14 1    
    12   10   11 1    
    13   10   12 1    
    14   12   13 1    
    15   12   15 1    
    16   13   14 1    
    17   13   16 1    
    18   16   17 1    
    19   17   18 1    
    20   18   19 ar   
    21   18   20 ar   
    22   18   21 1    
    23   21   22 1    
    24   22   23 ar   
    25   22   24 ar   
    26   22   25 1    
    27   25   26 1    
    28   26   27 1    
    29   26   35 1    
    30   27   28 1    
    31   27   32 1    
    32   28   29 1    
    33   28   33 1    
    34   29   30 1    
    35   29   34 1    
    36   30   31 1    
    37   30   35 1    
    38   31   36 1    
@<TRIPOS>SUBSTRUCTURE
     1 UPG502      1 GROUP   
@<TRIPOS>SET

