#    Name: 6c4j_7_UPG_CAVITY_N1_12
#    Modification time : Fri May 22 19:33:50 2020

@<TRIPOS>MOLECULE
6c4j_7_UPG_CAVITY_N1_12
   72     0     5     0     0
SMALL
NO_CHARGES


@<TRIPOS>ATOM
      1 N         -93.5500  -90.6000  140.1700 N.am      1 ALA2        0.0000 
      2 N         -91.6700  -91.5900  140.2100 N.am      1 ALA2        0.0000 
      3 N         -93.1700  -89.8400  141.4000 N.am      1 ALA2        0.0000 
      4 N         -92.6500  -91.1000  142.0300 N.am      1 ALA2        0.0000 
      5 N         -92.2800  -90.3300  143.2600 N.am      1 ALA2        0.0000 
      6 O         -97.9400  -78.4900  139.4500 O.2       1 ALA2        0.0000 
      7 O         -97.4200  -79.7500  140.0800 O.2       1 ALA2        0.0000 
      8 N         -89.0200  -84.2000  142.1100 N.am      1 ALA2        0.0000 
      9 O         -89.1700  -82.1700  142.7200 O.2       1 ALA2        0.0000 
     10 N         -88.7900  -81.4100  143.9600 N.am      1 ALA2        0.0000 
     11 OD1       -93.0300  -91.8600  140.7900 O.co2     2 ASP3        0.0000 
     12 OD1       -93.6900  -88.5800  140.7800 O.co2     2 ASP3        0.0000 
     13 OD1       -93.8400  -86.5500  141.3900 O.co2     2 ASP3        0.0000 
     14 OD1       -93.4600  -85.7800  142.6200 O.co2     2 ASP3        0.0000 
     15 OD1       -92.5700  -86.2800  144.4800 O.co2     2 ASP3        0.0000 
     16 OD1       -90.2100  -79.6500  141.4700 O.co2     2 ASP3        0.0000 
     17 OD1       -91.5600  -79.9300  142.0500 O.co2     2 ASP3        0.0000 
     18 OD1       -89.6900  -80.9100  142.1000 O.co2     2 ASP3        0.0000 
     19 OD1       -89.3100  -80.1500  143.3300 O.co2     2 ASP3        0.0000 
     20 CZ        -92.3400  -88.3000  140.2000 C.ar      3 PHE5        0.0000 
     21 CZ        -91.8200  -89.5600  140.8200 C.ar      3 PHE5        0.0000 
     22 CZ        -92.4800  -86.2800  140.8100 C.ar      3 PHE5        0.0000 
     23 CZ        -90.6100  -87.2700  140.8500 C.ar      3 PHE5        0.0000 
     24 CZ        -91.9600  -87.5400  141.4300 C.ar      3 PHE5        0.0000 
     25 CZ        -94.1900  -80.4700  139.5400 C.ar      3 PHE5        0.0000 
     26 CZ        -95.5400  -80.7400  140.1200 C.ar      3 PHE5        0.0000 
     27 CZ        -93.6700  -81.7300  140.1700 C.ar      3 PHE5        0.0000 
     28 CZ        -89.9200  -83.7100  140.2500 C.ar      3 PHE5        0.0000 
     29 CZ        -91.2700  -83.9800  140.8300 C.ar      3 PHE5        0.0000 
     30 CZ        -92.6300  -84.2500  141.4100 C.ar      3 PHE5        0.0000 
     31 CZ        -93.9800  -84.5200  142.0000 C.ar      3 PHE5        0.0000 
     32 CZ        -90.7500  -85.2400  141.4600 C.ar      3 PHE5        0.0000 
     33 CZ        -92.1100  -85.5100  142.0400 C.ar      3 PHE5        0.0000 
     34 CZ        -90.2300  -86.5000  142.0800 C.ar      3 PHE5        0.0000 
     35 CZ        -91.0700  -88.0300  143.2900 C.ar      3 PHE5        0.0000 
     36 CZ        -95.1700  -79.9700  141.3600 C.ar      3 PHE5        0.0000 
     37 CZ        -93.2900  -80.9600  141.4000 C.ar      3 PHE5        0.0000 
     38 CZ        -90.3800  -84.4700  142.6900 C.ar      3 PHE5        0.0000 
     39 CZ        -89.8600  -85.7300  143.3200 C.ar      3 PHE5        0.0000 
     40 CZ        -91.2100  -86.0100  143.9000 C.ar      3 PHE5        0.0000 
     41 CZ        -88.6500  -83.4400  143.3500 C.ar      3 PHE5        0.0000 
     42 CZ        -90.0000  -83.7100  143.9300 C.ar      3 PHE5        0.0000 
     43 CA        -94.0700  -89.3400  139.5400 C.3       4 GLY6        0.0000 
     44 CA        -91.3000  -90.8300  141.4400 C.3       4 GLY6        0.0000 
     45 CA        -93.3200  -87.8100  142.0100 C.3       4 GLY6        0.0000 
     46 CA        -92.8000  -89.0700  142.6400 C.3       4 GLY6        0.0000 
     47 CA        -96.0600  -79.4800  139.5000 C.3       4 GLY6        0.0000 
     48 CA        -92.8300  -80.2000  138.9600 C.3       4 GLY6        0.0000 
     49 CA        -92.3100  -81.4600  139.5900 C.3       4 GLY6        0.0000 
     50 CA        -91.7900  -82.7200  140.2100 C.3       4 GLY6        0.0000 
     51 CA        -92.9400  -87.0400  143.2400 C.3       4 GLY6        0.0000 
     52 CA        -92.4200  -88.3000  143.8700 C.3       4 GLY6        0.0000 
     53 CA        -94.3300  -78.4400  140.1500 C.3       4 GLY6        0.0000 
     54 CA        -95.6900  -78.7100  140.7300 C.3       4 GLY6        0.0000 
     55 CA        -92.4600  -79.4300  140.1900 C.3       4 GLY6        0.0000 
     56 CA        -90.5800  -80.4200  140.2400 C.3       4 GLY6        0.0000 
     57 CA        -91.9400  -80.6900  140.8200 C.3       4 GLY6        0.0000 
     58 CA        -90.0600  -81.6800  140.8600 C.3       4 GLY6        0.0000 
     59 CA        -91.4200  -81.9500  141.4400 C.3       4 GLY6        0.0000 
     60 CA        -89.5400  -82.9400  141.4900 C.3       4 GLY6        0.0000 
     61 CA        -92.2500  -83.4800  142.6500 C.3       4 GLY6        0.0000 
     62 CA        -91.7300  -84.7500  143.2700 C.3       4 GLY6        0.0000 
     63 CA        -95.3200  -77.9500  141.9700 C.3       4 GLY6        0.0000 
     64 CA        -88.3300  -80.6400  141.5200 C.3       4 GLY6        0.0000 
     65 CA        -90.5200  -82.4500  143.3000 C.3       4 GLY6        0.0000 
     66 DU        -91.4400  -88.8000  142.0500 H         5 CUB7        0.0000 
     67 DU        -90.9200  -90.0600  142.6800 H         5 CUB7        0.0000 
     68 DU        -91.5900  -86.7700  142.6600 H         5 CUB7        0.0000 
     69 DU        -97.0500  -78.9900  141.3100 H         5 CUB7        0.0000 
     70 DU        -93.8100  -79.7000  140.7800 H         5 CUB7        0.0000 
     71 DU        -90.9000  -83.2100  142.0700 H         5 CUB7        0.0000 
     72 DU        -91.0400  -81.1900  142.6800 H         5 CUB7        0.0000 
@<TRIPOS>BOND
@<TRIPOS>SUBSTRUCTURE
     1 ALA2        1 GROUP   
     2 ASP3       11 GROUP   
     3 PHE5       20 GROUP   
     4 GLY6       43 GROUP   
     5 CUB7       66 GROUP   
@<TRIPOS>SET

