#    Name: 6c4j_10_UPG
#    Modification time : Fri May 22 19:34:28 2020

@<TRIPOS>MOLECULE
6c4j_10_UPG
   36    38     1     0     0
SMALL
NO_CHARGES


@<TRIPOS>ATOM
      1 N1        -54.0040  -49.6070  113.2280 N.am      1 UPG502      0.0000 
      2 C2        -54.9160  -49.5420  114.2860 C.2       1 UPG502      0.0000 
      3 N3        -54.4780  -49.0360  115.4930 N.am      1 UPG502      0.0000 
      4 C4        -53.2070  -48.6390  115.6300 C.2       1 UPG502      0.0000 
      5 C5        -52.2830  -48.7200  114.5490 C.2       1 UPG502      0.0000 
      6 C6        -52.7200  -49.2160  113.3470 C.2       1 UPG502      0.0000 
      7 O2        -56.0890  -49.9150  114.1520 O.2       1 UPG502      0.0000 
      8 O4        -52.8880  -48.2020  116.7280 O.2       1 UPG502      0.0000 
      9 C1C       -54.4660  -50.1590  111.9380 C.3       1 UPG502      0.0000 
     10 C2C       -54.5270  -49.1980  110.7640 C.3       1 UPG502      0.0000 
     11 O2C       -55.7760  -48.4580  110.7530 O.3       1 UPG502      0.0000 
     12 C3C       -54.3730  -50.1610  109.5600 C.3       1 UPG502      0.0000 
     13 C4C       -53.4620  -51.2410  110.1240 C.3       1 UPG502      0.0000 
     14 O4C       -53.5430  -51.1310  111.5800 O.3       1 UPG502      0.0000 
     15 O3C       -55.6070  -50.7500  109.1230 O.3       1 UPG502      0.0000 
     16 C5C       -52.0200  -51.1900  109.6950 C.3       1 UPG502      0.0000 
     17 O5C       -51.5950  -49.8250  109.8050 O.3       1 UPG502      0.0000 
     18 PA        -50.0400  -49.5140  109.6610 P.3       1 UPG502      0.0000 
     19 O1A       -49.6720  -48.1360  110.0280 O.co2     1 UPG502      0.0000 
     20 O2A       -49.2260  -50.5640  110.3210 O.co2     1 UPG502      0.0000 
     21 O3A       -49.9110  -49.5610  108.0250 O.3       1 UPG502      0.0000 
     22 PB        -49.2020  -50.5730  107.0400 P.3       1 UPG502      0.0000 
     23 O1B       -49.8300  -51.8990  107.0150 O.co2     1 UPG502      0.0000 
     24 O2B       -49.1680  -49.8200  105.7460 O.co2     1 UPG502      0.0000 
     25 O3B       -47.7080  -50.7820  107.6830 O.3       1 UPG502      0.0000 
     26 C1'       -47.4050  -51.9870  108.3220 C.3       1 UPG502      0.0000 
     27 C2'       -46.2100  -51.7940  109.2830 C.3       1 UPG502      0.0000 
     28 C3'       -44.9380  -51.5870  108.4880 C.3       1 UPG502      0.0000 
     29 C4'       -44.7260  -52.6990  107.4750 C.3       1 UPG502      0.0000 
     30 C5'       -45.9520  -52.7750  106.5700 C.3       1 UPG502      0.0000 
     31 C6'       -45.8510  -53.9280  105.5940 C.3       1 UPG502      0.0000 
     32 O2'       -46.4500  -50.6520  110.1330 O.3       1 UPG502      0.0000 
     33 O3'       -43.8020  -51.5970  109.3670 O.3       1 UPG502      0.0000 
     34 O4'       -43.6050  -52.3990  106.6370 O.3       1 UPG502      0.0000 
     35 O5'       -47.1240  -53.0370  107.3630 O.3       1 UPG502      0.0000 
     36 O6'       -45.1930  -55.0740  106.1970 O.3       1 UPG502      0.0000 
@<TRIPOS>BOND
     1    1    2 1    
     2    1    6 1    
     3    1    9 1    
     4    2    3 1    
     5    2    7 2    
     6    3    4 1    
     7    4    5 1    
     8    4    8 2    
     9    5    6 2    
    10    9   10 1    
    11    9   14 1    
    12   10   11 1    
    13   10   12 1    
    14   12   13 1    
    15   12   15 1    
    16   13   14 1    
    17   13   16 1    
    18   16   17 1    
    19   17   18 1    
    20   18   19 ar   
    21   18   20 ar   
    22   18   21 1    
    23   21   22 1    
    24   22   23 ar   
    25   22   24 ar   
    26   22   25 1    
    27   25   26 1    
    28   26   27 1    
    29   26   35 1    
    30   27   28 1    
    31   27   32 1    
    32   28   29 1    
    33   28   33 1    
    34   29   30 1    
    35   29   34 1    
    36   30   31 1    
    37   30   35 1    
    38   31   36 1    
@<TRIPOS>SUBSTRUCTURE
     1 UPG502      1 GROUP   
@<TRIPOS>SET

