#    Name: 6c4j_12_NAD
#    Modification time : Fri May 22 19:35:06 2020

@<TRIPOS>MOLECULE
6c4j_12_NAD
   44    48     1     0     1
SMALL
NO_CHARGES


@<TRIPOS>ATOM
      1 PA        -45.5840   -1.5470   63.6390 P.3       1 NAD501      0.0000 
      2 O1A       -46.8920   -2.2280   63.5520 O.co2     1 NAD501      0.0000 
      3 O2A       -44.5940   -2.0550   64.6700 O.co2     1 NAD501      0.0000 
      4 O5B       -45.7000    0.0270   63.8840 O.3       1 NAD501      0.0000 
      5 C5B       -46.8170    0.8010   63.4230 C.3       1 NAD501      0.0000 
      6 C4B       -47.2690    1.5540   64.6370 C.3       1 NAD501      0.0000 
      7 O4B       -48.2420    2.5100   64.1720 O.3       1 NAD501      0.0000 
      8 C3B       -48.0040    0.6840   65.6940 C.3       1 NAD501      0.0000 
      9 O3B       -47.5330    0.9530   67.0250 O.3       1 NAD501      0.0000 
     10 C2B       -49.4870    1.0860   65.4940 C.3       1 NAD501      0.0000 
     11 O2B       -50.2260    0.9820   66.7390 O.3       1 NAD501      0.0000 
     12 C1B       -49.3470    2.5410   65.0590 C.3       1 NAD501      0.0000 
     13 N9A       -50.4510    3.0520   64.2950 N.pl3     1 NAD501      0.0000 
     14 C8A       -51.2030    2.4300   63.3510 C.2       1 NAD501      0.0000 
     15 N7A       -52.1580    3.2170   62.8280 N.2       1 NAD501      0.0000 
     16 C5A       -51.9770    4.4170   63.4990 C.ar      1 NAD501      0.0000 
     17 C6A       -52.6580    5.6640   63.4210 C.ar      1 NAD501      0.0000 
     18 N6A       -53.6820    5.8660   62.5830 N.pl3     1 NAD501      0.0000 
     19 N1A       -52.2280    6.6460   64.2310 N.ar      1 NAD501      0.0000 
     20 C2A       -51.2030    6.4160   65.0550 C.ar      1 NAD501      0.0000 
     21 N3A       -50.4880    5.3100   65.2190 N.ar      1 NAD501      0.0000 
     22 C4A       -50.9340    4.3370   64.4010 C.ar      1 NAD501      0.0000 
     23 O3        -44.9720   -1.5760   62.2020 O.3       1 NAD501      0.0000 
     24 PN        -43.4250   -1.5550   61.6910 P.3       1 NAD501      0.0000 
     25 O1N       -42.8890   -2.9180   61.8490 O.co2     1 NAD501      0.0000 
     26 O2N       -42.6520   -0.4640   62.3190 O.co2     1 NAD501      0.0000 
     27 O5D       -43.6370   -1.2530   60.1320 O.3       1 NAD501      0.0000 
     28 C5D       -44.1200    0.0090   59.6580 C.3       1 NAD501      0.0000 
     29 C4D       -44.0690   -0.1290   58.1460 C.3       1 NAD501      0.0000 
     30 O4D       -42.6610   -0.1720   57.7190 O.3       1 NAD501      0.0000 
     31 C3D       -44.7410   -1.3370   57.5210 C.3       1 NAD501      0.0000 
     32 O3D       -45.5840   -0.9710   56.4090 O.3       1 NAD501      0.0000 
     33 C2D       -43.5380   -2.2250   57.1000 C.3       1 NAD501      0.0000 
     34 O2D       -43.8470   -3.0480   55.9530 O.3       1 NAD501      0.0000 
     35 C1D       -42.4600   -1.2000   56.8000 C.3       1 NAD501      0.0000 
     36 N1N       -41.1070   -1.6890   56.9850 N.pl3     1 NAD501      0.0000 
     37 C2N       -40.8410   -2.5720   58.0080 C.ar      1 NAD501      0.0000 
     38 C3N       -39.5480   -2.8660   58.4030 C.ar      1 NAD501      0.0000 
     39 C7N       -39.2280   -3.8520   59.5230 C.2       1 NAD501      0.0000 
     40 O7N       -38.0600   -4.1600   59.7150 O.2       1 NAD501      0.0000 
     41 N7N       -40.2210   -4.3740   60.2830 N.am      1 NAD501      0.0000 
     42 C4N       -38.4550   -2.5320   57.5180 C.ar      1 NAD501      0.0000 
     43 C5N       -38.8450   -1.5870   56.4270 C.ar      1 NAD501      0.0000 
     44 C6N       -40.1090   -1.2200   56.0970 C.ar      1 NAD501      0.0000 
@<TRIPOS>BOND
     1    1    2 ar   
     2    1    3 ar   
     3    1    4 1    
     4    1   23 1    
     5    4    5 1    
     6    5    6 1    
     7    6    7 1    
     8    6    8 1    
     9    7   12 1    
    10    8    9 1    
    11    8   10 1    
    12   10   11 1    
    13   10   12 1    
    14   12   13 1    
    15   13   14 1    
    16   13   22 1    
    17   14   15 2    
    18   15   16 1    
    19   16   17 ar   
    20   16   22 ar   
    21   17   18 1    
    22   17   19 ar   
    23   19   20 ar   
    24   20   21 ar   
    25   21   22 ar   
    26   23   24 1    
    27   24   25 ar   
    28   24   26 ar   
    29   24   27 1    
    30   27   28 1    
    31   28   29 1    
    32   29   30 1    
    33   29   31 1    
    34   30   35 1    
    35   31   32 1    
    36   31   33 1    
    37   33   34 1    
    38   33   35 1    
    39   35   36 1    
    40   36   37 ar   
    41   36   44 ar   
    42   37   38 ar   
    43   38   39 1    
    44   38   42 ar   
    45   39   40 2    
    46   39   41 am   
    47   42   43 ar   
    48   43   44 ar   
@<TRIPOS>SUBSTRUCTURE
     1 NAD501      1 GROUP   
@<TRIPOS>SET
ATOM$ORANGE STATIC     ATOMS   COLORGROUP SYSTEM 
42 5 5 6 6 8 8 10 10 12 12 14 14 16 16 17 17 20 \
20 22 22 28 28 29 29 31 31 33 33 35 35 37 37 38 38 39 \
39 42 42 43 43 44 44 

