#    Name: 6c4j_12_UPG
#    Modification time : Fri May 22 19:34:53 2020

@<TRIPOS>MOLECULE
6c4j_12_UPG
   36    38     1     0     0
SMALL
NO_CHARGES


@<TRIPOS>ATOM
      1 N1        -49.9770 -102.9440   95.9870 N.am      1 UPG502      0.0000 
      2 C2        -48.9490 -102.1940   96.5730 C.2       1 UPG502      0.0000 
      3 N3        -47.9720 -102.8800   97.2720 N.am      1 UPG502      0.0000 
      4 C4        -48.0310 -104.2150   97.3750 C.2       1 UPG502      0.0000 
      5 C5        -49.0830 -104.9620   96.7780 C.2       1 UPG502      0.0000 
      6 C6        -50.0510 -104.2840   96.0830 C.2       1 UPG502      0.0000 
      7 O2        -48.8900 -100.9570   96.4720 O.2       1 UPG502      0.0000 
      8 O4        -47.1380 -104.7530   98.0110 O.2       1 UPG502      0.0000 
      9 C1C       -51.0400 -102.2380   95.2420 C.3       1 UPG502      0.0000 
     10 C2C       -51.0260 -102.4000   93.7310 C.3       1 UPG502      0.0000 
     11 O2C       -50.0790 -101.4730   93.1320 O.3       1 UPG502      0.0000 
     12 C3C       -52.5030 -102.1020   93.3720 C.3       1 UPG502      0.0000 
     13 C4C       -53.2470 -102.6510   94.5840 C.3       1 UPG502      0.0000 
     14 O4C       -52.2640 -102.7520   95.6650 O.3       1 UPG502      0.0000 
     15 O3C       -52.7480 -100.6960   93.2250 O.3       1 UPG502      0.0000 
     16 C5C       -53.9250 -103.9820   94.4170 C.3       1 UPG502      0.0000 
     17 O5C       -53.1000 -104.7580   93.5410 O.3       1 UPG502      0.0000 
     18 PA        -53.5680 -106.2420   93.2030 P.3       1 UPG502      0.0000 
     19 O1A       -52.6220 -106.9790   92.3470 O.co2     1 UPG502      0.0000 
     20 O2A       -54.0140 -106.9460   94.4280 O.co2     1 UPG502      0.0000 
     21 O3A       -54.8230 -105.9070   92.2040 O.3       1 UPG502      0.0000 
     22 PB        -56.2460 -106.5150   91.9100 P.3       1 UPG502      0.0000 
     23 O1B       -57.2970 -105.5490   92.2280 O.co2     1 UPG502      0.0000 
     24 O2B       -56.1130 -106.9520   90.4860 O.co2     1 UPG502      0.0000 
     25 O3B       -56.4590 -107.8130   92.8930 O.3       1 UPG502      0.0000 
     26 C1'       -57.0240 -107.6680   94.1670 C.3       1 UPG502      0.0000 
     27 C2'       -56.6820 -108.8950   95.0550 C.3       1 UPG502      0.0000 
     28 C3'       -57.5080 -110.0950   94.6470 C.3       1 UPG502      0.0000 
     29 C4'       -58.9880 -109.7630   94.6890 C.3       1 UPG502      0.0000 
     30 C5'       -59.2130 -108.6120   93.7070 C.3       1 UPG502      0.0000 
     31 C6'       -60.6640 -108.1720   93.6490 C.3       1 UPG502      0.0000 
     32 O2'       -55.2800 -109.2180   94.9490 O.3       1 UPG502      0.0000 
     33 O3'       -57.2630 -111.1840   95.5510 O.3       1 UPG502      0.0000 
     34 O4'       -59.7620 -110.8850   94.2500 O.3       1 UPG502      0.0000 
     35 O5'       -58.4610 -107.4510   94.1190 O.3       1 UPG502      0.0000 
     36 O6'       -61.2520 -108.0710   94.9700 O.3       1 UPG502      0.0000 
@<TRIPOS>BOND
     1    1    2 1    
     2    1    6 1    
     3    1    9 1    
     4    2    3 1    
     5    2    7 2    
     6    3    4 1    
     7    4    5 1    
     8    4    8 2    
     9    5    6 2    
    10    9   10 1    
    11    9   14 1    
    12   10   11 1    
    13   10   12 1    
    14   12   13 1    
    15   12   15 1    
    16   13   14 1    
    17   13   16 1    
    18   16   17 1    
    19   17   18 1    
    20   18   19 ar   
    21   18   20 ar   
    22   18   21 1    
    23   21   22 1    
    24   22   23 ar   
    25   22   24 ar   
    26   22   25 1    
    27   25   26 1    
    28   26   27 1    
    29   26   35 1    
    30   27   28 1    
    31   27   32 1    
    32   28   29 1    
    33   28   33 1    
    34   29   30 1    
    35   29   34 1    
    36   30   31 1    
    37   30   35 1    
    38   31   36 1    
@<TRIPOS>SUBSTRUCTURE
     1 UPG502      1 GROUP   
@<TRIPOS>SET

