#    Name: 6c4j_12_UPG_CAVITY_N1_4
#    Modification time : Fri May 22 19:34:55 2020

@<TRIPOS>MOLECULE
6c4j_12_UPG_CAVITY_N1_4
  101     0     6     0     0
SMALL
NO_CHARGES


@<TRIPOS>ATOM
      1 OG        -59.2300 -105.1000   89.5100 O.3       1 SER1        0.0000 
      2 OG        -48.7900 -100.9000   96.5000 O.3       1 SER1        0.0000 
      3 O         -58.1900 -107.6200   90.7600 O.2       2 ALA2        0.0000 
      4 O         -58.8600 -104.3300   90.7500 O.2       2 ALA2        0.0000 
      5 N         -59.6900 -105.8700   91.9500 N.am      2 ALA2        0.0000 
      6 O         -56.4600 -106.5800   91.4200 O.2       2 ALA2        0.0000 
      7 N         -58.6500 -108.3900   93.2000 N.am      2 ALA2        0.0000 
      8 N         -60.0100 -108.6600   93.7800 N.am      2 ALA2        0.0000 
      9 N         -58.1300 -109.6500   93.8300 N.am      2 ALA2        0.0000 
     10 N         -59.4900 -109.9200   94.4100 N.am      2 ALA2        0.0000 
     11 N         -58.2800 -107.6200   94.4400 N.am      2 ALA2        0.0000 
     12 O         -59.6300 -107.8900   95.0200 O.2       2 ALA2        0.0000 
     13 N         -57.7600 -108.8800   95.0600 N.am      2 ALA2        0.0000 
     14 N         -57.3800 -108.1200   96.2900 N.am      2 ALA2        0.0000 
     15 N         -51.7900 -102.2100   92.7500 N.am      2 ALA2        0.0000 
     16 N         -54.5000 -102.7500   93.9100 N.am      2 ALA2        0.0000 
     17 N         -51.4200 -101.4400   93.9900 N.am      2 ALA2        0.0000 
     18 O         -52.7700 -101.7100   94.5700 O.2       2 ALA2        0.0000 
     19 N         -48.1200 -104.1900   96.5100 N.am      2 ALA2        0.0000 
     20 N         -48.2700 -102.1600   97.1200 N.am      2 ALA2        0.0000 
     21 N         -47.7500 -103.4200   97.7500 N.am      2 ALA2        0.0000 
     22 OD1       -55.1100 -106.3100   90.8400 O.co2     3 ASP3        0.0000 
     23 OD1       -54.5900 -107.5700   91.4600 O.co2     3 ASP3        0.0000 
     24 OD1       -52.7100 -108.5600   91.5000 O.co2     3 ASP3        0.0000 
     25 OD1       -52.8500 -106.5300   92.1100 O.co2     3 ASP3        0.0000 
     26 OD1       -54.2100 -106.8100   92.6900 O.co2     3 ASP3        0.0000 
     27 OD1       -52.3300 -107.7900   92.7400 O.co2     3 ASP3        0.0000 
     28 OD1       -53.1700 -109.3300   93.9400 O.co2     3 ASP3        0.0000 
     29 OD1       -55.8800 -109.8700   95.1000 O.co2     3 ASP3        0.0000 
     30 OD1       -57.2400 -110.1400   95.6900 O.co2     3 ASP3        0.0000 
     31 OD1       -49.1600 -101.6600   95.2600 O.co2     3 ASP3        0.0000 
     32 OD1       -47.2900 -102.6500   95.3100 O.co2     3 ASP3        0.0000 
     33 CZ        -56.9800 -105.3200   90.7900 C.ar      4 PHE5        0.0000 
     34 CZ        -56.6100 -104.5600   92.0300 C.ar      4 PHE5        0.0000 
     35 CZ        -54.7300 -105.5500   92.0700 C.ar      4 PHE5        0.0000 
     36 CZ        -56.0900 -105.8200   92.6500 C.ar      4 PHE5        0.0000 
     37 CZ        -51.8100 -109.0600   93.3600 C.ar      4 PHE5        0.0000 
     38 CZ        -56.2300 -103.7900   93.2600 C.ar      4 PHE5        0.0000 
     39 CZ        -54.3600 -104.7800   93.3000 C.ar      4 PHE5        0.0000 
     40 CZ        -55.7100 -105.0500   93.8800 C.ar      4 PHE5        0.0000 
     41 CZ        -52.4800 -105.7700   93.3500 C.ar      4 PHE5        0.0000 
     42 CZ        -53.8400 -106.0400   93.9300 C.ar      4 PHE5        0.0000 
     43 CZ        -55.1900 -106.3100   94.5100 C.ar      4 PHE5        0.0000 
     44 CZ        -56.5500 -106.5800   95.0900 C.ar      4 PHE5        0.0000 
     45 CZ        -57.9000 -106.8600   95.6700 C.ar      4 PHE5        0.0000 
     46 CZ        -51.9600 -107.0300   93.9700 C.ar      4 PHE5        0.0000 
     47 CZ        -53.3200 -107.3000   94.5500 C.ar      4 PHE5        0.0000 
     48 CZ        -54.6700 -107.5700   95.1300 C.ar      4 PHE5        0.0000 
     49 CZ        -56.0300 -107.8400   95.7100 C.ar      4 PHE5        0.0000 
     50 CZ        -50.0800 -108.0200   94.0200 C.ar      4 PHE5        0.0000 
     51 CZ        -53.1500 -102.4800   93.3300 C.ar      4 PHE5        0.0000 
     52 CZ        -53.9800 -104.0100   94.5400 C.ar      4 PHE5        0.0000 
     53 CZ        -55.3400 -104.2900   95.1200 C.ar      4 PHE5        0.0000 
     54 CZ        -52.1000 -105.0000   94.5800 C.ar      4 PHE5        0.0000 
     55 CZ        -53.4600 -105.2700   95.1600 C.ar      4 PHE5        0.0000 
     56 CZ        -48.3500 -106.9800   94.6700 C.ar      4 PHE5        0.0000 
     57 CZ        -47.8300 -108.2400   95.2900 C.ar      4 PHE5        0.0000 
     58 CZ        -53.6100 -103.2500   95.7700 C.ar      4 PHE5        0.0000 
     59 CZ        -49.8500 -105.2200   95.8600 C.ar      4 PHE5        0.0000 
     60 CZ        -47.9800 -106.2100   95.9000 C.ar      4 PHE5        0.0000 
     61 CZ        -49.3300 -106.4800   96.4800 C.ar      4 PHE5        0.0000 
     62 CZ        -47.4600 -107.4700   96.5300 C.ar      4 PHE5        0.0000 
     63 CA        -58.7100 -106.3600   90.1400 C.3       5 GLY6        0.0000 
     64 CA        -59.1700 -107.1300   92.5800 C.3       5 GLY6        0.0000 
     65 CA        -55.9400 -107.8400   92.0400 C.3       5 GLY6        0.0000 
     66 CA        -57.3000 -108.1200   92.6200 C.3       5 GLY6        0.0000 
     67 CA        -56.7800 -109.3800   93.2500 C.3       5 GLY6        0.0000 
     68 CA        -52.1900 -109.8200   92.1300 C.3       5 GLY6        0.0000 
     69 CA        -56.2600 -110.6400   93.8700 C.3       5 GLY6        0.0000 
     70 CA        -58.8000 -106.3600   93.8100 C.3       5 GLY6        0.0000 
     71 CA        -55.5700 -107.0800   93.2700 C.3       5 GLY6        0.0000 
     72 CA        -53.6900 -108.0700   93.3200 C.3       5 GLY6        0.0000 
     73 CA        -55.0500 -108.3400   93.9000 C.3       5 GLY6        0.0000 
     74 CA        -56.4000 -108.6100   94.4800 C.3       5 GLY6        0.0000 
     75 CA        -53.0000 -104.5100   92.7200 C.3       5 GLY6        0.0000 
     76 CA        -52.2500 -102.9800   95.1900 C.3       5 GLY6        0.0000 
     77 CA        -50.3700 -103.9600   95.2300 C.3       5 GLY6        0.0000 
     78 CA        -51.7300 -104.2400   95.8200 C.3       5 GLY6        0.0000 
     79 CA        -45.2700 -105.6700   94.7400 C.3       5 GLY6        0.0000 
     80 CA        -46.6200 -105.9400   95.3200 C.3       5 GLY6        0.0000 
     81 CA        -51.0400 -100.6800   95.2200 C.3       5 GLY6        0.0000 
     82 CA        -50.5200 -101.9400   95.8400 C.3       5 GLY6        0.0000 
     83 CA        -51.8800 -102.2100   96.4200 C.3       5 GLY6        0.0000 
     84 CA        -50.0000 -103.2000   96.4700 C.3       5 GLY6        0.0000 
     85 CA        -46.7700 -103.9100   95.9300 C.3       5 GLY6        0.0000 
     86 CA        -49.4800 -104.4600   97.0900 C.3       5 GLY6        0.0000 
     87 CA        -46.2500 -105.1700   96.5600 C.3       5 GLY6        0.0000 
     88 CA        -47.6000 -105.4500   97.1400 C.3       5 GLY6        0.0000 
     89 CA        -45.7300 -106.4400   97.1800 C.3       5 GLY6        0.0000 
     90 CA        -50.1400 -101.1700   97.0800 C.3       5 GLY6        0.0000 
     91 CA        -49.6200 -102.4300   97.7000 C.3       5 GLY6        0.0000 
     92 DU        -58.3400 -105.5900   91.3700 H         6 CUB7        0.0000 
     93 DU        -57.8200 -106.8600   92.0000 H         6 CUB7        0.0000 
     94 DU        -57.4400 -106.0900   93.2300 H         6 CUB7        0.0000 
     95 DU        -56.9200 -107.3500   93.8600 H         6 CUB7        0.0000 
     96 DU        -51.2700 -103.4700   93.3800 H         6 CUB7        0.0000 
     97 DU        -52.6300 -103.7400   93.9600 H         6 CUB7        0.0000 
     98 DU        -50.8900 -102.7000   94.6100 H         6 CUB7        0.0000 
     99 DU        -47.1400 -104.6800   94.7000 H         6 CUB7        0.0000 
    100 DU        -48.5000 -104.9500   95.2800 H         6 CUB7        0.0000 
    101 DU        -48.6400 -102.9300   95.8900 H         6 CUB7        0.0000 
@<TRIPOS>BOND
@<TRIPOS>SUBSTRUCTURE
     1 SER1        1 GROUP   
     2 ALA2        3 GROUP   
     3 ASP3       22 GROUP   
     4 PHE5       33 GROUP   
     5 GLY6       63 GROUP   
     6 CUB7       92 GROUP   
@<TRIPOS>SET

