#    Name: 6c4j_1_UPG
#    Modification time : Fri May 22 19:32:21 2020

@<TRIPOS>MOLECULE
6c4j_1_UPG
   36    38     1     0     0
SMALL
NO_CHARGES


@<TRIPOS>ATOM
      1 N1        -47.7140  -59.8060   23.2940 N.am      1 UPG502      0.0000 
      2 C2        -47.0340  -59.3630   24.4320 C.2       1 UPG502      0.0000 
      3 N3        -47.1790  -60.0870   25.5980 N.am      1 UPG502      0.0000 
      4 C4        -47.9610  -61.1730   25.6130 C.2       1 UPG502      0.0000 
      5 C5        -48.6510  -61.6140   24.4520 C.2       1 UPG502      0.0000 
      6 C6        -48.5010  -60.8960   23.2950 C.2       1 UPG502      0.0000 
      7 O2        -46.3140  -58.3560   24.4100 O.2       1 UPG502      0.0000 
      8 O4        -48.0450  -61.7670   26.6770 O.2       1 UPG502      0.0000 
      9 C1C       -47.5710  -59.0480   22.0360 C.3       1 UPG502      0.0000 
     10 C2C       -46.9770  -59.8290   20.8700 C.3       1 UPG502      0.0000 
     11 O2C       -45.5220  -59.8160   20.8910 O.3       1 UPG502      0.0000 
     12 C3C       -47.5770  -59.0970   19.6410 C.3       1 UPG502      0.0000 
     13 C4C       -48.9260  -58.6310   20.1780 C.3       1 UPG502      0.0000 
     14 O4C       -48.8440  -58.6690   21.6380 O.3       1 UPG502      0.0000 
     15 O3C       -46.7750  -57.9890   19.1860 O.3       1 UPG502      0.0000 
     16 C5C       -50.1160  -59.4310   19.7300 C.3       1 UPG502      0.0000 
     17 O5C       -49.7860  -60.8180   19.8950 O.3       1 UPG502      0.0000 
     18 PA        -50.8910  -61.8970   19.4890 P.3       1 UPG502      0.0000 
     19 O1A       -50.4040  -63.2830   19.5210 O.co2     1 UPG502      0.0000 
     20 O2A       -52.1550  -61.6430   20.2290 O.co2     1 UPG502      0.0000 
     21 O3A       -51.0150  -61.5860   17.8800 O.3       1 UPG502      0.0000 
     22 PB        -52.2040  -61.3140   16.8800 P.3       1 UPG502      0.0000 
     23 O1B       -52.4250  -59.8790   16.6860 O.co2     1 UPG502      0.0000 
     24 O2B       -51.8510  -62.1190   15.6670 O.co2     1 UPG502      0.0000 
     25 O3B       -53.5480  -61.9270   17.5870 O.3       1 UPG502      0.0000 
     26 C1'       -54.4620  -61.0670   18.1950 C.3       1 UPG502      0.0000 
     27 C2'       -55.3590  -61.8700   19.1670 C.3       1 UPG502      0.0000 
     28 C3'       -56.3670  -62.7070   18.4050 C.3       1 UPG502      0.0000 
     29 C4'       -57.1330  -61.8740   17.3910 C.3       1 UPG502      0.0000 
     30 C5'       -56.1200  -61.2180   16.4560 C.3       1 UPG502      0.0000 
     31 C6'       -56.7880  -60.2930   15.4650 C.3       1 UPG502      0.0000 
     32 O2'       -54.5270  -62.7240   19.9830 O.3       1 UPG502      0.0000 
     33 O3'       -57.3240  -63.2580   19.3260 O.3       1 UPG502      0.0000 
     34 O4'       -57.9800  -62.7100   16.5960 O.3       1 UPG502      0.0000 
     35 O5'       -55.2540  -60.3580   17.2130 O.3       1 UPG502      0.0000 
     36 O6'       -57.8050  -59.4860   16.1110 O.3       1 UPG502      0.0000 
@<TRIPOS>BOND
     1    1    2 1    
     2    1    6 1    
     3    1    9 1    
     4    2    3 1    
     5    2    7 2    
     6    3    4 1    
     7    4    5 1    
     8    4    8 2    
     9    5    6 2    
    10    9   10 1    
    11    9   14 1    
    12   10   11 1    
    13   10   12 1    
    14   12   13 1    
    15   12   15 1    
    16   13   14 1    
    17   13   16 1    
    18   16   17 1    
    19   17   18 1    
    20   18   19 ar   
    21   18   20 ar   
    22   18   21 1    
    23   21   22 1    
    24   22   23 ar   
    25   22   24 ar   
    26   22   25 1    
    27   25   26 1    
    28   26   27 1    
    29   26   35 1    
    30   27   28 1    
    31   27   32 1    
    32   28   29 1    
    33   28   33 1    
    34   29   30 1    
    35   29   34 1    
    36   30   31 1    
    37   30   35 1    
    38   31   36 1    
@<TRIPOS>SUBSTRUCTURE
     1 UPG502      1 GROUP   
@<TRIPOS>SET

