#    Name: 6c4j_3_UPG
#    Modification time : Fri May 22 19:32:58 2020

@<TRIPOS>MOLECULE
6c4j_3_UPG
   36    38     1     0     0
SMALL
NO_CHARGES


@<TRIPOS>ATOM
      1 N1        -27.0410   -7.5550   29.2660 N.am      1 UPG502      0.0000 
      2 C2        -28.1830   -6.7960   29.5330 C.2       1 UPG502      0.0000 
      3 N3        -28.2210   -6.0440   30.6920 N.am      1 UPG502      0.0000 
      4 C4        -27.1740   -6.0760   31.5310 C.2       1 UPG502      0.0000 
      5 C5        -26.0150   -6.8620   31.2540 C.2       1 UPG502      0.0000 
      6 C6        -25.9800   -7.6000   30.0970 C.2       1 UPG502      0.0000 
      7 O2        -29.1330   -6.7860   28.7410 O.2       1 UPG502      0.0000 
      8 O4        -27.2670   -5.3920   32.5400 O.2       1 UPG502      0.0000 
      9 C1C       -27.0290   -8.3520   28.0200 C.3       1 UPG502      0.0000 
     10 C2C       -26.0430   -7.9260   26.9380 C.3       1 UPG502      0.0000 
     11 O2C       -26.5320   -6.8190   26.1300 O.3       1 UPG502      0.0000 
     12 C3C       -25.9060   -9.2390   26.1310 C.3       1 UPG502      0.0000 
     13 C4C       -26.0610  -10.3000   27.2100 C.3       1 UPG502      0.0000 
     14 O4C       -26.6610   -9.6430   28.3650 O.3       1 UPG502      0.0000 
     15 O3C       -26.9250   -9.3950   25.1290 O.3       1 UPG502      0.0000 
     16 C5C       -24.7990  -10.9810   27.6410 C.3       1 UPG502      0.0000 
     17 O5C       -23.8400   -9.9520   27.9180 O.3       1 UPG502      0.0000 
     18 PA        -22.4530  -10.4300   28.5300 P.3       1 UPG502      0.0000 
     19 O1A       -21.4550   -9.3570   28.6630 O.co2     1 UPG502      0.0000 
     20 O2A       -22.6880  -11.2320   29.7520 O.co2     1 UPG502      0.0000 
     21 O3A       -21.9450  -11.3600   27.2730 O.3       1 UPG502      0.0000 
     22 PB        -21.1190  -12.6890   27.0490 P.3       1 UPG502      0.0000 
     23 O1B       -21.9300  -13.7580   26.4630 O.co2     1 UPG502      0.0000 
     24 O2B       -19.9560  -12.1990   26.2440 O.co2     1 UPG502      0.0000 
     25 O3B       -20.6220  -13.2040   28.5250 O.3       1 UPG502      0.0000 
     26 C1'       -21.4130  -14.0590   29.2930 C.3       1 UPG502      0.0000 
     27 C2'       -20.9750  -13.9670   30.7790 C.3       1 UPG502      0.0000 
     28 C3'       -19.6720  -14.6980   31.0020 C.3       1 UPG502      0.0000 
     29 C4'       -19.7590  -16.1320   30.5160 C.3       1 UPG502      0.0000 
     30 C5'       -20.0970  -16.0880   29.0290 C.3       1 UPG502      0.0000 
     31 C6'       -20.2800  -17.4750   28.4620 C.3       1 UPG502      0.0000 
     32 O2'       -20.7820  -12.5900   31.1650 O.3       1 UPG502      0.0000 
     33 O3'       -19.3820  -14.7130   32.4100 O.3       1 UPG502      0.0000 
     34 O4'       -18.4900  -16.7790   30.6480 O.3       1 UPG502      0.0000 
     35 O5'       -21.3570  -15.4240   28.7980 O.3       1 UPG502      0.0000 
     36 O6'       -20.5090  -17.3890   27.0320 O.3       1 UPG502      0.0000 
@<TRIPOS>BOND
     1    1    2 1    
     2    1    6 1    
     3    1    9 1    
     4    2    3 1    
     5    2    7 2    
     6    3    4 1    
     7    4    5 1    
     8    4    8 2    
     9    5    6 2    
    10    9   10 1    
    11    9   14 1    
    12   10   11 1    
    13   10   12 1    
    14   12   13 1    
    15   12   15 1    
    16   13   14 1    
    17   13   16 1    
    18   16   17 1    
    19   17   18 1    
    20   18   19 ar   
    21   18   20 ar   
    22   18   21 1    
    23   21   22 1    
    24   22   23 ar   
    25   22   24 ar   
    26   22   25 1    
    27   25   26 1    
    28   26   27 1    
    29   26   35 1    
    30   27   28 1    
    31   27   32 1    
    32   28   29 1    
    33   28   33 1    
    34   29   30 1    
    35   29   34 1    
    36   30   31 1    
    37   30   35 1    
    38   31   36 1    
@<TRIPOS>SUBSTRUCTURE
     1 UPG502      1 GROUP   
@<TRIPOS>SET

