#    Name: 6c4j_11_UPG
#    Modification time : Fri May 22 19:34:41 2020

@<TRIPOS>MOLECULE
6c4j_11_UPG
   36    38     1     0     0
SMALL
NO_CHARGES


@<TRIPOS>ATOM
      1 N1        -52.2750 -114.7280  120.2020 N.am      1 UPG502      0.0000 
      2 C2        -53.6250 -114.6410  119.8630 C.2       1 UPG502      0.0000 
      3 N3        -54.0260 -115.1180  118.6330 N.am      1 UPG502      0.0000 
      4 C4        -53.1230 -115.6460  117.8000 C.2       1 UPG502      0.0000 
      5 C5        -51.7450 -115.7260  118.1480 C.2       1 UPG502      0.0000 
      6 C6        -51.3490 -115.2500  119.3740 C.2       1 UPG502      0.0000 
      7 O2        -54.4470 -114.1570  120.6450 O.2       1 UPG502      0.0000 
      8 O4        -53.5530 -116.0470  116.7290 O.2       1 UPG502      0.0000 
      9 C1C       -51.8650 -114.2060  121.5220 C.3       1 UPG502      0.0000 
     10 C2C       -51.2640 -115.2210  122.4820 C.3       1 UPG502      0.0000 
     11 O2C       -52.2630 -115.9750  123.2180 O.3       1 UPG502      0.0000 
     12 C3C       -50.4510 -114.3020  123.4150 C.3       1 UPG502      0.0000 
     13 C4C       -49.9910 -113.2010  122.4680 C.3       1 UPG502      0.0000 
     14 O4C       -50.8760 -113.2550  121.3070 O.3       1 UPG502      0.0000 
     15 O3C       -51.2660 -113.7770  124.4740 O.3       1 UPG502      0.0000 
     16 C5C       -48.5610 -113.2860  122.0130 C.3       1 UPG502      0.0000 
     17 O5C       -48.2870 -114.6620  121.7150 O.3       1 UPG502      0.0000 
     18 PA        -46.8240 -115.0310  121.2040 P.3       1 UPG502      0.0000 
     19 O1A       -46.5990 -116.4750  121.0360 O.co2     1 UPG502      0.0000 
     20 O2A       -46.4560 -114.1720  120.0500 O.co2     1 UPG502      0.0000 
     21 O3A       -45.9670 -114.6630  122.5510 O.3       1 UPG502      0.0000 
     22 PB        -44.5210 -114.1340  122.8830 P.3       1 UPG502      0.0000 
     23 O1B       -44.5780 -112.8770  123.6310 O.co2     1 UPG502      0.0000 
     24 O2B       -43.8910 -115.3070  123.5700 O.co2     1 UPG502      0.0000 
     25 O3B       -43.8150 -113.8110  121.4350 O.3       1 UPG502      0.0000 
     26 C1'       -43.8980 -112.5400  120.8570 C.3       1 UPG502      0.0000 
     27 C2'       -43.5380 -112.6240  119.3530 C.3       1 UPG502      0.0000 
     28 C3'       -42.0470 -112.8510  119.1670 C.3       1 UPG502      0.0000 
     29 C4'       -41.2420 -111.7970  119.9060 C.3       1 UPG502      0.0000 
     30 C5'       -41.6350 -111.8880  121.3830 C.3       1 UPG502      0.0000 
     31 C6'       -40.9050 -110.8910  122.2600 C.3       1 UPG502      0.0000 
     32 O2'       -44.2810 -113.7060  118.7590 O.3       1 UPG502      0.0000 
     33 O3'       -41.6710 -112.7700  117.7800 O.3       1 UPG502      0.0000 
     34 O4'       -39.8460 -112.0760  119.7760 O.3       1 UPG502      0.0000 
     35 O5'       -43.0400 -111.5880  121.5350 O.3       1 UPG502      0.0000 
     36 O6'       -40.6550 -109.6330  121.5810 O.3       1 UPG502      0.0000 
@<TRIPOS>BOND
     1    1    2 1    
     2    1    6 1    
     3    1    9 1    
     4    2    3 1    
     5    2    7 2    
     6    3    4 1    
     7    4    5 1    
     8    4    8 2    
     9    5    6 2    
    10    9   10 1    
    11    9   14 1    
    12   10   11 1    
    13   10   12 1    
    14   12   13 1    
    15   12   15 1    
    16   13   14 1    
    17   13   16 1    
    18   16   17 1    
    19   17   18 1    
    20   18   19 ar   
    21   18   20 ar   
    22   18   21 1    
    23   21   22 1    
    24   22   23 ar   
    25   22   24 ar   
    26   22   25 1    
    27   25   26 1    
    28   26   27 1    
    29   26   35 1    
    30   27   28 1    
    31   27   32 1    
    32   28   29 1    
    33   28   33 1    
    34   29   30 1    
    35   29   34 1    
    36   30   31 1    
    37   30   35 1    
    38   31   36 1    
@<TRIPOS>SUBSTRUCTURE
     1 UPG502      1 GROUP   
@<TRIPOS>SET

