#    Name: 6c4j_7_UPG
#    Modification time : Fri May 22 19:33:48 2020

@<TRIPOS>MOLECULE
6c4j_7_UPG
   36    38     1     0     0
SMALL
NO_CHARGES


@<TRIPOS>ATOM
      1 N1        -91.0200  -80.3930  140.9540 N.am      1 UPG502      0.0000 
      2 C2        -90.7190  -79.1150  140.4670 C.2       1 UPG502      0.0000 
      3 N3        -91.6840  -78.4430  139.7430 N.am      1 UPG502      0.0000 
      4 C4        -92.8730  -79.0200  139.5260 C.2       1 UPG502      0.0000 
      5 C5        -93.1700  -80.3230  140.0200 C.2       1 UPG502      0.0000 
      6 C6        -92.2120  -80.9910  140.7410 C.2       1 UPG502      0.0000 
      7 O2        -89.6240  -78.5860  140.6790 O.2       1 UPG502      0.0000 
      8 O4        -93.6770  -78.3630  138.8810 O.2       1 UPG502      0.0000 
      9 C1C       -89.9770  -81.1070  141.7220 C.3       1 UPG502      0.0000 
     10 C2C       -90.2950  -81.3960  143.1800 C.3       1 UPG502      0.0000 
     11 O2C       -90.0350  -80.2460  144.0340 O.3       1 UPG502      0.0000 
     12 C3C       -89.3660  -82.6030  143.4600 C.3       1 UPG502      0.0000 
     13 C4C       -89.4080  -83.3360  142.1250 C.3       1 UPG502      0.0000 
     14 O4C       -89.8010  -82.3450  141.1220 O.3       1 UPG502      0.0000 
     15 O3C       -88.0210  -82.2140  143.7850 O.3       1 UPG502      0.0000 
     16 C5C       -90.3090  -84.5440  142.0430 C.3       1 UPG502      0.0000 
     17 O5C       -91.5810  -84.1790  142.6010 O.3       1 UPG502      0.0000 
     18 PA        -92.7960  -85.2060  142.5210 P.3       1 UPG502      0.0000 
     19 O1A       -94.0410  -84.6320  143.0590 O.co2     1 UPG502      0.0000 
     20 O2A       -92.9430  -85.7800  141.1590 O.co2     1 UPG502      0.0000 
     21 O3A       -92.3380  -86.3210  143.6490 O.3       1 UPG502      0.0000 
     22 PB        -91.7910  -87.8060  143.5540 P.3       1 UPG502      0.0000 
     23 O1B       -90.4060  -87.8690  143.0730 O.co2     1 UPG502      0.0000 
     24 O2B       -92.0400  -88.4180  144.9010 O.co2     1 UPG502      0.0000 
     25 O3B       -92.7420  -88.5110  142.4260 O.3       1 UPG502      0.0000 
     26 C1'       -92.2590  -88.7950  141.1540 C.3       1 UPG502      0.0000 
     27 C2'       -93.4660  -88.9210  140.2050 C.3       1 UPG502      0.0000 
     28 C3'       -94.2730  -90.1330  140.6050 C.3       1 UPG502      0.0000 
     29 C4'       -93.4030  -91.3780  140.5860 C.3       1 UPG502      0.0000 
     30 C5'       -92.2610  -91.1480  141.5810 C.3       1 UPG502      0.0000 
     31 C6'       -91.2650  -92.2840  141.6440 C.3       1 UPG502      0.0000 
     32 O2'       -94.2620  -87.7210  140.2980 O.3       1 UPG502      0.0000 
     33 O3'       -95.3250  -90.3290  139.6550 O.3       1 UPG502      0.0000 
     34 O4'       -94.1600  -92.5370  140.9700 O.3       1 UPG502      0.0000 
     35 O5'       -91.4900  -90.0190  141.1390 O.3       1 UPG502      0.0000 
     36 O6'       -91.1880  -92.9720  140.3700 O.3       1 UPG502      0.0000 
@<TRIPOS>BOND
     1    1    2 1    
     2    1    6 1    
     3    1    9 1    
     4    2    3 1    
     5    2    7 2    
     6    3    4 1    
     7    4    5 1    
     8    4    8 2    
     9    5    6 2    
    10    9   10 1    
    11    9   14 1    
    12   10   11 1    
    13   10   12 1    
    14   12   13 1    
    15   12   15 1    
    16   13   14 1    
    17   13   16 1    
    18   16   17 1    
    19   17   18 1    
    20   18   19 ar   
    21   18   20 ar   
    22   18   21 1    
    23   21   22 1    
    24   22   23 ar   
    25   22   24 ar   
    26   22   25 1    
    27   25   26 1    
    28   26   27 1    
    29   26   35 1    
    30   27   28 1    
    31   27   32 1    
    32   28   29 1    
    33   28   33 1    
    34   29   30 1    
    35   29   34 1    
    36   30   31 1    
    37   30   35 1    
    38   31   36 1    
@<TRIPOS>SUBSTRUCTURE
     1 UPG502      1 GROUP   
@<TRIPOS>SET

