#    Name: 6c4j_9_UPG
#    Modification time : Fri May 22 19:34:16 2020

@<TRIPOS>MOLECULE
6c4j_9_UPG
   36    38     1     0     0
SMALL
NO_CHARGES


@<TRIPOS>ATOM
      1 N1        -38.4120  -61.3980  132.0140 N.am      1 UPG502      0.0000 
      2 C2        -38.1310  -62.1750  130.8880 C.2       1 UPG502      0.0000 
      3 N3        -37.7190  -61.5310  129.7420 N.am      1 UPG502      0.0000 
      4 C4        -37.6100  -60.1990  129.7290 C.2       1 UPG502      0.0000 
      5 C5        -37.9040  -59.4160  130.8790 C.2       1 UPG502      0.0000 
      6 C6        -38.3090  -60.0570  132.0200 C.2       1 UPG502      0.0000 
      7 O2        -38.2430  -63.4100  130.9090 O.2       1 UPG502      0.0000 
      8 O4        -37.2430  -59.7000  128.6760 O.2       1 UPG502      0.0000 
      9 C1C       -38.8650  -62.0970  133.2350 C.3       1 UPG502      0.0000 
     10 C2C       -37.9940  -61.9400  134.4690 C.3       1 UPG502      0.0000 
     11 O2C       -36.8580  -62.8490  134.4190 O.3       1 UPG502      0.0000 
     12 C3C       -39.0080  -62.2510  135.6030 C.3       1 UPG502      0.0000 
     13 C4C       -40.3120  -61.7150  135.0240 C.3       1 UPG502      0.0000 
     14 O4C       -40.1170  -61.6000  133.5800 O.3       1 UPG502      0.0000 
     15 O3C       -39.1320  -63.6560  135.8950 O.3       1 UPG502      0.0000 
     16 C5C       -40.8110  -60.4090  135.5780 C.3       1 UPG502      0.0000 
     17 O5C       -39.7110  -59.4920  135.6110 O.3       1 UPG502      0.0000 
     18 PA        -39.9790  -58.0670  136.2720 P.3       1 UPG502      0.0000 
     19 O1A       -38.7460  -57.3130  136.5550 O.co2     1 UPG502      0.0000 
     20 O2A       -41.0170  -57.3290  135.5090 O.co2     1 UPG502      0.0000 
     21 O3A       -40.5470  -58.5270  137.7470 O.3       1 UPG502      0.0000 
     22 PB        -41.5070  -57.9090  138.8440 P.3       1 UPG502      0.0000 
     23 O1B       -42.4980  -58.8730  139.3310 O.co2     1 UPG502      0.0000 
     24 O2B       -40.5490  -57.3620  139.8560 O.co2     1 UPG502      0.0000 
     25 O3B       -42.3350  -56.7000  138.1030 O.3       1 UPG502      0.0000 
     26 C1'       -43.5730  -56.9420  137.4990 C.3       1 UPG502      0.0000 
     27 C2'       -43.9710  -55.7340  136.6140 C.3       1 UPG502      0.0000 
     28 C3'       -44.3440  -54.5370  137.4680 C.3       1 UPG502      0.0000 
     29 C4'       -45.3910  -54.8990  138.5060 C.3       1 UPG502      0.0000 
     30 C5'       -44.8320  -56.0530  139.3400 C.3       1 UPG502      0.0000 
     31 C6'       -45.8100  -56.5260  140.3910 C.3       1 UPG502      0.0000 
     32 O2'       -42.8690  -55.3890  135.7460 O.3       1 UPG502      0.0000 
     33 O3'       -44.9050  -53.5010  136.6450 O.3       1 UPG502      0.0000 
     34 O4'       -45.6370  -53.7840  139.3700 O.3       1 UPG502      0.0000 
     35 O5'       -44.6010  -57.1930  138.4900 O.3       1 UPG502      0.0000 
     36 O6'       -47.1730  -56.4470  139.9020 O.3       1 UPG502      0.0000 
@<TRIPOS>BOND
     1    1    2 1    
     2    1    6 1    
     3    1    9 1    
     4    2    3 1    
     5    2    7 2    
     6    3    4 1    
     7    4    5 1    
     8    4    8 2    
     9    5    6 2    
    10    9   10 1    
    11    9   14 1    
    12   10   11 1    
    13   10   12 1    
    14   12   13 1    
    15   12   15 1    
    16   13   14 1    
    17   13   16 1    
    18   16   17 1    
    19   17   18 1    
    20   18   19 ar   
    21   18   20 ar   
    22   18   21 1    
    23   21   22 1    
    24   22   23 ar   
    25   22   24 ar   
    26   22   25 1    
    27   25   26 1    
    28   26   27 1    
    29   26   35 1    
    30   27   28 1    
    31   27   32 1    
    32   28   29 1    
    33   28   33 1    
    34   29   30 1    
    35   29   34 1    
    36   30   31 1    
    37   30   35 1    
    38   31   36 1    
@<TRIPOS>SUBSTRUCTURE
     1 UPG502      1 GROUP   
@<TRIPOS>SET

