#    Name: 6c4j_13_NAD
#    Modification time : Fri May 22 19:35:13 2020

@<TRIPOS>MOLECULE
6c4j_13_NAD
   44    48     1     0     1
SMALL
NO_CHARGES


@<TRIPOS>ATOM
      1 PA        -64.4900   -3.5330   -1.7890 P.3       1 NAD501      0.0000 
      2 O1A       -63.2690   -4.3610   -1.7960 O.co2     1 NAD501      0.0000 
      3 O2A       -65.5800   -3.9390   -2.7590 O.co2     1 NAD501      0.0000 
      4 O5B       -64.1680   -1.9860   -2.0490 O.3       1 NAD501      0.0000 
      5 C5B       -63.0540   -1.2890   -1.4520 C.3       1 NAD501      0.0000 
      6 C4B       -62.4220   -0.5510   -2.5990 C.3       1 NAD501      0.0000 
      7 O4B       -61.3930    0.3700   -2.1530 O.3       1 NAD501      0.0000 
      8 C3B       -61.6730   -1.4740   -3.5980 C.3       1 NAD501      0.0000 
      9 O3B       -62.3450   -1.4500   -4.8650 O.3       1 NAD501      0.0000 
     10 C2B       -60.2480   -0.8560   -3.6330 C.3       1 NAD501      0.0000 
     11 O2B       -59.6720   -1.0060   -4.9540 O.3       1 NAD501      0.0000 
     12 C1B       -60.6440    0.5820   -3.3340 C.3       1 NAD501      0.0000 
     13 N9A       -59.6410    1.6130   -3.1670 N.pl3     1 NAD501      0.0000 
     14 C8A       -59.5640    2.7990   -3.8410 C.2       1 NAD501      0.0000 
     15 N7A       -58.5340    3.5890   -3.4910 N.2       1 NAD501      0.0000 
     16 C5A       -57.9280    2.8260   -2.5170 C.ar      1 NAD501      0.0000 
     17 C6A       -56.7800    3.0860   -1.7370 C.ar      1 NAD501      0.0000 
     18 N6A       -56.0830    4.2210   -1.8730 N.pl3     1 NAD501      0.0000 
     19 N1A       -56.4340    2.1320   -0.8550 N.ar      1 NAD501      0.0000 
     20 C2A       -57.1710    1.0190   -0.7660 C.ar      1 NAD501      0.0000 
     21 N3A       -58.2560    0.6560   -1.4340 N.ar      1 NAD501      0.0000 
     22 C4A       -58.5790    1.6190   -2.3030 C.ar      1 NAD501      0.0000 
     23 O3        -65.0560   -3.5130   -0.3310 O.3       1 NAD501      0.0000 
     24 PN        -66.5710   -3.2140    0.1950 P.3       1 NAD501      0.0000 
     25 O1N       -67.3310   -4.4690    0.1190 O.co2     1 NAD501      0.0000 
     26 O2N       -67.1680   -2.0640   -0.5110 O.co2     1 NAD501      0.0000 
     27 O5D       -66.3380   -2.8220    1.7330 O.3       1 NAD501      0.0000 
     28 C5D       -66.0080   -1.4840    2.1340 C.3       1 NAD501      0.0000 
     29 C4D       -65.9230   -1.5090    3.6570 C.3       1 NAD501      0.0000 
     30 O4D       -67.2680   -1.3560    4.2360 O.3       1 NAD501      0.0000 
     31 C3D       -65.3120   -2.7280    4.3230 C.3       1 NAD501      0.0000 
     32 O3D       -64.4640   -2.3950    5.4360 O.3       1 NAD501      0.0000 
     33 C2D       -66.5630   -3.5020    4.7960 C.3       1 NAD501      0.0000 
     34 O2D       -66.2400   -4.3520    5.9190 O.3       1 NAD501      0.0000 
     35 C1D       -67.5250   -2.3790    5.1480 C.3       1 NAD501      0.0000 
     36 N1N       -68.9170   -2.7540    5.0000 N.pl3     1 NAD501      0.0000 
     37 C2N       -69.2310   -3.7720    4.1250 C.ar      1 NAD501      0.0000 
     38 C3N       -70.5310   -4.0450    3.7450 C.ar      1 NAD501      0.0000 
     39 C7N       -70.8860   -5.1470    2.7480 C.2       1 NAD501      0.0000 
     40 O7N       -72.0620   -5.4300    2.5790 O.2       1 NAD501      0.0000 
     41 N7N       -69.9110   -5.7970    2.0650 N.am      1 NAD501      0.0000 
     42 C4N       -71.6200   -3.3850    4.4310 C.ar      1 NAD501      0.0000 
     43 C5N       -71.1740   -2.3800    5.4500 C.ar      1 NAD501      0.0000 
     44 C6N       -69.8890   -2.0610    5.7600 C.ar      1 NAD501      0.0000 
@<TRIPOS>BOND
     1    1    2 ar   
     2    1    3 ar   
     3    1    4 1    
     4    1   23 1    
     5    4    5 1    
     6    5    6 1    
     7    6    7 1    
     8    6    8 1    
     9    7   12 1    
    10    8    9 1    
    11    8   10 1    
    12   10   11 1    
    13   10   12 1    
    14   12   13 1    
    15   13   14 1    
    16   13   22 1    
    17   14   15 2    
    18   15   16 1    
    19   16   17 ar   
    20   16   22 ar   
    21   17   18 1    
    22   17   19 ar   
    23   19   20 ar   
    24   20   21 ar   
    25   21   22 ar   
    26   23   24 1    
    27   24   25 ar   
    28   24   26 ar   
    29   24   27 1    
    30   27   28 1    
    31   28   29 1    
    32   29   30 1    
    33   29   31 1    
    34   30   35 1    
    35   31   32 1    
    36   31   33 1    
    37   33   34 1    
    38   33   35 1    
    39   35   36 1    
    40   36   37 ar   
    41   36   44 ar   
    42   37   38 ar   
    43   38   39 1    
    44   38   42 ar   
    45   39   40 2    
    46   39   41 am   
    47   42   43 ar   
    48   43   44 ar   
@<TRIPOS>SUBSTRUCTURE
     1 NAD501      1 GROUP   
@<TRIPOS>SET
ATOM$ORANGE STATIC     ATOMS   COLORGROUP SYSTEM 
42 5 5 6 6 8 8 10 10 12 12 14 14 16 16 17 17 20 \
20 22 22 28 28 29 29 31 31 33 33 35 35 37 37 38 38 39 \
39 42 42 43 43 44 44 

