#    Name: 6c4j_15_NAD
#    Modification time : Fri May 22 19:35:35 2020

@<TRIPOS>MOLECULE
6c4j_15_NAD
   44    48     1     0     1
SMALL
NO_CHARGES


@<TRIPOS>ATOM
      1 PA        -34.5920 -109.8310  131.8350 P.3       1 NAD501      0.0000 
      2 O1A       -35.0390 -111.2310  132.0200 O.co2     1 NAD501      0.0000 
      3 O2A       -35.0180 -108.8120  132.8810 O.co2     1 NAD501      0.0000 
      4 O5B       -33.0000 -109.7620  131.7100 O.3       1 NAD501      0.0000 
      5 C5B       -32.2420 -108.5470  131.7640 C.3       1 NAD501      0.0000 
      6 C4B       -31.1120 -108.9100  132.6710 C.3       1 NAD501      0.0000 
      7 O4B       -30.2000 -107.7970  132.6200 O.3       1 NAD501      0.0000 
      8 C3B       -31.5240 -109.0460  134.1610 C.3       1 NAD501      0.0000 
      9 O3B       -31.1680 -110.3300  134.7000 O.3       1 NAD501      0.0000 
     10 C2B       -30.7960 -107.8450  134.8260 C.3       1 NAD501      0.0000 
     11 O2B       -30.3100 -108.1570  136.1540 O.3       1 NAD501      0.0000 
     12 C1B       -29.6190 -107.6100  133.8950 C.3       1 NAD501      0.0000 
     13 N9A       -29.1370 -106.2570  133.9040 N.pl3     1 NAD501      0.0000 
     14 C8A       -29.8400 -105.0970  133.8120 C.2       1 NAD501      0.0000 
     15 N7A       -29.0640 -104.0000  133.8460 N.2       1 NAD501      0.0000 
     16 C5A       -27.7910 -104.5250  133.9650 C.ar      1 NAD501      0.0000 
     17 C6A       -26.5180 -103.9060  134.0490 C.ar      1 NAD501      0.0000 
     18 N6A       -26.3670 -102.5740  134.0200 N.pl3     1 NAD501      0.0000 
     19 N1A       -25.4580 -104.7240  134.1610 N.ar      1 NAD501      0.0000 
     20 C2A       -25.6330 -106.0440  134.1840 C.ar      1 NAD501      0.0000 
     21 N3A       -26.7600 -106.7340  134.1080 N.ar      1 NAD501      0.0000 
     22 C4A       -27.8130 -105.9040  134.0010 C.ar      1 NAD501      0.0000 
     23 O3        -35.0290 -109.3430  130.4180 O.3       1 NAD501      0.0000 
     24 PN        -35.3390 -110.1970  129.0710 P.3       1 NAD501      0.0000 
     25 O1N       -36.6850 -110.7670  129.1860 O.co2     1 NAD501      0.0000 
     26 O2N       -34.2590 -111.1650  128.7970 O.co2     1 NAD501      0.0000 
     27 O5D       -35.3370 -109.0540  127.9430 O.3       1 NAD501      0.0000 
     28 C5D       -34.1440 -108.3290  127.6170 C.3       1 NAD501      0.0000 
     29 C4D       -34.4780 -107.4600  126.4100 C.3       1 NAD501      0.0000 
     30 O4D       -34.7900 -108.2960  125.2400 O.3       1 NAD501      0.0000 
     31 C3D       -35.6260 -106.4750  126.5170 C.3       1 NAD501      0.0000 
     32 O3D       -35.3630 -105.2580  125.7980 O.3       1 NAD501      0.0000 
     33 C2D       -36.7560 -107.2460  125.8170 C.3       1 NAD501      0.0000 
     34 O2D       -37.7900 -106.3330  125.3960 O.3       1 NAD501      0.0000 
     35 C1D       -35.9710 -107.8330  124.6600 C.3       1 NAD501      0.0000 
     36 N1N       -36.6310 -108.9520  124.0260 N.pl3     1 NAD501      0.0000 
     37 C2N       -37.4490 -109.7560  124.7850 C.ar      1 NAD501      0.0000 
     38 C3N       -37.9110 -110.9670  124.3080 C.ar      1 NAD501      0.0000 
     39 C7N       -38.5410 -112.0240  125.2040 C.2       1 NAD501      0.0000 
     40 O7N       -38.9560 -113.0480  124.6900 O.2       1 NAD501      0.0000 
     41 N7N       -38.6280 -111.8200  126.5390 N.am      1 NAD501      0.0000 
     42 C4N       -37.6730 -111.3390  122.9310 C.ar      1 NAD501      0.0000 
     43 C5N       -36.9590 -110.2850  122.1460 C.ar      1 NAD501      0.0000 
     44 C6N       -36.4010 -109.1540  122.6470 C.ar      1 NAD501      0.0000 
@<TRIPOS>BOND
     1    1    2 ar   
     2    1    3 ar   
     3    1    4 1    
     4    1   23 1    
     5    4    5 1    
     6    5    6 1    
     7    6    7 1    
     8    6    8 1    
     9    7   12 1    
    10    8    9 1    
    11    8   10 1    
    12   10   11 1    
    13   10   12 1    
    14   12   13 1    
    15   13   14 1    
    16   13   22 1    
    17   14   15 2    
    18   15   16 1    
    19   16   17 ar   
    20   16   22 ar   
    21   17   18 1    
    22   17   19 ar   
    23   19   20 ar   
    24   20   21 ar   
    25   21   22 ar   
    26   23   24 1    
    27   24   25 ar   
    28   24   26 ar   
    29   24   27 1    
    30   27   28 1    
    31   28   29 1    
    32   29   30 1    
    33   29   31 1    
    34   30   35 1    
    35   31   32 1    
    36   31   33 1    
    37   33   34 1    
    38   33   35 1    
    39   35   36 1    
    40   36   37 ar   
    41   36   44 ar   
    42   37   38 ar   
    43   38   39 1    
    44   38   42 ar   
    45   39   40 2    
    46   39   41 am   
    47   42   43 ar   
    48   43   44 ar   
@<TRIPOS>SUBSTRUCTURE
     1 NAD501      1 GROUP   
@<TRIPOS>SET
ATOM$ORANGE STATIC     ATOMS   COLORGROUP SYSTEM 
42 5 5 6 6 8 8 10 10 12 12 14 14 16 16 17 17 20 \
20 22 22 28 28 29 29 31 31 33 33 35 35 37 37 38 38 39 \
39 42 42 43 43 44 44 

