#    Name: 6c4j_8_UPG
#    Modification time : Fri May 22 19:34:04 2020

@<TRIPOS>MOLECULE
6c4j_8_UPG
   36    38     1     0     0
SMALL
NO_CHARGES


@<TRIPOS>ATOM
      1 N1        -99.1090  -83.9630  115.5350 N.am      1 UPG502      0.0000 
      2 C2        -98.6480  -85.2630  115.7650 C.2       1 UPG502      0.0000 
      3 N3        -99.1070  -85.9400  116.8710 N.am      1 UPG502      0.0000 
      4 C4        -99.9710  -85.3520  117.6990 C.2       1 UPG502      0.0000 
      5 C5       -100.4370  -84.0280  117.4700 C.2       1 UPG502      0.0000 
      6 C6        -99.9800  -83.3550  116.3660 C.2       1 UPG502      0.0000 
      7 O2        -97.8560  -85.8240  115.0080 O.2       1 UPG502      0.0000 
      8 O4       -100.3200  -86.0270  118.6520 O.2       1 UPG502      0.0000 
      9 C1C       -98.6080  -83.2340  114.3450 C.3       1 UPG502      0.0000 
     10 C2C       -99.6090  -82.9950  113.2200 C.3       1 UPG502      0.0000 
     11 O2C       -99.7060  -84.1430  112.3340 O.3       1 UPG502      0.0000 
     12 C3C       -99.0150  -81.7530  112.5110 C.3       1 UPG502      0.0000 
     13 C4C       -98.3410  -81.0140  113.6560 C.3       1 UPG502      0.0000 
     14 O4C       -98.1970  -81.9710  114.7550 O.3       1 UPG502      0.0000 
     15 O3C       -98.0460  -82.0840  111.5020 O.3       1 UPG502      0.0000 
     16 C5C       -99.0420  -79.7690  114.1250 C.3       1 UPG502      0.0000 
     17 O5C      -100.4150  -80.1050  114.3550 O.3       1 UPG502      0.0000 
     18 PA       -101.4220  -78.9190  114.7110 P.3       1 UPG502      0.0000 
     19 O1A      -102.7800  -79.0980  114.1670 O.co2     1 UPG502      0.0000 
     20 O2A      -101.3860  -78.6350  116.1670 O.co2     1 UPG502      0.0000 
     21 O3A      -100.7920  -77.6770  113.8230 O.3       1 UPG502      0.0000 
     22 PB       -101.3250  -76.2620  113.3610 P.3       1 UPG502      0.0000 
     23 O1B      -100.4120  -75.5480  112.4650 O.co2     1 UPG502      0.0000 
     24 O2B      -102.6790  -76.5960  112.8180 O.co2     1 UPG502      0.0000 
     25 O3B      -101.4220  -75.3890  114.7440 O.3       1 UPG502      0.0000 
     26 C1'      -100.3120  -75.2380  115.5720 C.3       1 UPG502      0.0000 
     27 C2'      -100.7530  -75.1990  117.0590 C.3       1 UPG502      0.0000 
     28 C3'      -101.5440  -73.9370  117.3360 C.3       1 UPG502      0.0000 
     29 C4'      -100.7530  -72.7000  116.9300 C.3       1 UPG502      0.0000 
     30 C5'      -100.4220  -72.8460  115.4390 C.3       1 UPG502      0.0000 
     31 C6'       -99.6540  -71.6690  114.8660 C.3       1 UPG502      0.0000 
     32 O2'      -101.5580  -76.3530  117.3870 O.3       1 UPG502      0.0000 
     33 O3'      -101.8500  -73.8710  118.7400 O.3       1 UPG502      0.0000 
     34 O4'      -101.5300  -71.5080  117.1070 O.3       1 UPG502      0.0000 
     35 O5'       -99.6060  -74.0190  115.2240 O.3       1 UPG502      0.0000 
     36 O6'       -98.6180  -71.1830  115.7580 O.3       1 UPG502      0.0000 
@<TRIPOS>BOND
     1    1    2 1    
     2    1    6 1    
     3    1    9 1    
     4    2    3 1    
     5    2    7 2    
     6    3    4 1    
     7    4    5 1    
     8    4    8 2    
     9    5    6 2    
    10    9   10 1    
    11    9   14 1    
    12   10   11 1    
    13   10   12 1    
    14   12   13 1    
    15   12   15 1    
    16   13   14 1    
    17   13   16 1    
    18   16   17 1    
    19   17   18 1    
    20   18   19 ar   
    21   18   20 ar   
    22   18   21 1    
    23   21   22 1    
    24   22   23 ar   
    25   22   24 ar   
    26   22   25 1    
    27   25   26 1    
    28   26   27 1    
    29   26   35 1    
    30   27   28 1    
    31   27   32 1    
    32   28   29 1    
    33   28   33 1    
    34   29   30 1    
    35   29   34 1    
    36   30   31 1    
    37   30   35 1    
    38   31   36 1    
@<TRIPOS>SUBSTRUCTURE
     1 UPG502      1 GROUP   
@<TRIPOS>SET

