#    Name: 6c4j_14_NAD
#    Modification time : Fri May 22 19:35:27 2020

@<TRIPOS>MOLECULE
6c4j_14_NAD
   44    48     1     0     1
SMALL
NO_CHARGES


@<TRIPOS>ATOM
      1 PA        -47.9490  -54.7360   94.7540 P.3       1 NAD501      0.0000 
      2 O1A       -48.8700  -55.8240   94.3590 O.co2     1 NAD501      0.0000 
      3 O2A       -48.5750  -53.3710   94.9590 O.co2     1 NAD501      0.0000 
      4 O5B       -46.7430  -54.5460   93.7180 O.3       1 NAD501      0.0000 
      5 C5B       -45.9330  -55.6430   93.2590 C.3       1 NAD501      0.0000 
      6 C4B       -45.7830  -55.4500   91.7770 C.3       1 NAD501      0.0000 
      7 O4B       -44.9860  -56.5530   91.2810 O.3       1 NAD501      0.0000 
      8 C3B       -47.1190  -55.5330   90.9850 C.3       1 NAD501      0.0000 
      9 O3B       -47.3840  -54.3180   90.2630 O.3       1 NAD501      0.0000 
     10 C2B       -46.9180  -56.7990   90.0970 C.3       1 NAD501      0.0000 
     11 O2B       -47.5330  -56.7010   88.7830 O.3       1 NAD501      0.0000 
     12 C1B       -45.4060  -56.8540   89.9660 C.3       1 NAD501      0.0000 
     13 N9A       -44.9120  -58.1600   89.6340 N.pl3     1 NAD501      0.0000 
     14 C8A       -45.2880  -59.3730   90.1180 C.2       1 NAD501      0.0000 
     15 N7A       -44.6100  -60.4010   89.5750 N.2       1 NAD501      0.0000 
     16 C5A       -43.7530  -59.7720   88.6890 C.ar      1 NAD501      0.0000 
     17 C6A       -42.7690  -60.2820   87.8030 C.ar      1 NAD501      0.0000 
     18 N6A       -42.5120  -61.5920   87.6970 N.pl3     1 NAD501      0.0000 
     19 N1A       -42.0970  -59.3800   87.0680 N.ar      1 NAD501      0.0000 
     20 C2A       -42.3770  -58.0820   87.1970 C.ar      1 NAD501      0.0000 
     21 N3A       -43.2600  -57.4820   87.9810 N.ar      1 NAD501      0.0000 
     22 C4A       -43.9240  -58.3990   88.7080 C.ar      1 NAD501      0.0000 
     23 O3        -47.1840  -55.1530   96.0580 O.3       1 NAD501      0.0000 
     24 PN        -46.5830  -54.1960   97.2310 P.3       1 NAD501      0.0000 
     25 O1N       -47.6990  -53.8310   98.1170 O.co2     1 NAD501      0.0000 
     26 O2N       -45.8400  -53.0630   96.6540 O.co2     1 NAD501      0.0000 
     27 O5D       -45.5450  -55.1270   98.0270 O.3       1 NAD501      0.0000 
     28 C5D       -44.7850  -56.1420   97.3620 C.3       1 NAD501      0.0000 
     29 C4D       -44.0880  -56.9180   98.4720 C.3       1 NAD501      0.0000 
     30 O4D       -43.5670  -55.9840   99.4800 O.3       1 NAD501      0.0000 
     31 C3D       -44.8860  -57.9630   99.2350 C.3       1 NAD501      0.0000 
     32 O3D       -44.1390  -59.1730   99.4690 O.3       1 NAD501      0.0000 
     33 C2D       -45.1800  -57.2400  100.5660 C.3       1 NAD501      0.0000 
     34 O2D       -45.3920  -58.1990  101.6260 O.3       1 NAD501      0.0000 
     35 C1D       -43.9110  -56.4310  100.7550 C.3       1 NAD501      0.0000 
     36 N1N       -44.0950  -55.2660  101.5920 N.pl3     1 NAD501      0.0000 
     37 C2N       -45.2430  -54.5200  101.4590 C.ar      1 NAD501      0.0000 
     38 C3N       -45.3480  -53.2500  102.0000 C.ar      1 NAD501      0.0000 
     39 C7N       -46.5750  -52.3590  101.8230 C.2       1 NAD501      0.0000 
     40 O7N       -46.7720  -51.4710  102.6390 O.2       1 NAD501      0.0000 
     41 N7N       -47.4200  -52.5540  100.7830 N.am      1 NAD501      0.0000 
     42 C4N       -44.2740  -52.7200  102.8140 C.ar      1 NAD501      0.0000 
     43 C5N       -43.1390  -53.6760  103.0010 C.ar      1 NAD501      0.0000 
     44 C6N       -43.0670  -54.9400  102.5060 C.ar      1 NAD501      0.0000 
@<TRIPOS>BOND
     1    1    2 ar   
     2    1    3 ar   
     3    1    4 1    
     4    1   23 1    
     5    4    5 1    
     6    5    6 1    
     7    6    7 1    
     8    6    8 1    
     9    7   12 1    
    10    8    9 1    
    11    8   10 1    
    12   10   11 1    
    13   10   12 1    
    14   12   13 1    
    15   13   14 1    
    16   13   22 1    
    17   14   15 2    
    18   15   16 1    
    19   16   17 ar   
    20   16   22 ar   
    21   17   18 1    
    22   17   19 ar   
    23   19   20 ar   
    24   20   21 ar   
    25   21   22 ar   
    26   23   24 1    
    27   24   25 ar   
    28   24   26 ar   
    29   24   27 1    
    30   27   28 1    
    31   28   29 1    
    32   29   30 1    
    33   29   31 1    
    34   30   35 1    
    35   31   32 1    
    36   31   33 1    
    37   33   34 1    
    38   33   35 1    
    39   35   36 1    
    40   36   37 ar   
    41   36   44 ar   
    42   37   38 ar   
    43   38   39 1    
    44   38   42 ar   
    45   39   40 2    
    46   39   41 am   
    47   42   43 ar   
    48   43   44 ar   
@<TRIPOS>SUBSTRUCTURE
     1 NAD501      1 GROUP   
@<TRIPOS>SET
ATOM$ORANGE STATIC     ATOMS   COLORGROUP SYSTEM 
42 5 5 6 6 8 8 10 10 12 12 14 14 16 16 17 17 20 \
20 22 22 28 28 29 29 31 31 33 33 35 35 37 37 38 38 39 \
39 42 42 43 43 44 44 

