#    Name: 5xik_4_ANP
#    Modification time : Fri May 22 19:16:29 2020

@<TRIPOS>MOLECULE
5xik_4_ANP
   31    33     1     0     1
SMALL
NO_CHARGES


@<TRIPOS>ATOM
      1 PG          6.7770   -7.7050  -20.6380 P.3       1 ANP1001     0.0000 
      2 O1G         7.8610   -8.0390  -21.5560 O.co2     1 ANP1001     0.0000 
      3 O2G         6.1160   -8.9850  -20.0420 O.co2     1 ANP1001     0.0000 
      4 O3G         7.2940   -6.8910  -19.4130 O.co2     1 ANP1001     0.0000 
      5 PB          4.5440   -6.1890  -20.5290 P.3       1 ANP1001     0.0000 
      6 O1B         3.3050   -6.9090  -20.4970 O.co2     1 ANP1001     0.0000 
      7 O2B         5.0090   -5.7830  -19.1230 O.co2     1 ANP1001     0.0000 
      8 N3B         5.6810   -6.8430  -21.4540 N.3       1 ANP1001     0.0000 
      9 PA          2.8570   -3.9910  -21.4880 P.3       1 ANP1001     0.0000 
     10 O1A         1.9840   -4.7370  -22.4210 O.co2     1 ANP1001     0.0000 
     11 O2A         2.3300   -3.6120  -20.1590 O.co2     1 ANP1001     0.0000 
     12 O3A         4.2210   -4.8130  -21.2880 O.3       1 ANP1001     0.0000 
     13 O5'         3.3880   -2.6680  -22.2280 O.3       1 ANP1001     0.0000 
     14 C5'         3.0270   -2.4290  -23.5850 C.3       1 ANP1001     0.0000 
     15 C4'         4.2500   -2.5140  -24.5030 C.3       1 ANP1001     0.0000 
     16 O4'         5.2450   -1.5600  -24.0850 O.3       1 ANP1001     0.0000 
     17 C3'         4.9330   -3.8410  -24.3330 C.3       1 ANP1001     0.0000 
     18 O3'         4.2510   -4.8440  -25.1030 O.3       1 ANP1001     0.0000 
     19 C2'         6.2930   -3.5570  -24.9150 C.3       1 ANP1001     0.0000 
     20 O2'         6.2220   -3.4960  -26.3480 O.3       1 ANP1001     0.0000 
     21 C1'         6.5470   -2.1520  -24.3690 C.3       1 ANP1001     0.0000 
     22 N9          7.3290   -2.2220  -23.1170 N.pl3     1 ANP1001     0.0000 
     23 C8          7.0380   -2.9850  -22.0280 C.2       1 ANP1001     0.0000 
     24 N7          7.9000   -2.8590  -21.0250 N.2       1 ANP1001     0.0000 
     25 C5          8.7970   -1.9200  -21.5160 C.ar      1 ANP1001     0.0000 
     26 C6          9.9430   -1.3300  -20.9430 C.ar      1 ANP1001     0.0000 
     27 N6         10.3760   -1.6340  -19.7220 N.pl3     1 ANP1001     0.0000 
     28 N1         10.6220   -0.4270  -21.6680 N.ar      1 ANP1001     0.0000 
     29 C2         10.2010   -0.1170  -22.8870 C.ar      1 ANP1001     0.0000 
     30 N3          9.1320   -0.6150  -23.5000 N.ar      1 ANP1001     0.0000 
     31 C4          8.4460   -1.5160  -22.7910 C.ar      1 ANP1001     0.0000 
@<TRIPOS>BOND
     1    1    2 ar   
     2    1    3 ar   
     3    1    4 ar   
     4    1    8 1    
     5    5    6 ar   
     6    5    7 ar   
     7    5    8 1    
     8    5   12 1    
     9    9   10 ar   
    10    9   11 ar   
    11    9   12 1    
    12    9   13 1    
    13   13   14 1    
    14   14   15 1    
    15   15   16 1    
    16   15   17 1    
    17   16   21 1    
    18   17   18 1    
    19   17   19 1    
    20   19   20 1    
    21   19   21 1    
    22   21   22 1    
    23   22   23 1    
    24   22   31 1    
    25   23   24 2    
    26   24   25 1    
    27   25   26 ar   
    28   25   31 ar   
    29   26   27 1    
    30   26   28 ar   
    31   28   29 ar   
    32   29   30 ar   
    33   30   31 ar   
@<TRIPOS>SUBSTRUCTURE
     1 ANP1001     1 GROUP   
@<TRIPOS>SET
ATOM$ORANGE STATIC     ATOMS   COLORGROUP SYSTEM 
20 14 14 15 15 17 17 19 19 21 21 23 23 25 25 26 26 29 \
29 31 31 

