#    Name: 5xik_1_ANP_CAVITY_N1_12
#    Modification time : Fri May 22 19:16:02 2020

@<TRIPOS>MOLECULE
5xik_1_ANP_CAVITY_N1_12
   71     0     6     0     0
SMALL
NO_CHARGES


@<TRIPOS>ATOM
      1 OG         -5.7200    1.1000   26.4900 O.3       1 SER1        0.0000 
      2 OG         -4.4100    1.3200   25.8100 O.3       1 SER1        0.0000 
      3 N          -2.2000    0.8500   23.3300 N.am      2 ALA2        0.0000 
      4 N          -4.2500    3.8800   23.6400 N.am      2 ALA2        0.0000 
      5 N          -2.0900    5.9300   25.1700 N.am      2 ALA2        0.0000 
      6 N          -0.1900    4.9800   25.2200 N.am      2 ALA2        0.0000 
      7 N          -1.6700    6.8500   26.2800 N.am      2 ALA2        0.0000 
      8 OD1        -4.9900    2.4900   25.0600 O.co2     3 ASP3        0.0000 
      9 OD1        -3.6700    2.7100   24.3800 O.co2     3 ASP3        0.0000 
     10 OD1        -5.3000    2.0200   27.6000 O.co2     3 ASP3        0.0000 
     11 OD1        -4.5700    3.4100   26.1700 O.co2     3 ASP3        0.0000 
     12 OD1        -3.9800    2.2400   26.9100 O.co2     3 ASP3        0.0000 
     13 OD1        -3.8300    4.7900   24.7400 O.co2     3 ASP3        0.0000 
     14 OD1        -3.2500    3.6300   25.4900 O.co2     3 ASP3        0.0000 
     15 OD1        -4.8800    2.9400   28.7100 O.co2     3 ASP3        0.0000 
     16 OD1        -4.1400    4.3200   27.2800 O.co2     3 ASP3        0.0000 
     17 OD1        -3.5600    3.1600   28.0200 O.co2     3 ASP3        0.0000 
     18 OD1        -2.9800    1.9900   28.7700 O.co2     3 ASP3        0.0000 
     19 OD1        -3.4100    5.7100   25.8500 O.co2     3 ASP3        0.0000 
     20 OD1        -2.8200    4.5400   26.6000 O.co2     3 ASP3        0.0000 
     21 OD1        -2.2400    3.3800   27.3400 O.co2     3 ASP3        0.0000 
     22 OD1        -1.6600    2.2100   28.0800 O.co2     3 ASP3        0.0000 
     23 OD1        -0.3500    2.4300   27.4000 O.co2     3 ASP3        0.0000 
     24 OD1         0.9700    2.6500   26.7100 O.co2     3 ASP3        0.0000 
     25 OD1        -3.7200    5.2400   28.3900 O.co2     3 ASP3        0.0000 
     26 OD1        -2.9800    6.6300   26.9600 O.co2     3 ASP3        0.0000 
     27 OD1        -2.4000    5.4600   27.7000 O.co2     3 ASP3        0.0000 
     28 OD1        -1.8200    4.2900   28.4500 O.co2     3 ASP3        0.0000 
     29 OD1        -0.5000    4.5100   27.7600 O.co2     3 ASP3        0.0000 
     30 OD1         1.3900    3.5700   27.8200 O.co2     3 ASP3        0.0000 
     31 OD1        -2.5600    7.5400   28.0700 O.co2     3 ASP3        0.0000 
     32 OD1        -1.9800    6.3800   28.8100 O.co2     3 ASP3        0.0000 
     33 OD1        -0.6600    6.6000   28.1300 O.co2     3 ASP3        0.0000 
     34 OD1        -0.0800    5.4300   28.8700 O.co2     3 ASP3        0.0000 
     35 CZ          0.1200    0.8200   24.4900 C.ar      4 PHE5        0.0000 
     36 CZ         -4.7200    0.8500   28.3400 C.ar      4 PHE5        0.0000 
     37 CZ         -3.4000    1.0700   27.6600 C.ar      4 PHE5        0.0000 
     38 CZ         -2.0900    1.2900   26.9700 C.ar      4 PHE5        0.0000 
     39 CZ         -1.5000    0.1300   27.7100 C.ar      4 PHE5        0.0000 
     40 CZ         -0.7700    1.5100   26.2900 C.ar      4 PHE5        0.0000 
     41 CZ         -0.1900    0.3500   27.0300 C.ar      4 PHE5        0.0000 
     42 CZ          0.5500    1.7300   25.6000 C.ar      4 PHE5        0.0000 
     43 CZ          3.8700    6.0900   26.8100 C.ar      4 PHE5        0.0000 
     44 CA         -1.6200   -0.3200   24.0700 C.3       5 GLY6        0.0000 
     45 CA         -3.0900    1.5400   25.1200 C.3       5 GLY6        0.0000 
     46 CA         -2.5100    0.3800   25.8600 C.3       5 GLY6        0.0000 
     47 CA         -2.9400    4.1000   22.9500 C.3       5 GLY6        0.0000 
     48 CA         -1.1900    0.6000   25.1800 C.3       5 GLY6        0.0000 
     49 CA         -1.0400    3.1500   23.0100 C.3       5 GLY6        0.0000 
     50 CA         -0.4600    1.9800   23.7500 C.3       5 GLY6        0.0000 
     51 CA         -2.5100    5.0100   24.0600 C.3       5 GLY6        0.0000 
     52 CA         -0.6200    4.0700   24.1200 C.3       5 GLY6        0.0000 
     53 CA         -0.0400    2.9000   24.8600 C.3       5 GLY6        0.0000 
     54 CA          0.7000    4.2900   23.4300 C.3       5 GLY6        0.0000 
     55 CA          1.2800    3.1200   24.1700 C.3       5 GLY6        0.0000 
     56 CA          1.1200    5.2000   24.5400 C.3       5 GLY6        0.0000 
     57 CA          1.7000    4.0400   25.2800 C.3       5 GLY6        0.0000 
     58 DU         -2.3600    2.9300   23.6900 H         6 CUB7        0.0000 
     59 DU         -1.7800    1.7600   24.4400 H         6 CUB7        0.0000 
     60 DU         -2.6700    2.4600   26.2300 H         6 CUB7        0.0000 
     61 DU         -1.9300    3.8500   24.8000 H         6 CUB7        0.0000 
     62 DU         -1.3500    2.6800   25.5400 H         6 CUB7        0.0000 
     63 DU         -1.5100    4.7600   25.9100 H         6 CUB7        0.0000 
     64 DU         -0.9300    3.6000   26.6500 H         6 CUB7        0.0000 
     65 DU          0.3900    3.8200   25.9700 H         6 CUB7        0.0000 
     66 DU         -1.0800    5.6800   27.0200 H         6 CUB7        0.0000 
     67 DU          0.2300    5.9000   26.3300 H         6 CUB7        0.0000 
     68 DU          0.8100    4.7300   27.0800 H         6 CUB7        0.0000 
     69 DU          1.5500    6.1200   25.6500 H         6 CUB7        0.0000 
     70 DU          2.1300    4.9500   26.3900 H         6 CUB7        0.0000 
     71 DU          2.5500    5.8700   27.5000 H         6 CUB7        0.0000 
@<TRIPOS>BOND
@<TRIPOS>SUBSTRUCTURE
     1 SER1        1 GROUP   
     2 ALA2        3 GROUP   
     3 ASP3        8 GROUP   
     4 PHE5       35 GROUP   
     5 GLY6       44 GROUP   
     6 CUB7       58 GROUP   
@<TRIPOS>SET

