#    Name: 5xik_2_ANP
#    Modification time : Fri May 22 19:16:08 2020

@<TRIPOS>MOLECULE
5xik_2_ANP
   31    33     1     0     1
SMALL
NO_CHARGES


@<TRIPOS>ATOM
      1 PG         -1.0780  -31.2250   40.8720 P.3       1 ANP1001     0.0000 
      2 O1G        -0.0170  -32.0670   40.3280 O.co2     1 ANP1001     0.0000 
      3 O2G        -1.8100  -31.9210   42.0590 O.co2     1 ANP1001     0.0000 
      4 O3G        -0.5120  -29.8930   41.4530 O.co2     1 ANP1001     0.0000 
      5 PB         -3.4060  -29.9920   40.1270 P.3       1 ANP1001     0.0000 
      6 O1B        -4.5900  -30.7370   40.4340 O.co2     1 ANP1001     0.0000 
      7 O2B        -3.0750  -28.9840   41.2350 O.co2     1 ANP1001     0.0000 
      8 N3B        -2.1470  -30.9040   39.6570 N.3       1 ANP1001     0.0000 
      9 PA         -5.0890  -28.9940   37.9420 P.3       1 ANP1001     0.0000 
     10 O1A        -5.5130  -30.3470   37.5210 O.co2     1 ANP1001     0.0000 
     11 O2A        -6.0500  -28.1370   38.6700 O.co2     1 ANP1001     0.0000 
     12 O3A        -3.7490  -29.1240   38.8180 O.3       1 ANP1001     0.0000 
     13 O5'        -4.5700  -28.1940   36.6450 O.3       1 ANP1001     0.0000 
     14 C5'        -5.0180  -28.5770   35.3420 C.3       1 ANP1001     0.0000 
     15 C4'        -3.8940  -29.3220   34.6140 C.3       1 ANP1001     0.0000 
     16 O4'        -2.8280  -28.4000   34.2930 O.3       1 ANP1001     0.0000 
     17 C3'        -3.2560  -30.3070   35.5540 C.3       1 ANP1001     0.0000 
     18 O3'        -4.0140  -31.5290   35.5670 O.3       1 ANP1001     0.0000 
     19 C2'        -1.9170  -30.5280   34.9050 C.3       1 ANP1001     0.0000 
     20 O2'        -2.0650  -31.3410   33.7290 O.3       1 ANP1001     0.0000 
     21 C1'        -1.5660  -29.1070   34.4880 C.3       1 ANP1001     0.0000 
     22 N9         -0.7840  -28.4350   35.5460 N.pl3     1 ANP1001     0.0000 
     23 C8         -1.0510  -28.4480   36.8900 C.2       1 ANP1001     0.0000 
     24 N7         -0.1870  -27.7300   37.6060 N.2       1 ANP1001     0.0000 
     25 C5          0.6750  -27.2160   36.6530 C.ar      1 ANP1001     0.0000 
     26 C6          1.8010  -26.3770   36.7370 C.ar      1 ANP1001     0.0000 
     27 N6          2.2480  -25.9130   37.9010 N.pl3     1 ANP1001     0.0000 
     28 N1          2.4560  -26.0420   35.6140 N.ar      1 ANP1001     0.0000 
     29 C2          2.0050  -26.5130   34.4600 C.ar      1 ANP1001     0.0000 
     30 N3          0.9520  -27.3090   34.2680 N.ar      1 ANP1001     0.0000 
     31 C4          0.3060  -27.6410   35.3860 C.ar      1 ANP1001     0.0000 
@<TRIPOS>BOND
     1    1    2 ar   
     2    1    3 ar   
     3    1    4 ar   
     4    1    8 1    
     5    5    6 ar   
     6    5    7 ar   
     7    5    8 1    
     8    5   12 1    
     9    9   10 ar   
    10    9   11 ar   
    11    9   12 1    
    12    9   13 1    
    13   13   14 1    
    14   14   15 1    
    15   15   16 1    
    16   15   17 1    
    17   16   21 1    
    18   17   18 1    
    19   17   19 1    
    20   19   20 1    
    21   19   21 1    
    22   21   22 1    
    23   22   23 1    
    24   22   31 1    
    25   23   24 2    
    26   24   25 1    
    27   25   26 ar   
    28   25   31 ar   
    29   26   27 1    
    30   26   28 ar   
    31   28   29 ar   
    32   29   30 ar   
    33   30   31 ar   
@<TRIPOS>SUBSTRUCTURE
     1 ANP1001     1 GROUP   
@<TRIPOS>SET
ATOM$ORANGE STATIC     ATOMS   COLORGROUP SYSTEM 
20 14 14 15 15 17 17 19 19 21 21 23 23 25 25 26 26 29 \
29 31 31 

