#    Name: 5xik_3_ANP
#    Modification time : Fri May 22 19:16:20 2020

@<TRIPOS>MOLECULE
5xik_3_ANP
   31    33     1     0     1
SMALL
NO_CHARGES


@<TRIPOS>ATOM
      1 PG          6.7640   29.9520   -6.2030 P.3       1 ANP1001     0.0000 
      2 O1G         5.5100   30.6620   -6.4340 O.co2     1 ANP1001     0.0000 
      3 O2G         7.6200   30.6470   -5.1000 O.co2     1 ANP1001     0.0000 
      4 O3G         6.5150   28.5020   -5.6880 O.co2     1 ANP1001     0.0000 
      5 PB          8.7630   28.8190   -7.7170 P.3       1 ANP1001     0.0000 
      6 O1B        10.0950   29.3290   -7.5630 O.co2     1 ANP1001     0.0000 
      7 O2B         8.5340   27.5270   -6.9180 O.co2     1 ANP1001     0.0000 
      8 N3B         7.5880   29.9140   -7.6100 N.3       1 ANP1001     0.0000 
      9 PA          9.6400   28.1420  -10.4540 P.3       1 ANP1001     0.0000 
     10 O1A        10.2200   29.4340  -10.8830 O.co2     1 ANP1001     0.0000 
     11 O2A        10.5490   27.0360  -10.0810 O.co2     1 ANP1001     0.0000 
     12 O3A         8.6340   28.4080   -9.2480 O.3       1 ANP1001     0.0000 
     13 O5'         8.6430   27.6230  -11.5970 O.3       1 ANP1001     0.0000 
     14 C5'         8.4880   28.3940  -12.7780 C.3       1 ANP1001     0.0000 
     15 C4'         7.0170   28.7360  -13.0160 C.3       1 ANP1001     0.0000 
     16 O4'         6.2260   27.5370  -12.9310 O.3       1 ANP1001     0.0000 
     17 C3'         6.5050   29.5830  -11.8860 C.3       1 ANP1001     0.0000 
     18 O3'         6.8760   30.9550  -12.0960 O.3       1 ANP1001     0.0000 
     19 C2'         5.0170   29.4050  -12.0250 C.3       1 ANP1001     0.0000 
     20 O2'         4.5220   30.1680  -13.1380 O.3       1 ANP1001     0.0000 
     21 C1'         4.9380   27.9180  -12.3680 C.3       1 ANP1001     0.0000 
     22 N9          4.6850   27.1190  -11.1510 N.pl3     1 ANP1001     0.0000 
     23 C8          5.3880   27.1580   -9.9750 C.2       1 ANP1001     0.0000 
     24 N7          4.9320   26.3220   -9.0480 N.2       1 ANP1001     0.0000 
     25 C5          3.8640   25.7070   -9.6890 C.ar      1 ANP1001     0.0000 
     26 C6          2.9470   24.7250   -9.2700 C.ar      1 ANP1001     0.0000 
     27 N6          2.9890   24.1790   -8.0580 N.pl3     1 ANP1001     0.0000 
     28 N1          1.9930   24.3060  -10.1140 N.ar      1 ANP1001     0.0000 
     29 C2          1.9450   24.8500  -11.3250 C.ar      1 ANP1001     0.0000 
     30 N3          2.7550   25.7710  -11.8210 N.ar      1 ANP1001     0.0000 
     31 C4          3.7090   26.1880  -10.9770 C.ar      1 ANP1001     0.0000 
@<TRIPOS>BOND
     1    1    2 ar   
     2    1    3 ar   
     3    1    4 ar   
     4    1    8 1    
     5    5    6 ar   
     6    5    7 ar   
     7    5    8 1    
     8    5   12 1    
     9    9   10 ar   
    10    9   11 ar   
    11    9   12 1    
    12    9   13 1    
    13   13   14 1    
    14   14   15 1    
    15   15   16 1    
    16   15   17 1    
    17   16   21 1    
    18   17   18 1    
    19   17   19 1    
    20   19   20 1    
    21   19   21 1    
    22   21   22 1    
    23   22   23 1    
    24   22   31 1    
    25   23   24 2    
    26   24   25 1    
    27   25   26 ar   
    28   25   31 ar   
    29   26   27 1    
    30   26   28 ar   
    31   28   29 ar   
    32   29   30 ar   
    33   30   31 ar   
@<TRIPOS>SUBSTRUCTURE
     1 ANP1001     1 GROUP   
@<TRIPOS>SET
ATOM$ORANGE STATIC     ATOMS   COLORGROUP SYSTEM 
20 14 14 15 15 17 17 19 19 21 21 23 23 25 25 26 26 29 \
29 31 31 

