#    Name: 5xik_2_ANP_CAVITY_N1_ALL
#    Modification time : Fri May 22 19:16:09 2020

@<TRIPOS>MOLECULE
5xik_2_ANP_CAVITY_N1_ALL
   70     0     7     0     0
SMALL
NO_CHARGES


@<TRIPOS>ATOM
      1 OG         -0.2800  -27.9200   34.2100 O.3       1 SER1        0.0000 
      2 N          -5.0700  -30.4100   34.0500 N.am      2 ALA2        0.0000 
      3 N          -4.4900  -31.5800   34.7900 N.am      2 ALA2        0.0000 
      4 N          -4.3400  -29.0300   32.6200 N.am      2 ALA2        0.0000 
      5 N          -3.7600  -30.1900   33.3600 N.am      2 ALA2        0.0000 
      6 N          -3.1800  -31.3600   34.1000 N.am      2 ALA2        0.0000 
      7 N          -1.8600  -31.1400   33.4200 N.am      2 ALA2        0.0000 
      8 N          -6.1200  -32.2700   38.0100 N.am      2 ALA2        0.0000 
      9 N          -4.0700  -30.6600   35.9000 N.am      2 ALA2        0.0000 
     10 N          -5.1100  -32.5200   39.8600 N.am      2 ALA2        0.0000 
     11 N          -4.3800  -31.1300   38.4300 N.am      2 ALA2        0.0000 
     12 N          -3.0600  -30.9100   37.7500 N.am      2 ALA2        0.0000 
     13 N           2.0400  -27.9500   35.3700 N.am      2 ALA2        0.0000 
     14 OD1        -2.1700  -31.6100   35.9500 O.co2     3 ASP3        0.0000 
     15 OD1        -1.4400  -30.2200   34.5300 O.co2     3 ASP3        0.0000 
     16 OD1        -0.1200  -30.0000   33.8400 O.co2     3 ASP3        0.0000 
     17 OD1        -1.7500  -30.6900   37.0600 O.co2     3 ASP3        0.0000 
     18 OD1        -1.0100  -29.3000   35.6400 O.co2     3 ASP3        0.0000 
     19 OD1        -0.4300  -30.4700   36.3800 O.co2     3 ASP3        0.0000 
     20 OD1         0.3000  -29.0800   34.9500 O.co2     3 ASP3        0.0000 
     21 OD1        -4.5400  -29.0500   38.8000 O.co2     3 ASP3        0.0000 
     22 OD1        -3.3700  -31.3800   40.2900 O.co2     3 ASP3        0.0000 
     23 OD1        -3.8000  -27.6600   37.3700 O.co2     3 ASP3        0.0000 
     24 OD1        -3.2200  -28.8300   38.1100 O.co2     3 ASP3        0.0000 
     25 OD1        -2.6400  -29.9900   38.8600 O.co2     3 ASP3        0.0000 
     26 OD1        -2.0600  -31.1600   39.6000 O.co2     3 ASP3        0.0000 
     27 OD1        -2.4900  -27.4400   36.6900 O.co2     3 ASP3        0.0000 
     28 OD1        -1.9000  -28.6100   37.4300 O.co2     3 ASP3        0.0000 
     29 OD1        -1.3200  -29.7700   38.1700 O.co2     3 ASP3        0.0000 
     30 OD1        -0.7400  -30.9400   38.9100 O.co2     3 ASP3        0.0000 
     31 OD1        -0.0100  -29.5500   37.4900 O.co2     3 ASP3        0.0000 
     32 OD1         0.7300  -28.1700   36.0600 O.co2     3 ASP3        0.0000 
     33 OD1        -3.5300  -29.3000   40.6500 O.co2     3 ASP3        0.0000 
     34 NZ          1.1500  -27.2500   37.1700 N.4       4 LYS4        0.0000 
     35 CZ         -5.2300  -28.3300   34.4100 C.ar      5 PHE5        0.0000 
     36 CZ         -6.1200  -27.6300   36.2100 C.ar      5 PHE5        0.0000 
     37 CZ         -4.8100  -27.4100   35.5200 C.ar      5 PHE5        0.0000 
     38 CZ         -3.0700  -26.2700   35.9400 C.ar      5 PHE5        0.0000 
     39 CZ         -1.1700  -27.2200   36.0000 C.ar      5 PHE5        0.0000 
     40 CZ          0.1500  -27.0000   35.3200 C.ar      5 PHE5        0.0000 
     41 CZ          1.4600  -26.7800   34.6300 C.ar      5 PHE5        0.0000 
     42 CZ         -0.7500  -26.3000   37.1100 C.ar      5 PHE5        0.0000 
     43 CZ          0.5700  -26.0800   36.4300 C.ar      5 PHE5        0.0000 
     44 CZ          1.8900  -25.8600   35.7400 C.ar      5 PHE5        0.0000 
     45 CA         -2.4400  -29.9700   32.6800 C.3       6 GLY6        0.0000 
     46 CA         -6.7000  -31.1000   37.2700 C.3       6 GLY6        0.0000 
     47 CA         -5.9700  -29.7100   35.8400 C.3       6 GLY6        0.0000 
     48 CA         -5.3900  -30.8800   36.5800 C.3       6 GLY6        0.0000 
     49 CA         -3.9200  -28.1100   33.7300 C.3       6 GLY6        0.0000 
     50 CA         -3.3300  -29.2700   34.4700 C.3       6 GLY6        0.0000 
     51 CA         -2.0200  -29.0600   33.7800 C.3       6 GLY6        0.0000 
     52 CA         -3.4900  -27.1900   34.8400 C.3       6 GLY6        0.0000 
     53 CA         -2.9100  -28.3600   35.5800 C.3       6 GLY6        0.0000 
     54 CA         -1.5900  -28.1400   34.8900 C.3       6 GLY6        0.0000 
     55 CA          2.4700  -27.0300   36.4800 C.3       6 GLY6        0.0000 
     56 DU         -4.6500  -29.4900   35.1600 H         7 CUB7        0.0000 
     57 DU         -2.7500  -30.4400   35.2100 H         7 CUB7        0.0000 
     58 DU         -7.0100  -31.5700   39.8000 H         7 CUB7        0.0000 
     59 DU         -6.2800  -30.1800   38.3800 H         7 CUB7        0.0000 
     60 DU         -5.7000  -31.3500   39.1200 H         7 CUB7        0.0000 
     61 DU         -5.5400  -28.8000   36.9500 H         7 CUB7        0.0000 
     62 DU         -4.9600  -29.9600   37.6900 H         7 CUB7        0.0000 
     63 DU         -4.2300  -28.5800   36.2600 H         7 CUB7        0.0000 
     64 DU         -3.6400  -29.7400   37.0100 H         7 CUB7        0.0000 
     65 DU         -2.3300  -29.5200   36.3200 H         7 CUB7        0.0000 
     66 DU         -6.5900  -30.6500   40.9100 H         7 CUB7        0.0000 
     67 DU         -5.8500  -29.2700   39.4900 H         7 CUB7        0.0000 
     68 DU         -5.2700  -30.4300   40.2300 H         7 CUB7        0.0000 
     69 DU         -3.9600  -30.2100   39.5400 H         7 CUB7        0.0000 
     70 DU         -0.5900  -28.3900   36.7400 H         7 CUB7        0.0000 
@<TRIPOS>BOND
@<TRIPOS>SUBSTRUCTURE
     1 SER1        1 GROUP   
     2 ALA2        2 GROUP   
     3 ASP3       14 GROUP   
     4 LYS4       34 GROUP   
     5 PHE5       35 GROUP   
     6 GLY6       45 GROUP   
     7 CUB7       56 GROUP   
@<TRIPOS>SET

