#    Name: 5xik_4_ANP_CAVITY_N1_8
#    Modification time : Fri May 22 19:16:31 2020

@<TRIPOS>MOLECULE
5xik_4_ANP_CAVITY_N1_8
   90     0     7     0     0
SMALL
NO_CHARGES


@<TRIPOS>ATOM
      1 OG          0.1200   -6.8700  -23.9400 O.3       1 SER1        0.0000 
      2 OG          7.3900   -1.8500  -24.7900 O.3       1 SER1        0.0000 
      3 OG          7.8100   -0.9300  -23.6800 O.3       1 SER1        0.0000 
      4 OG          9.5500    0.2000  -23.2600 O.3       1 SER1        0.0000 
      5 O          -0.6200   -8.2500  -22.5200 O.2       2 ALA2        0.0000 
      6 O          -0.0400   -9.4200  -21.7700 O.2       2 ALA2        0.0000 
      7 N           0.5500  -10.5900  -21.0300 N.am      2 ALA2        0.0000 
      8 N           1.2800   -9.2000  -22.4600 N.am      2 ALA2        0.0000 
      9 O           1.4300   -6.6500  -24.6300 O.2       2 ALA2        0.0000 
     10 N           2.0100   -7.8100  -23.8900 N.am      2 ALA2        0.0000 
     11 N           2.6000   -8.9800  -23.1500 N.am      2 ALA2        0.0000 
     12 N           0.9700   -9.6700  -19.9200 N.am      2 ALA2        0.0000 
     13 N           2.4400   -6.9000  -22.7800 N.am      2 ALA2        0.0000 
     14 N           3.0200   -8.0600  -22.0400 N.am      2 ALA2        0.0000 
     15 N           3.1700   -5.5100  -24.2100 N.am      2 ALA2        0.0000 
     16 N           3.7500   -6.6800  -23.4600 N.am      2 ALA2        0.0000 
     17 N           4.3400   -7.8400  -22.7200 N.am      2 ALA2        0.0000 
     18 N           4.4900   -5.2900  -24.8900 N.am      2 ALA2        0.0000 
     19 N           5.2200   -3.9100  -26.3200 N.am      2 ALA2        0.0000 
     20 N           3.7500   -2.0400  -25.2700 N.am      2 ALA2        0.0000 
     21 N           5.4900   -5.5400  -23.0400 N.am      2 ALA2        0.0000 
     22 N           9.7100   -1.8800  -23.6200 N.am      2 ALA2        0.0000 
     23 N          10.1300   -0.9600  -22.5100 N.am      2 ALA2        0.0000 
     24 N          10.7200   -2.1300  -21.7700 N.am      2 ALA2        0.0000 
     25 OD1         5.8100   -5.0700  -25.5800 O.co2     3 ASP3        0.0000 
     26 OD1         5.6500   -2.9900  -25.2100 O.co2     3 ASP3        0.0000 
     27 OD1         6.2300   -4.1600  -24.4700 O.co2     3 ASP3        0.0000 
     28 OD1         6.8100   -5.3200  -23.7300 O.co2     3 ASP3        0.0000 
     29 OD1         6.9600   -2.7700  -25.9000 O.co2     3 ASP3        0.0000 
     30 OD1         2.7100   -3.9000  -21.3000 O.co2     3 ASP3        0.0000 
     31 OD1         3.2900   -5.0600  -20.5600 O.co2     3 ASP3        0.0000 
     32 OD1         3.8700   -6.2300  -19.8200 O.co2     3 ASP3        0.0000 
     33 OD1         4.0200   -3.6800  -21.9900 O.co2     3 ASP3        0.0000 
     34 OD1         4.6000   -4.8400  -21.2500 O.co2     3 ASP3        0.0000 
     35 OD1         5.1800   -6.0100  -20.5000 O.co2     3 ASP3        0.0000 
     36 OD1         6.5000   -5.7900  -21.1900 O.co2     3 ASP3        0.0000 
     37 OD1         6.6500   -3.2400  -23.3600 O.co2     3 ASP3        0.0000 
     38 OD1         7.2400   -4.4000  -22.6200 O.co2     3 ASP3        0.0000 
     39 OD1         7.8200   -5.5700  -21.8800 O.co2     3 ASP3        0.0000 
     40 OD1         7.9700   -3.0200  -24.0500 O.co2     3 ASP3        0.0000 
     41 OD1         5.7600   -2.5400  -21.5700 O.co2     3 ASP3        0.0000 
     42 OD1         6.3400   -3.7100  -20.8200 O.co2     3 ASP3        0.0000 
     43 OD1         7.6600   -3.4900  -21.5100 O.co2     3 ASP3        0.0000 
     44 OD1         8.3900   -2.1000  -22.9400 O.co2     3 ASP3        0.0000 
     45 OD1         8.9800   -3.2700  -22.1900 O.co2     3 ASP3        0.0000 
     46 OD1         6.1900   -1.6200  -20.4600 O.co2     3 ASP3        0.0000 
     47 NZ          8.0800   -2.5700  -20.4000 N.4       4 LYS4        0.0000 
     48 NZ          9.4000   -2.3500  -21.0900 N.4       4 LYS4        0.0000 
     49 CZ          0.7000   -8.0300  -23.2000 C.ar      5 PHE5        0.0000 
     50 CZ          2.8600   -1.3400  -23.4700 C.ar      5 PHE5        0.0000 
     51 CZ          3.4400   -2.5100  -22.7300 C.ar      5 PHE5        0.0000 
     52 CZ          3.8600   -1.5900  -21.6200 C.ar      5 PHE5        0.0000 
     53 CZ          7.5000   -1.4000  -21.1400 C.ar      5 PHE5        0.0000 
     54 CZ          8.2400   -0.0200  -22.5700 C.ar      5 PHE5        0.0000 
     55 CZ          8.8200   -1.1800  -21.8300 C.ar      5 PHE5        0.0000 
     56 CZ         10.5600   -0.0500  -21.4100 C.ar      5 PHE5        0.0000 
     57 CA          0.2700   -8.9500  -24.3100 C.3       6 GLY6        0.0000 
     58 CA         -0.1900   -7.3400  -21.4100 C.3       6 GLY6        0.0000 
     59 CA          0.3900   -8.5000  -20.6700 C.3       6 GLY6        0.0000 
     60 CA          1.8600   -5.7300  -23.5200 C.3       6 GLY6        0.0000 
     61 CA          2.5900   -4.3500  -24.9500 C.3       6 GLY6        0.0000 
     62 CA          3.3300   -2.9600  -26.3800 C.3       6 GLY6        0.0000 
     63 CA          3.9100   -4.1300  -25.6300 C.3       6 GLY6        0.0000 
     64 CA          2.4300   -2.2600  -24.5800 C.3       6 GLY6        0.0000 
     65 CA          3.0200   -3.4300  -23.8400 C.3       6 GLY6        0.0000 
     66 CA          5.0700   -1.8200  -25.9500 C.3       6 GLY6        0.0000 
     67 CA          4.1700   -1.1200  -24.1600 C.3       6 GLY6        0.0000 
     68 CA          5.4900   -0.9000  -24.8500 C.3       6 GLY6        0.0000 
     69 CA          6.0700   -2.0700  -24.1000 C.3       6 GLY6        0.0000 
     70 CA          4.6000   -0.2100  -23.0500 C.3       6 GLY6        0.0000 
     71 CA          5.1800   -1.3700  -22.3100 C.3       6 GLY6        0.0000 
     72 CA          6.5000   -1.1500  -22.9900 C.3       6 GLY6        0.0000 
     73 DU          1.1200   -7.1200  -22.0900 H         7 CUB7        0.0000 
     74 DU          1.7000   -8.2800  -21.3500 H         7 CUB7        0.0000 
     75 DU          1.3900   -8.7500  -18.8200 H         7 CUB7        0.0000 
     76 DU          1.5500   -6.2000  -20.9900 H         7 CUB7        0.0000 
     77 DU          2.1300   -7.3700  -20.2400 H         7 CUB7        0.0000 
     78 DU          2.2800   -4.8100  -22.4100 H         7 CUB7        0.0000 
     79 DU          2.8600   -5.9800  -21.6700 H         7 CUB7        0.0000 
     80 DU          3.4400   -7.1500  -20.9300 H         7 CUB7        0.0000 
     81 DU          3.6000   -4.5900  -23.1000 H         7 CUB7        0.0000 
     82 DU          4.1800   -5.7600  -22.3600 H         7 CUB7        0.0000 
     83 DU          4.3300   -3.2100  -24.5300 H         7 CUB7        0.0000 
     84 DU          4.9100   -4.3700  -23.7800 H         7 CUB7        0.0000 
     85 DU          6.0800   -6.7100  -22.3000 H         7 CUB7        0.0000 
     86 DU          2.5500   -6.4500  -19.1300 H         7 CUB7        0.0000 
     87 DU          4.7600   -2.2900  -23.4200 H         7 CUB7        0.0000 
     88 DU          5.3400   -3.4600  -22.6800 H         7 CUB7        0.0000 
     89 DU          5.9200   -4.6200  -21.9300 H         7 CUB7        0.0000 
     90 DU          7.0800   -2.3200  -22.2500 H         7 CUB7        0.0000 
@<TRIPOS>BOND
@<TRIPOS>SUBSTRUCTURE
     1 SER1        1 GROUP   
     2 ALA2        5 GROUP   
     3 ASP3       25 GROUP   
     4 LYS4       47 GROUP   
     5 PHE5       49 GROUP   
     6 GLY6       57 GROUP   
     7 CUB7       73 GROUP   
@<TRIPOS>SET

