#    Name: 5xik_3_ANP_CAVITY_N1_6
#    Modification time : Fri May 22 19:16:22 2020

@<TRIPOS>MOLECULE
5xik_3_ANP_CAVITY_N1_6
   83     0     6     0     0
SMALL
NO_CHARGES


@<TRIPOS>ATOM
      1 OG         10.6300   31.6200  -11.1000 O.3       1 SER1        0.0000 
      2 OG         11.2200   30.4600  -10.3600 O.3       1 SER1        0.0000 
      3 OG         12.5300   30.6800  -11.0400 O.3       1 SER1        0.0000 
      4 N           7.6200   27.7400  -14.8500 N.am      2 ALA2        0.0000 
      5 N           4.8300   29.3800  -13.1100 N.am      2 ALA2        0.0000 
      6 N           7.4600   29.8200  -14.4800 N.am      2 ALA2        0.0000 
      7 N           8.0500   28.6500  -13.7400 N.am      2 ALA2        0.0000 
      8 N           6.5700   30.5200  -12.6900 N.am      2 ALA2        0.0000 
      9 N           5.6800   31.2100  -10.9000 N.am      2 ALA2        0.0000 
     10 N           6.2600   30.0500  -10.1500 N.am      2 ALA2        0.0000 
     11 N           7.5800   30.2700  -10.8400 N.am      2 ALA2        0.0000 
     12 N           8.8900   30.4900  -11.5200 N.am      2 ALA2        0.0000 
     13 N           6.6900   30.9600   -9.0400 N.am      2 ALA2        0.0000 
     14 N           8.5800   30.0200   -8.9900 N.am      2 ALA2        0.0000 
     15 N           9.3200   31.4000  -10.4200 N.am      2 ALA2        0.0000 
     16 N           9.9000   30.2400   -9.6700 N.am      2 ALA2        0.0000 
     17 N           8.4300   32.1000   -8.6200 N.am      2 ALA2        0.0000 
     18 N           9.7400   32.3200   -9.3100 N.am      2 ALA2        0.0000 
     19 O          10.4800   33.7100  -10.7300 O.2       2 ALA2        0.0000 
     20 N          11.0600   32.5400   -9.9900 N.am      2 ALA2        0.0000 
     21 N          10.1700   33.2400   -8.2000 N.am      2 ALA2        0.0000 
     22 N          11.4800   33.4600   -8.8800 N.am      2 ALA2        0.0000 
     23 N          12.0600   32.2900   -8.1400 N.am      2 ALA2        0.0000 
     24 OD1         3.3600   26.6100  -10.2600 O.co2     3 ASP3        0.0000 
     25 OD1         4.1000   27.9900  -11.6900 O.co2     3 ASP3        0.0000 
     26 OD1         6.5800   25.8800  -10.8900 O.co2     3 ASP3        0.0000 
     27 OD1         7.8900   26.1000  -11.5700 O.co2     3 ASP3        0.0000 
     28 OD1         3.7900   27.5200   -9.1500 O.co2     3 ASP3        0.0000 
     29 OD1         4.3700   26.3600   -8.4100 O.co2     3 ASP3        0.0000 
     30 OD1         4.5200   28.9100  -10.5800 O.co2     3 ASP3        0.0000 
     31 OD1         5.1000   27.7400   -9.8300 O.co2     3 ASP3        0.0000 
     32 OD1         5.6900   26.5800   -9.0900 O.co2     3 ASP3        0.0000 
     33 OD1         5.2600   30.3000  -12.0000 O.co2     3 ASP3        0.0000 
     34 OD1         5.8400   29.1300  -11.2600 O.co2     3 ASP3        0.0000 
     35 OD1         7.0000   26.8000   -9.7800 O.co2     3 ASP3        0.0000 
     36 OD1         8.3200   27.0200  -10.4600 O.co2     3 ASP3        0.0000 
     37 OD1         9.6300   27.2400  -11.1500 O.co2     3 ASP3        0.0000 
     38 OD1         4.2100   28.4400   -8.0400 O.co2     3 ASP3        0.0000 
     39 OD1         4.9500   29.8300   -9.4700 O.co2     3 ASP3        0.0000 
     40 OD1         5.5300   28.6600   -8.7300 O.co2     3 ASP3        0.0000 
     41 OD1         7.4300   27.7100   -8.6700 O.co2     3 ASP3        0.0000 
     42 OD1         8.7400   27.9300   -9.3500 O.co2     3 ASP3        0.0000 
     43 OD1        10.0600   28.1500  -10.0400 O.co2     3 ASP3        0.0000 
     44 OD1         4.7900   31.9100   -9.1000 O.co2     3 ASP3        0.0000 
     45 OD1         5.3700   30.7400   -8.3600 O.co2     3 ASP3        0.0000 
     46 OD1         5.9500   29.5800   -7.6200 O.co2     3 ASP3        0.0000 
     47 OD1         7.2700   29.8000   -8.3000 O.co2     3 ASP3        0.0000 
     48 OD1         7.8500   28.6300   -7.5600 O.co2     3 ASP3        0.0000 
     49 OD1         9.1700   28.8500   -8.2500 O.co2     3 ASP3        0.0000 
     50 OD1         7.6900   30.7200   -7.1900 O.co2     3 ASP3        0.0000 
     51 OD1         8.2700   29.5500   -6.4500 O.co2     3 ASP3        0.0000 
     52 OD1         9.5900   29.7700   -7.1400 O.co2     3 ASP3        0.0000 
     53 OD1        10.1700   28.6000   -6.3900 O.co2     3 ASP3        0.0000 
     54 CZ          8.2000   26.5700  -14.1100 C.ar      4 PHE5        0.0000 
     55 CZ          3.9400   25.4400   -9.5200 C.ar      4 PHE5        0.0000 
     56 CZ          5.2600   25.6600  -10.2000 C.ar      4 PHE5        0.0000 
     57 CZ          8.6300   27.4900  -13.0000 C.ar      4 PHE5        0.0000 
     58 CZ         12.3800   32.7600  -10.6800 C.ar      4 PHE5        0.0000 
     59 CA          6.3100   27.5200  -14.1600 C.3       5 GLY6        0.0000 
     60 CA          6.8900   26.3500  -13.4200 C.3       5 GLY6        0.0000 
     61 CA          5.4100   28.2100  -12.3700 C.3       5 GLY6        0.0000 
     62 CA          6.0000   27.0500  -11.6300 C.3       5 GLY6        0.0000 
     63 CA          6.1500   29.6000  -13.8000 C.3       5 GLY6        0.0000 
     64 CA          6.7300   28.4300  -13.0600 C.3       5 GLY6        0.0000 
     65 CA          7.3100   27.2700  -12.3100 C.3       5 GLY6        0.0000 
     66 CA          7.8900   30.7400  -13.3800 C.3       5 GLY6        0.0000 
     67 CA          8.4700   29.5700  -12.6300 C.3       5 GLY6        0.0000 
     68 CA          9.0500   28.4000  -11.8900 C.3       5 GLY6        0.0000 
     69 CA         12.9600   31.5900   -9.9400 C.3       5 GLY6        0.0000 
     70 CA         12.6500   31.1300   -7.4000 C.3       5 GLY6        0.0000 
     71 DU          4.6800   26.8300  -10.9400 H         6 CUB7        0.0000 
     72 DU          6.4200   27.9600  -10.5200 H         6 CUB7        0.0000 
     73 DU          7.1500   29.3500  -11.9500 H         6 CUB7        0.0000 
     74 DU          7.7400   28.1800  -11.2100 H         6 CUB7        0.0000 
     75 DU          6.8400   28.8800   -9.4100 H         6 CUB7        0.0000 
     76 DU          8.1600   29.1000  -10.1000 H         6 CUB7        0.0000 
     77 DU          9.4800   29.3200  -10.7800 H         6 CUB7        0.0000 
     78 DU         10.4800   29.0700   -8.9300 H         6 CUB7        0.0000 
     79 DU         11.8000   29.2900   -9.6200 H         6 CUB7        0.0000 
     80 DU         10.3200   31.1500   -8.5600 H         6 CUB7        0.0000 
     81 DU         10.9100   29.9900   -7.8200 H         6 CUB7        0.0000 
     82 DU         11.6400   31.3700   -9.2500 H         6 CUB7        0.0000 
     83 DU         12.2200   30.2100   -8.5100 H         6 CUB7        0.0000 
@<TRIPOS>BOND
@<TRIPOS>SUBSTRUCTURE
     1 SER1        1 GROUP   
     2 ALA2        4 GROUP   
     3 ASP3       24 GROUP   
     4 PHE5       54 GROUP   
     5 GLY6       59 GROUP   
     6 CUB7       71 GROUP   
@<TRIPOS>SET

