#    Name: 5xik_1_ANP
#    Modification time : Fri May 22 19:16:01 2020

@<TRIPOS>MOLECULE
5xik_1_ANP
   31    33     1     0     1
SMALL
NO_CHARGES


@<TRIPOS>ATOM
      1 PG         -1.8620    7.1230   28.9880 P.3       1 ANP1001     0.0000 
      2 O1G        -3.1560    7.7380   28.7110 O.co2     1 ANP1001     0.0000 
      3 O2G        -0.7550    8.1960   29.2220 O.co2     1 ANP1001     0.0000 
      4 O3G        -1.8990    6.2690   30.2920 O.co2     1 ANP1001     0.0000 
      5 PB         -0.0270    5.5480   27.9560 P.3       1 ANP1001     0.0000 
      6 O1B         1.0300    6.2130   27.2560 O.co2     1 ANP1001     0.0000 
      7 O2B         0.3310    5.3300   29.4320 O.co2     1 ANP1001     0.0000 
      8 N3B        -1.4710    6.1880   27.7210 N.3       1 ANP1001     0.0000 
      9 PA          0.9370    3.0950   26.6840 P.3       1 ANP1001     0.0000 
     10 O1A         1.6410    3.7860   25.5810 O.co2     1 ANP1001     0.0000 
     11 O2A         1.7290    2.5070   27.7870 O.co2     1 ANP1001     0.0000 
     12 O3A        -0.1510    4.0830   27.3010 O.3       1 ANP1001     0.0000 
     13 O5'         0.0040    1.9680   26.0680 O.3       1 ANP1001     0.0000 
     14 C5'        -0.2190    1.8850   24.6540 C.3       1 ANP1001     0.0000 
     15 C4'        -1.7300    1.8830   24.3610 C.3       1 ANP1001     0.0000 
     16 O4'        -2.4150    1.0850   25.3240 O.3       1 ANP1001     0.0000 
     17 C3'        -2.2670    3.2600   24.5610 C.3       1 ANP1001     0.0000 
     18 O3'        -2.0610    4.0480   23.3710 O.3       1 ANP1001     0.0000 
     19 C2'        -3.7370    3.0270   24.8260 C.3       1 ANP1001     0.0000 
     20 O2'        -4.4840    2.9600   23.5950 O.3       1 ANP1001     0.0000 
     21 C1'        -3.7340    1.6550   25.4720 C.3       1 ANP1001     0.0000 
     22 N9         -4.0260    1.7610   26.8970 N.pl3     1 ANP1001     0.0000 
     23 C8         -3.2640    2.3970   27.8200 C.2       1 ANP1001     0.0000 
     24 N7         -3.7490    2.3250   29.0380 N.2       1 ANP1001     0.0000 
     25 C5         -4.8850    1.5540   28.8990 C.ar      1 ANP1001     0.0000 
     26 C6         -5.8340    1.1130   29.8350 C.ar      1 ANP1001     0.0000 
     27 N6         -5.7560    1.4040   31.1300 N.pl3     1 ANP1001     0.0000 
     28 N1         -6.8480    0.3650   29.3840 N.ar      1 ANP1001     0.0000 
     29 C2         -6.9310    0.0800   28.0890 C.ar      1 ANP1001     0.0000 
     30 N3         -6.0920    0.4570   27.1250 N.ar      1 ANP1001     0.0000 
     31 C4         -5.0580    1.1900   27.5750 C.ar      1 ANP1001     0.0000 
@<TRIPOS>BOND
     1    1    2 ar   
     2    1    3 ar   
     3    1    4 ar   
     4    1    8 1    
     5    5    6 ar   
     6    5    7 ar   
     7    5    8 1    
     8    5   12 1    
     9    9   10 ar   
    10    9   11 ar   
    11    9   12 1    
    12    9   13 1    
    13   13   14 1    
    14   14   15 1    
    15   15   16 1    
    16   15   17 1    
    17   16   21 1    
    18   17   18 1    
    19   17   19 1    
    20   19   20 1    
    21   19   21 1    
    22   21   22 1    
    23   22   23 1    
    24   22   31 1    
    25   23   24 2    
    26   24   25 1    
    27   25   26 ar   
    28   25   31 ar   
    29   26   27 1    
    30   26   28 ar   
    31   28   29 ar   
    32   29   30 ar   
    33   30   31 ar   
@<TRIPOS>SUBSTRUCTURE
     1 ANP1001     1 GROUP   
@<TRIPOS>SET
ATOM$ORANGE STATIC     ATOMS   COLORGROUP SYSTEM 
20 14 14 15 15 17 17 19 19 21 21 23 23 25 25 26 26 29 \
29 31 31 

