#    Name: 6ptz_1_FAD
#    Modification time : Fri May 22 19:29:53 2020

@<TRIPOS>MOLECULE
6ptz_1_FAD
   53    58     1     0     1
SMALL
NO_CHARGES


@<TRIPOS>ATOM
      1 PA         -7.5340    1.9550  -26.8160 P.3       1 FAD501      0.0000 
      2 O1A        -7.1600    1.0160  -27.8990 O.co2     1 FAD501      0.0000 
      3 O2A        -8.3600    1.3660  -25.6600 O.co2     1 FAD501      0.0000 
      4 O5B        -6.1720    2.6000  -26.3560 O.3       1 FAD501      0.0000 
      5 C5B        -5.9860    3.0900  -25.0120 C.3       1 FAD501      0.0000 
      6 C4B        -5.4460    4.4990  -25.0890 C.3       1 FAD501      0.0000 
      7 O4B        -4.1810    4.5180  -25.7820 O.3       1 FAD501      0.0000 
      8 C3B        -6.3060    5.4940  -25.8470 C.3       1 FAD501      0.0000 
      9 O3B        -7.3400    5.9560  -24.9900 O.3       1 FAD501      0.0000 
     10 C2B        -5.2820    6.5680  -26.2140 C.3       1 FAD501      0.0000 
     11 O2B        -4.9820    7.4350  -25.1200 O.3       1 FAD501      0.0000 
     12 C1B        -4.0570    5.7080  -26.5310 C.3       1 FAD501      0.0000 
     13 N9A        -3.9560    5.3490  -27.9470 N.pl3     1 FAD501      0.0000 
     14 C8A        -4.5910    4.3300  -28.6030 C.2       1 FAD501      0.0000 
     15 N7A        -4.3140    4.2700  -29.8900 N.2       1 FAD501      0.0000 
     16 C5A        -3.4360    5.3180  -30.0840 C.ar      1 FAD501      0.0000 
     17 C6A        -2.7560    5.7990  -31.2330 C.ar      1 FAD501      0.0000 
     18 N6A        -2.8720    5.2530  -32.4520 N.pl3     1 FAD501      0.0000 
     19 N1A        -1.9420    6.8640  -31.0800 N.ar      1 FAD501      0.0000 
     20 C2A        -1.8180    7.4130  -29.8650 C.ar      1 FAD501      0.0000 
     21 N3A        -2.3980    7.0440  -28.7190 N.ar      1 FAD501      0.0000 
     22 C4A        -3.1900    5.9900  -28.8990 C.ar      1 FAD501      0.0000 
     23 N1         -6.4490    9.5800  -30.1010 N.2       1 FAD501      0.0000 
     24 C2         -6.6870   10.5290  -29.1510 C.2       1 FAD501      0.0000 
     25 O2         -6.6860   10.2310  -27.9410 O.2       1 FAD501      0.0000 
     26 N3         -6.9280   11.8400  -29.5420 N.am      1 FAD501      0.0000 
     27 C4         -6.9730   12.3070  -30.8630 C.2       1 FAD501      0.0000 
     28 O4         -7.1930   13.4930  -31.0980 O.2       1 FAD501      0.0000 
     29 C4X        -6.7540   11.2750  -31.8570 C.2       1 FAD501      0.0000 
     30 N5         -6.7720   11.6300  -33.1410 N.2       1 FAD501      0.0000 
     31 C5X        -6.5470   10.6320  -34.0840 C.ar      1 FAD501      0.0000 
     32 C6         -6.5780   10.9800  -35.4400 C.ar      1 FAD501      0.0000 
     33 C7         -6.3540   10.0130  -36.4160 C.ar      1 FAD501      0.0000 
     34 C7M        -6.3800   10.4230  -37.8670 C.3       1 FAD501      0.0000 
     35 C8         -6.0840    8.6850  -36.0410 C.ar      1 FAD501      0.0000 
     36 C8M        -5.8340    7.6160  -37.0760 C.3       1 FAD501      0.0000 
     37 C9         -6.0680    8.3310  -34.6920 C.ar      1 FAD501      0.0000 
     38 C9A        -6.2750    9.3020  -33.7150 C.ar      1 FAD501      0.0000 
     39 N10        -6.3030    8.9640  -32.3380 N.pl3     1 FAD501      0.0000 
     40 C10        -6.4910    9.9420  -31.3850 C.2       1 FAD501      0.0000 
     41 C1'        -5.8290    7.6430  -31.8850 C.3       1 FAD501      0.0000 
     42 C2'        -6.8590    6.5420  -31.7140 C.3       1 FAD501      0.0000 
     43 O2'        -7.7500    6.4190  -32.8150 O.3       1 FAD501      0.0000 
     44 C3'        -7.6030    6.7310  -30.4020 C.3       1 FAD501      0.0000 
     45 O3'        -6.6820    6.9430  -29.3320 O.3       1 FAD501      0.0000 
     46 C4'        -8.4370    5.5090  -30.0620 C.3       1 FAD501      0.0000 
     47 O4'        -9.3860    5.2930  -31.1070 O.3       1 FAD501      0.0000 
     48 C5'        -9.1540    5.7830  -28.7640 C.3       1 FAD501      0.0000 
     49 O5'        -9.9760    4.6480  -28.4340 O.3       1 FAD501      0.0000 
     50 P          -9.7250    3.8450  -27.1150 P.3       1 FAD501      0.0000 
     51 O1P        -9.4990    4.7940  -25.9460 O.co2     1 FAD501      0.0000 
     52 O2P       -10.7690    2.7920  -27.1050 O.co2     1 FAD501      0.0000 
     53 O3P        -8.3050    3.1960  -27.4240 O.3       1 FAD501      0.0000 
@<TRIPOS>BOND
     1   50   53 1    
     2    1    2 ar   
     3    1    3 ar   
     4    1    4 1    
     5    1   53 1    
     6    4    5 1    
     7    5    6 1    
     8    6    7 1    
     9    6    8 1    
    10    7   12 1    
    11    8    9 1    
    12    8   10 1    
    13   10   11 1    
    14   10   12 1    
    15   12   13 1    
    16   13   14 1    
    17   13   22 1    
    18   14   15 2    
    19   15   16 1    
    20   16   17 ar   
    21   16   22 ar   
    22   17   18 1    
    23   17   19 ar   
    24   19   20 ar   
    25   20   21 ar   
    26   21   22 ar   
    27   23   24 1    
    28   23   40 2    
    29   24   25 2    
    30   24   26 am   
    31   26   27 am   
    32   27   28 2    
    33   27   29 1    
    34   29   30 2    
    35   29   40 1    
    36   30   31 1    
    37   31   32 ar   
    38   31   38 ar   
    39   32   33 ar   
    40   33   34 1    
    41   33   35 ar   
    42   35   36 1    
    43   35   37 ar   
    44   37   38 ar   
    45   38   39 1    
    46   39   40 1    
    47   39   41 1    
    48   41   42 1    
    49   42   43 1    
    50   42   44 1    
    51   44   45 1    
    52   44   46 1    
    53   46   47 1    
    54   46   48 1    
    55   48   49 1    
    56   49   50 1    
    57   50   51 ar   
    58   50   52 ar   
@<TRIPOS>SUBSTRUCTURE
     1 FAD501      1 GROUP   
@<TRIPOS>SET
ATOM$ORANGE STATIC     ATOMS   COLORGROUP SYSTEM 
54 5 5 6 6 8 8 10 10 12 12 14 14 16 16 17 17 20 \
20 22 22 24 24 27 27 29 29 31 31 32 32 33 33 34 34 35 \
35 36 36 37 37 38 38 40 40 41 41 42 42 44 44 46 46 48 \
48 

