#    Name: 6s86_1_C2E
#    Modification time : Fri May 22 19:24:14 2020

@<TRIPOS>MOLECULE
6s86_1_C2E
   68    74     1     0     0
SMALL
NO_CHARGES


@<TRIPOS>ATOM
      1 P1         20.3710   33.0620   -2.1330 P.3       1 C2E401      0.0000 
      2 O2P        18.9960   33.6450   -2.3610 O.co2     1 C2E401      0.0000 
      3 O1P        20.8180   32.2010   -3.2850 O.co2     1 C2E401      0.0000 
      4 O5'        21.3770   34.2960   -1.9810 O.3       1 C2E401      0.0000 
      5 C5'        22.7000   34.0110   -1.5920 C.3       1 C2E401      0.0000 
      6 C4'        23.3260   35.2870   -1.1000 C.3       1 C2E401      0.0000 
      7 O4'        23.1020   36.3570   -2.0400 O.3       1 C2E401      0.0000 
      8 C3'        22.7900   35.8180    0.2330 C.3       1 C2E401      0.0000 
      9 O3'        23.3210   35.2260    1.3800 O.3       1 C2E401      0.0000 
     10 C2'        23.2030   37.2990    0.1480 C.3       1 C2E401      0.0000 
     11 O2'        24.5710   37.4540    0.4870 O.3       1 C2E401      0.0000 
     12 C1'        22.9590   37.5970   -1.3320 C.3       1 C2E401      0.0000 
     13 N9         21.5920   38.1330   -1.3940 N.pl3     1 C2E401      0.0000 
     14 C8         20.4760   37.4290   -1.6390 C.2       1 C2E401      0.0000 
     15 N7         19.3940   38.2500   -1.5960 N.2       1 C2E401      0.0000 
     16 C5         19.8320   39.4890   -1.3030 C.2       1 C2E401      0.0000 
     17 C6         19.2250   40.8220   -1.1050 C.2       1 C2E401      0.0000 
     18 O6         17.9890   40.9680   -1.2100 O.2       1 C2E401      0.0000 
     19 N1         20.0260   41.8580   -0.8130 N.am      1 C2E401      0.0000 
     20 C2         21.3610   41.7170   -0.6960 C.2       1 C2E401      0.0000 
     21 N2         22.1040   42.8120   -0.3980 N.pl3     1 C2E401      0.0000 
     22 N3         21.9900   40.5250   -0.8630 N.2       1 C2E401      0.0000 
     23 C4         21.2860   39.4060   -1.1610 C.2       1 C2E401      0.0000 
     24 P11        22.3650   35.2960    2.6740 P.3       1 C2E401      0.0000 
     25 O21        21.7970   36.6840    2.8570 O.co2     1 C2E401      0.0000 
     26 O11        23.1920   34.8720    3.8610 O.co2     1 C2E401      0.0000 
     27 O5A        21.1540   34.2710    2.4700 O.3       1 C2E401      0.0000 
     28 C5A        21.4980   32.9310    2.1940 C.3       1 C2E401      0.0000 
     29 C4A        20.2890   32.1910    1.6880 C.3       1 C2E401      0.0000 
     30 O4A        19.1700   32.3360    2.5900 O.3       1 C2E401      0.0000 
     31 C3A        19.7640   32.6550    0.3200 C.3       1 C2E401      0.0000 
     32 O3A        20.4240   32.1470   -0.8030 O.3       1 C2E401      0.0000 
     33 C2A        18.3100   32.1480    0.3820 C.3       1 C2E401      0.0000 
     34 O2A        18.2480   30.7650    0.0570 O.3       1 C2E401      0.0000 
     35 C1A        17.9410   32.3910    1.8480 C.3       1 C2E401      0.0000 
     36 N91        17.3190   33.7220    1.8980 N.pl3     1 C2E401      0.0000 
     37 C81        17.9450   34.8780    2.1760 C.2       1 C2E401      0.0000 
     38 N71        17.0640   35.9100    2.1150 N.2       1 C2E401      0.0000 
     39 C51        15.8600   35.4090    1.7810 C.2       1 C2E401      0.0000 
     40 C61        14.5010   35.9460    1.5480 C.2       1 C2E401      0.0000 
     41 O61        14.2740   37.1680    1.6560 O.2       1 C2E401      0.0000 
     42 N11        13.5240   35.0880    1.2200 N.am      1 C2E401      0.0000 
     43 C21        13.7440   33.7640    1.0980 C.2       1 C2E401      0.0000 
     44 N21        12.7010   32.9670    0.7610 N.pl3     1 C2E401      0.0000 
     45 N31        14.9650   33.1990    1.2960 N.2       1 C2E401      0.0000 
     46 C41        16.0350   33.9600    1.6330 C.2       1 C2E401      0.0000 
     47 H5'1       22.7050   33.2610   -0.7990 H         1 C2E401      0.0000 
     48 H5'2       23.2640   33.6200   -2.4410 H         1 C2E401      0.0000 
     49 H4'        24.4070   35.1190   -0.9920 H         1 C2E401      0.0000 
     50 H3'        21.6930   35.7470    0.2380 H         1 C2E401      0.0000 
     51 H2'        22.5520   37.9160    0.7830 H         1 C2E401      0.0000 
     52 HO2'       24.8360   38.3730    0.3450 H         1 C2E401      0.0000 
     53 H1'        23.6880   38.3390   -1.6860 H         1 C2E401      0.0000 
     54 H8         20.4390   36.3710   -1.8560 H         1 C2E401      0.0000 
     55 HN1        19.6020   42.7960   -0.6730 H         1 C2E401      0.0000 
     56 HN21       23.1060   42.7330   -0.3050 H         1 C2E401      0.0000 
     57 HN22       21.6540   43.7060   -0.2700 H         1 C2E401      0.0000 
     58 H511       22.2910   32.9000    1.4440 H         1 C2E401      0.0000 
     59 H512       21.8700   32.4520    3.1020 H         1 C2E401      0.0000 
     60 H4A        20.5520   31.1270    1.6080 H         1 C2E401      0.0000 
     61 H3A        19.7590   33.7540    0.2920 H         1 C2E401      0.0000 
     62 H2A        17.6700   32.7480   -0.2800 H         1 C2E401      0.0000 
     63 HO2A       17.3580   30.4320    0.2320 H         1 C2E401      0.0000 
     64 H1A        17.2400   31.6160    2.1890 H         1 C2E401      0.0000 
     65 H81        18.9920   34.9770    2.4240 H         1 C2E401      0.0000 
     66 HN11       12.5660   35.4580    1.0540 H         1 C2E401      0.0000 
     67 HN24       11.7870   33.3690    0.6100 H         1 C2E401      0.0000 
     68 HN23       12.8380   31.9710    0.6620 H         1 C2E401      0.0000 
@<TRIPOS>BOND
     1    1    2 ar   
     2    1    3 ar   
     3    1    4 1    
     4    1   32 1    
     5    4    5 1    
     6    5    6 1    
     7    5   47 1    
     8    5   48 1    
     9    6    7 1    
    10    6    8 1    
    11    6   49 1    
    12    7   12 1    
    13    8    9 1    
    14    8   10 1    
    15    8   50 1    
    16    9   24 1    
    17   10   11 1    
    18   10   12 1    
    19   10   51 1    
    20   11   52 1    
    21   12   13 1    
    22   12   53 1    
    23   13   14 1    
    24   13   23 1    
    25   14   15 2    
    26   14   54 1    
    27   15   16 1    
    28   16   17 1    
    29   16   23 2    
    30   17   18 2    
    31   17   19 am   
    32   19   20 1    
    33   19   55 1    
    34   20   21 1    
    35   20   22 2    
    36   21   56 1    
    37   21   57 1    
    38   22   23 1    
    39   24   25 ar   
    40   24   26 ar   
    41   24   27 1    
    42   27   28 1    
    43   28   29 1    
    44   28   58 1    
    45   28   59 1    
    46   29   30 1    
    47   29   31 1    
    48   29   60 1    
    49   30   35 1    
    50   31   32 1    
    51   31   33 1    
    52   31   61 1    
    53   33   34 1    
    54   33   35 1    
    55   33   62 1    
    56   34   63 1    
    57   35   36 1    
    58   35   64 1    
    59   36   37 1    
    60   36   46 1    
    61   37   38 2    
    62   37   65 1    
    63   38   39 1    
    64   39   40 1    
    65   39   46 2    
    66   40   41 2    
    67   40   42 am   
    68   42   66 1    
    69   42   43 1    
    70   43   44 1    
    71   43   45 2    
    72   44   67 1    
    73   44   68 1    
    74   45   46 1    
@<TRIPOS>SUBSTRUCTURE
     1 C2E401      1 GROUP   
@<TRIPOS>SET

