#    Name: 6s86_1_C2E_CAVITY_N1_4
#    Modification time : Fri May 22 19:24:16 2020

@<TRIPOS>MOLECULE
6s86_1_C2E_CAVITY_N1_4
  117     0     6     0     0
SMALL
NO_CHARGES


@<TRIPOS>ATOM
      1 OG         17.2900   31.7200   -0.1700 O.3       1 SER1        0.0000 
      2 OG         21.7300   30.1500   -1.7900 O.3       1 SER1        0.0000 
      3 OG         21.8800   30.6100   -3.2100 O.3       1 SER1        0.0000 
      4 OG         20.7900   31.6200   -3.0000 O.3       1 SER1        0.0000 
      5 OG         22.4500   30.2600    1.4900 O.3       1 SER1        0.0000 
      6 OG         22.6000   30.7200    0.0600 O.3       1 SER1        0.0000 
      7 OG         21.3600   31.2700    1.6900 O.3       1 SER1        0.0000 
      8 OG         21.6600   32.1800   -1.1500 O.3       1 SER1        0.0000 
      9 OG         21.8100   32.6300   -2.5700 O.3       1 SER1        0.0000 
     10 OG         23.6200   31.7300    0.4900 O.3       1 SER1        0.0000 
     11 OG         22.3800   32.2900    2.1200 O.3       1 SER1        0.0000 
     12 OG         22.5300   32.7400    0.7000 O.3       1 SER1        0.0000 
     13 OG         22.6800   33.1900   -0.7200 O.3       1 SER1        0.0000 
     14 OG         22.8300   33.6400   -2.1400 O.3       1 SER1        0.0000 
     15 OG         24.6400   32.7400    0.9200 O.3       1 SER1        0.0000 
     16 OG         24.7900   33.1900   -0.5000 O.3       1 SER1        0.0000 
     17 OG         23.5500   33.7500    1.1300 O.3       1 SER1        0.0000 
     18 OG         23.7000   34.2000   -0.2900 O.3       1 SER1        0.0000 
     19 OG         22.3100   34.3100    2.7600 O.3       1 SER1        0.0000 
     20 N          12.7800   35.3100    2.0800 N.am      2 ALA2        0.0000 
     21 N          12.9300   35.7600    0.6600 N.am      2 ALA2        0.0000 
     22 N          20.1200   31.8300    3.3200 N.am      2 ALA2        0.0000 
     23 N          21.1400   32.8400    3.7500 N.am      2 ALA2        0.0000 
     24 N          21.7400   34.6500   -1.9400 N.am      2 ALA2        0.0000 
     25 N          21.8900   35.1000   -3.3600 N.am      2 ALA2        0.0000 
     26 N          20.2000   34.3000    2.5400 N.am      2 ALA2        0.0000 
     27 N          23.8500   34.6600   -1.7200 N.am      2 ALA2        0.0000 
     28 N          24.0000   35.1100   -3.1400 N.am      2 ALA2        0.0000 
     29 N          20.5900   42.1800   -1.2400 N.am      2 ALA2        0.0000 
     30 OD1        14.0900   32.7300   -0.1800 O.co2     3 ASP3        0.0000 
     31 OD1        16.2000   32.7300    0.0400 O.co2     3 ASP3        0.0000 
     32 OD1        15.1100   33.7400    0.2400 O.co2     3 ASP3        0.0000 
     33 OD1        14.0200   34.7500    0.4500 O.co2     3 ASP3        0.0000 
     34 OD1        19.7000   32.6300   -2.7900 O.co2     3 ASP3        0.0000 
     35 OD1        18.3100   32.7300    0.2600 O.co2     3 ASP3        0.0000 
     36 OD1        18.4600   33.1800   -1.1600 O.co2     3 ASP3        0.0000 
     37 OD1        17.2200   33.7400    0.4700 O.co2     3 ASP3        0.0000 
     38 OD1        16.1300   34.7500    0.6700 O.co2     3 ASP3        0.0000 
     39 OD1        15.0400   35.7600    0.8800 O.co2     3 ASP3        0.0000 
     40 OD1        20.5700   33.1900   -0.9400 O.co2     3 ASP3        0.0000 
     41 OD1        20.7200   33.6400   -2.3700 O.co2     3 ASP3        0.0000 
     42 OD1        19.3300   33.7400    0.6900 O.co2     3 ASP3        0.0000 
     43 OD1        19.4800   34.2000   -0.7400 O.co2     3 ASP3        0.0000 
     44 OD1        19.6300   34.6500   -2.1600 O.co2     3 ASP3        0.0000 
     45 OD1        18.2400   34.7500    0.8900 O.co2     3 ASP3        0.0000 
     46 OD1        17.1500   35.7600    1.1000 O.co2     3 ASP3        0.0000 
     47 OD1        20.3500   34.7600    1.1200 O.co2     3 ASP3        0.0000 
     48 OD1        20.5000   35.2100   -0.3100 O.co2     3 ASP3        0.0000 
     49 OD1        20.6500   35.6600   -1.7300 O.co2     3 ASP3        0.0000 
     50 OD1        19.1100   35.3100    2.7500 O.co2     3 ASP3        0.0000 
     51 OD1        21.2200   35.3200    2.9700 O.co2     3 ASP3        0.0000 
     52 OD1        21.3700   35.7700    1.5400 O.co2     3 ASP3        0.0000 
     53 OD1        21.5200   36.2200    0.1200 O.co2     3 ASP3        0.0000 
     54 OD1        20.5800   37.6800   -1.0900 O.co2     3 ASP3        0.0000 
     55 OD1        22.3900   36.7800    1.9700 O.co2     3 ASP3        0.0000 
     56 OD1        22.5400   37.2400    0.5500 O.co2     3 ASP3        0.0000 
     57 OD1        21.6000   38.7000   -0.6700 O.co2     3 ASP3        0.0000 
     58 OD1        20.5100   39.7100   -0.4600 O.co2     3 ASP3        0.0000 
     59 OD1        19.4200   40.7200   -0.2500 O.co2     3 ASP3        0.0000 
     60 OD1        21.5300   40.7200   -0.0300 O.co2     3 ASP3        0.0000 
     61 OD1        20.4400   41.7300    0.1800 O.co2     3 ASP3        0.0000 
     62 CZ         17.1400   31.2700    1.2500 C.ar      4 PHE5        0.0000 
     63 CZ         16.0500   32.2800    1.4600 C.ar      4 PHE5        0.0000 
     64 CZ         14.9600   33.2900    1.6700 C.ar      4 PHE5        0.0000 
     65 CZ         13.8700   34.3000    1.8700 C.ar      4 PHE5        0.0000 
     66 CZ         20.3400   30.2600    1.2700 C.ar      4 PHE5        0.0000 
     67 CZ         19.2500   31.2700    1.4700 C.ar      4 PHE5        0.0000 
     68 CZ         17.0700   33.2900    1.8900 C.ar      4 PHE5        0.0000 
     69 CZ         15.9800   34.3000    2.1000 C.ar      4 PHE5        0.0000 
     70 CZ         14.8900   35.3100    2.3000 C.ar      4 PHE5        0.0000 
     71 CZ         17.0000   35.3100    2.5200 C.ar      4 PHE5        0.0000 
     72 CZ         20.7300   38.1400   -2.5200 C.ar      4 PHE5        0.0000 
     73 CZ         24.8700   35.6700   -1.2900 C.ar      4 PHE5        0.0000 
     74 CZ         23.7800   36.6800   -1.0800 C.ar      4 PHE5        0.0000 
     75 CZ         22.8400   38.1400   -2.3000 C.ar      4 PHE5        0.0000 
     76 CZ         20.6600   40.1600   -1.8800 C.ar      4 PHE5        0.0000 
     77 CZ         19.5700   41.1700   -1.6700 C.ar      4 PHE5        0.0000 
     78 CZ         23.7100   38.7000   -0.4400 C.ar      4 PHE5        0.0000 
     79 CZ         22.7700   40.1600   -1.6600 C.ar      4 PHE5        0.0000 
     80 CZ         21.6800   41.1700   -1.4500 C.ar      4 PHE5        0.0000 
     81 CA         13.0000   33.7400    0.0200 C.3       5 GLY6        0.0000 
     82 CA         20.7100   29.1400   -2.2200 C.3       5 GLY6        0.0000 
     83 CA         19.6200   30.1500   -2.0100 C.3       5 GLY6        0.0000 
     84 CA         19.7700   30.6000   -3.4300 C.3       5 GLY6        0.0000 
     85 CA         18.3800   30.7100   -0.3800 C.3       5 GLY6        0.0000 
     86 CA         21.4300   29.2500    1.0600 C.3       5 GLY6        0.0000 
     87 CA         21.5800   29.7000   -0.3600 C.3       5 GLY6        0.0000 
     88 CA         20.4900   30.7100   -0.1600 C.3       5 GLY6        0.0000 
     89 CA         19.5500   32.1700   -1.3700 C.3       5 GLY6        0.0000 
     90 CA         18.1600   32.2800    1.6800 C.3       5 GLY6        0.0000 
     91 CA         21.2100   30.8200    3.1200 C.3       5 GLY6        0.0000 
     92 CA         19.0300   32.8400    3.5300 C.3       5 GLY6        0.0000 
     93 CA         19.1800   33.2900    2.1100 C.3       5 GLY6        0.0000 
     94 CA         18.0900   34.3000    2.3200 C.3       5 GLY6        0.0000 
     95 CA         22.7600   35.6700   -1.5100 C.3       5 GLY6        0.0000 
     96 CA         22.9100   36.1200   -2.9300 C.3       5 GLY6        0.0000 
     97 CA         21.8200   37.1300   -2.7200 C.3       5 GLY6        0.0000 
     98 CA         25.8100   34.2100   -0.0700 C.3       5 GLY6        0.0000 
     99 CA         24.5700   34.7600    1.5600 C.3       5 GLY6        0.0000 
    100 CA         24.7200   35.2200    0.1300 C.3       5 GLY6        0.0000 
    101 CA         23.3300   35.3200    3.1900 C.3       5 GLY6        0.0000 
    102 CA         23.4800   35.7700    1.7600 C.3       5 GLY6        0.0000 
    103 CA         23.9300   37.1300   -2.5000 C.3       5 GLY6        0.0000 
    104 CA         22.6900   37.6900   -0.8700 C.3       5 GLY6        0.0000 
    105 CA         24.6500   37.2400    0.7700 C.3       5 GLY6        0.0000 
    106 DU         20.6400   31.1600   -1.5800 H         6 CUB7        0.0000 
    107 DU         19.4000   31.7200    0.0500 H         6 CUB7        0.0000 
    108 DU         21.5100   31.7200    0.2700 H         6 CUB7        0.0000 
    109 DU         20.2700   32.2800    1.9000 H         6 CUB7        0.0000 
    110 DU         20.4200   32.7300    0.4800 H         6 CUB7        0.0000 
    111 DU         21.2900   33.3000    2.3300 H         6 CUB7        0.0000 
    112 DU         21.4400   33.7500    0.9100 H         6 CUB7        0.0000 
    113 DU         21.5900   34.2000   -0.5100 H         6 CUB7        0.0000 
    114 DU         22.4600   34.7600    1.3400 H         6 CUB7        0.0000 
    115 DU         22.6100   35.2100   -0.0900 H         6 CUB7        0.0000 
    116 DU         21.6700   36.6700   -1.3000 H         6 CUB7        0.0000 
    117 DU         23.6300   36.2300    0.3400 H         6 CUB7        0.0000 
@<TRIPOS>BOND
@<TRIPOS>SUBSTRUCTURE
     1 SER1        1 GROUP   
     2 ALA2       20 GROUP   
     3 ASP3       30 GROUP   
     4 PHE5       62 GROUP   
     5 GLY6       81 GROUP   
     6 CUB7      106 GROUP   
@<TRIPOS>SET

