#    Name: 6pbt_1_NAP
#    Modification time : Fri May 22 19:31:10 2020

@<TRIPOS>MOLECULE
6pbt_1_NAP
   73    77     1     0     1
SMALL
NO_CHARGES


@<TRIPOS>ATOM
      1 PA         71.9610   38.1410   33.4640 P.3       1 NAP501      0.0000 
      2 O1A        73.0910   38.8490   33.0480 O.co2     1 NAP501      0.0000 
      3 O2A        72.0750   36.7710   33.5610 O.co2     1 NAP501      0.0000 
      4 O5B        71.6230   38.7440   34.8420 O.3       1 NAP501      0.0000 
      5 C5B        70.5950   38.4790   35.7210 C.3       1 NAP501      0.0000 
      6 C4B        71.0310   38.7850   37.1310 C.3       1 NAP501      0.0000 
      7 O4B        70.1170   38.1920   37.9540 O.3       1 NAP501      0.0000 
      8 C3B        72.3670   38.2030   37.5270 C.3       1 NAP501      0.0000 
      9 O3B        72.9640   39.1590   38.3190 O.3       1 NAP501      0.0000 
     10 C2B        72.0110   36.8860   38.1680 C.3       1 NAP501      0.0000 
     11 O2B        72.9600   36.3690   39.0420 O.3       1 NAP501      0.0000 
     12 C1B        70.6530   37.1700   38.7270 C.3       1 NAP501      0.0000 
     13 N9A        69.7490   36.0290   38.6620 N.pl3     1 NAP501      0.0000 
     14 C8A        69.6770   35.1520   37.7030 C.2       1 NAP501      0.0000 
     15 N7A        68.7520   34.2690   38.0020 N.2       1 NAP501      0.0000 
     16 C5A        68.2320   34.5340   39.1720 C.ar      1 NAP501      0.0000 
     17 C6A        67.2000   33.9600   40.0570 C.ar      1 NAP501      0.0000 
     18 N6A        66.5090   32.8610   39.7390 N.pl3     1 NAP501      0.0000 
     19 N1A        66.9940   34.5850   41.1970 N.ar      1 NAP501      0.0000 
     20 C2A        67.6410   35.6580   41.5160 C.ar      1 NAP501      0.0000 
     21 N3A        68.5570   36.1920   40.7560 N.ar      1 NAP501      0.0000 
     22 C4A        68.9020   35.7000   39.6040 C.ar      1 NAP501      0.0000 
     23 O3         70.7210   38.5210   32.6250 O.3       1 NAP501      0.0000 
     24 PN         70.4560   39.8240   31.8130 P.3       1 NAP501      0.0000 
     25 O1N        71.1100   39.6310   30.6040 O.co2     1 NAP501      0.0000 
     26 O2N        70.6450   41.0010   32.5510 O.co2     1 NAP501      0.0000 
     27 O5D        69.0260   39.5560   31.3780 O.3       1 NAP501      0.0000 
     28 C5D        68.0010   39.6790   32.2680 C.3       1 NAP501      0.0000 
     29 C4D        66.6480   39.4580   31.6910 C.3       1 NAP501      0.0000 
     30 O4D        66.2350   40.5100   30.8940 O.3       1 NAP501      0.0000 
     31 C3D        66.5580   38.2580   30.8050 C.3       1 NAP501      0.0000 
     32 O3D        66.4230   37.0700   31.5100 O.3       1 NAP501      0.0000 
     33 C2D        65.3370   38.5670   30.0500 C.3       1 NAP501      0.0000 
     34 O2D        64.2050   38.3310   30.8480 O.3       1 NAP501      0.0000 
     35 C1D        65.5150   40.0350   29.8080 C.3       1 NAP501      0.0000 
     36 N1N        66.1740   40.3330   28.5320 N.pl3     1 NAP501      0.0000 
     37 C2N        67.4350   40.6470   28.4470 C.ar      1 NAP501      0.0000 
     38 C3N        68.0290   40.9530   27.2580 C.ar      1 NAP501      0.0000 
     39 C7N        69.4830   41.3160   27.1940 C.2       1 NAP501      0.0000 
     40 O7N        69.8980   41.9310   26.2890 O.2       1 NAP501      0.0000 
     41 N7N        70.2490   41.0030   28.1580 N.am      1 NAP501      0.0000 
     42 C4N        67.2490   40.9350   26.1030 C.ar      1 NAP501      0.0000 
     43 C5N        65.9360   40.6130   26.2430 C.ar      1 NAP501      0.0000 
     44 C6N        65.4230   40.3260   27.4740 C.ar      1 NAP501      0.0000 
     45 P2B        73.4770   34.9070   38.8920 P.3       1 NAP501      0.0000 
     46 O1X        74.1130   34.7890   37.6750 O.co2     1 NAP501      0.0000 
     47 O2X        74.3320   34.7730   39.9060 O.co2     1 NAP501      0.0000 
     48 O3X        72.3160   34.1470   39.0500 O.co2     1 NAP501      0.0000 
     49 H51A       70.3080   37.4290   35.6450 H         1 NAP501      0.0000 
     50 H52A       69.7260   39.0890   35.4650 H         1 NAP501      0.0000 
     51 H4B        71.0430   39.8730   37.2860 H         1 NAP501      0.0000 
     52 H3B        72.9650   38.0210   36.6230 H         1 NAP501      0.0000 
     53 HO3A       73.0480   39.9840   37.8210 H         1 NAP501      0.0000 
     54 H2B        71.8740   36.1610   37.3540 H         1 NAP501      0.0000 
     55 H1B        70.7610   37.5050   39.7680 H         1 NAP501      0.0000 
     56 H8A        70.2590   35.1680   36.7900 H         1 NAP501      0.0000 
     57 H61A       65.8130   32.5000   40.3770 H         1 NAP501      0.0000 
     58 H62A       66.6850   32.3880   38.8650 H         1 NAP501      0.0000 
     59 H2A        67.4220   36.1280   42.4670 H         1 NAP501      0.0000 
     60 H51N       68.1550   38.9660   33.0800 H         1 NAP501      0.0000 
     61 H52N       68.0350   40.6790   32.7050 H         1 NAP501      0.0000 
     62 H4D        65.9380   39.3280   32.5200 H         1 NAP501      0.0000 
     63 H3D        67.4220   38.2260   30.1270 H         1 NAP501      0.0000 
     64 HO3N       65.8100   36.4860   31.0420 H         1 NAP501      0.0000 
     65 H2D        65.3080   38.0110   29.1030 H         1 NAP501      0.0000 
     66 HO2N       63.4060   38.5180   30.3370 H         1 NAP501      0.0000 
     67 H1D        64.5180   40.4980   29.8100 H         1 NAP501      0.0000 
     68 H2N        68.0310   40.6700   29.3510 H         1 NAP501      0.0000 
     69 H71N       69.8840   40.4880   28.9470 H         1 NAP501      0.0000 
     70 H72N       71.2270   41.2550   28.1280 H         1 NAP501      0.0000 
     71 H4N        67.6720   41.1680   25.1340 H         1 NAP501      0.0000 
     72 H5N        65.2940   40.5800   25.3720 H         1 NAP501      0.0000 
     73 H6N        64.3760   40.0640   27.5670 H         1 NAP501      0.0000 
@<TRIPOS>BOND
     1    1    2 ar   
     2    1    3 ar   
     3    1    4 1    
     4    1   23 1    
     5    4    5 1    
     6    5    6 1    
     7    5   49 1    
     8    5   50 1    
     9    6    7 1    
    10    6    8 1    
    11    6   51 1    
    12    7   12 1    
    13    8    9 1    
    14    8   10 1    
    15    8   52 1    
    16    9   53 1    
    17   10   11 1    
    18   10   12 1    
    19   10   54 1    
    20   11   45 1    
    21   12   13 1    
    22   12   55 1    
    23   13   14 1    
    24   13   22 1    
    25   14   15 2    
    26   14   56 1    
    27   15   16 1    
    28   16   17 ar   
    29   16   22 ar   
    30   17   18 1    
    31   17   19 ar   
    32   18   57 1    
    33   18   58 1    
    34   19   20 ar   
    35   20   21 ar   
    36   20   59 1    
    37   21   22 ar   
    38   23   24 1    
    39   24   25 ar   
    40   24   26 ar   
    41   24   27 1    
    42   27   28 1    
    43   28   29 1    
    44   28   60 1    
    45   28   61 1    
    46   29   30 1    
    47   29   31 1    
    48   29   62 1    
    49   30   35 1    
    50   31   32 1    
    51   31   33 1    
    52   31   63 1    
    53   32   64 1    
    54   33   34 1    
    55   33   35 1    
    56   33   65 1    
    57   34   66 1    
    58   35   36 1    
    59   35   67 1    
    60   36   37 ar   
    61   36   44 ar   
    62   37   38 ar   
    63   37   68 1    
    64   38   39 1    
    65   38   42 ar   
    66   39   40 2    
    67   39   41 am   
    68   41   69 1    
    69   41   70 1    
    70   42   43 ar   
    71   42   71 1    
    72   43   44 ar   
    73   43   72 1    
    74   44   73 1    
    75   45   46 ar   
    76   45   47 ar   
    77   45   48 ar   
@<TRIPOS>SUBSTRUCTURE
     1 NAP501      1 GROUP   
@<TRIPOS>SET
ATOM$ORANGE STATIC     ATOMS   COLORGROUP SYSTEM 
42 5 5 6 6 8 8 10 10 12 12 14 14 16 16 17 17 20 \
20 22 22 28 28 29 29 31 31 33 33 35 35 37 37 38 38 39 \
39 42 42 43 43 44 44 

