#    Name: 6pbt_2_NAP
#    Modification time : Fri May 22 19:31:17 2020

@<TRIPOS>MOLECULE
6pbt_2_NAP
   73    77     1     0     1
SMALL
NO_CHARGES


@<TRIPOS>ATOM
      1 PA         80.1810   30.7680  -27.6140 P.3       1 NAP501      0.0000 
      2 O1A        81.3100   30.1990  -26.9370 O.co2     1 NAP501      0.0000 
      3 O2A        79.8460   32.0780  -27.8710 O.co2     1 NAP501      0.0000 
      4 O5B        80.0870   30.0860  -28.9980 O.3       1 NAP501      0.0000 
      5 C5B        79.3840   30.5610  -30.1130 C.3       1 NAP501      0.0000 
      6 C4B        80.1730   30.2160  -31.3430 C.3       1 NAP501      0.0000 
      7 O4B        79.4510   30.4910  -32.4820 O.3       1 NAP501      0.0000 
      8 C3B        81.3880   31.0860  -31.4710 C.3       1 NAP501      0.0000 
      9 O3B        82.4490   30.3070  -31.9410 O.3       1 NAP501      0.0000 
     10 C2B        80.9490   32.2000  -32.3940 C.3       1 NAP501      0.0000 
     11 O2B        81.9610   32.9030  -33.0660 O.3       1 NAP501      0.0000 
     12 C1B        80.1010   31.4290  -33.3010 C.3       1 NAP501      0.0000 
     13 N9A        79.0670   32.1880  -33.9660 N.pl3     1 NAP501      0.0000 
     14 C8A        78.3590   33.1270  -33.4570 C.2       1 NAP501      0.0000 
     15 N7A        77.5070   33.5580  -34.3220 N.2       1 NAP501      0.0000 
     16 C5A        77.6500   32.8770  -35.4080 C.ar      1 NAP501      0.0000 
     17 C6A        77.0360   32.8220  -36.7060 C.ar      1 NAP501      0.0000 
     18 N6A        76.0890   33.6160  -37.0480 N.pl3     1 NAP501      0.0000 
     19 N1A        77.4970   31.9460  -37.5440 N.ar      1 NAP501      0.0000 
     20 C2A        78.4680   31.1410  -37.2620 C.ar      1 NAP501      0.0000 
     21 N3A        79.0480   31.1610  -36.1050 N.ar      1 NAP501      0.0000 
     22 C4A        78.6920   31.9770  -35.1720 C.ar      1 NAP501      0.0000 
     23 O3         78.8180   30.3940  -26.9840 O.3       1 NAP501      0.0000 
     24 PN         78.3730   29.0260  -26.4250 P.3       1 NAP501      0.0000 
     25 O1N        78.7840   29.0980  -25.1400 O.co2     1 NAP501      0.0000 
     26 O2N        78.7870   27.9610  -27.2000 O.co2     1 NAP501      0.0000 
     27 O5D        76.8930   29.1750  -26.3070 O.3       1 NAP501      0.0000 
     28 C5D        75.9960   29.0320  -27.3600 C.3       1 NAP501      0.0000 
     29 C4D        74.6110   29.4330  -26.9290 C.3       1 NAP501      0.0000 
     30 O4D        74.0980   28.4710  -26.0390 O.3       1 NAP501      0.0000 
     31 C3D        74.7530   30.7370  -26.2160 C.3       1 NAP501      0.0000 
     32 O3D        74.1880   31.8380  -26.8760 O.3       1 NAP501      0.0000 
     33 C2D        74.1640   30.4870  -24.8630 C.3       1 NAP501      0.0000 
     34 O2D        73.1350   31.3680  -24.5190 O.3       1 NAP501      0.0000 
     35 C1D        73.6300   29.0940  -24.8840 C.3       1 NAP501      0.0000 
     36 N1N        74.0440   28.5180  -23.6390 N.pl3     1 NAP501      0.0000 
     37 C2N        75.2760   28.1370  -23.4140 C.ar      1 NAP501      0.0000 
     38 C3N        75.6040   27.6190  -22.1930 C.ar      1 NAP501      0.0000 
     39 C7N        76.9750   27.1680  -21.8710 C.2       1 NAP501      0.0000 
     40 O7N        77.1560   26.6630  -20.8570 O.2       1 NAP501      0.0000 
     41 N7N        77.9530   27.3770  -22.6530 N.am      1 NAP501      0.0000 
     42 C4N        74.6550   27.5500  -21.1990 C.ar      1 NAP501      0.0000 
     43 C5N        73.3930   27.9840  -21.4580 C.ar      1 NAP501      0.0000 
     44 C6N        73.1170   28.4860  -22.6970 C.ar      1 NAP501      0.0000 
     45 P2B        82.2930   34.3680  -32.6610 P.3       1 NAP501      0.0000 
     46 O1X        83.2930   34.7140  -33.5480 O.co2     1 NAP501      0.0000 
     47 O2X        81.0960   35.0960  -32.7980 O.co2     1 NAP501      0.0000 
     48 O3X        82.8160   34.2780  -31.3610 O.co2     1 NAP501      0.0000 
     49 H51A       78.3970   30.0980  -30.1590 H         1 NAP501      0.0000 
     50 H52A       79.2560   31.6430  -30.0420 H         1 NAP501      0.0000 
     51 H4B        80.4730   29.1590  -31.3130 H         1 NAP501      0.0000 
     52 H3B        81.6320   31.5090  -30.4860 H         1 NAP501      0.0000 
     53 HO3A       82.7500   29.7140  -31.2380 H         1 NAP501      0.0000 
     54 H2B        80.3170   32.8990  -31.8290 H         1 NAP501      0.0000 
     55 H1B        80.7340   30.9160  -34.0390 H         1 NAP501      0.0000 
     56 H8A        78.4720   33.5130  -32.4520 H         1 NAP501      0.0000 
     57 H61A       75.7360   34.2960  -36.3890 H         1 NAP501      0.0000 
     58 H62A       75.6900   33.5580  -37.9740 H         1 NAP501      0.0000 
     59 H2A        78.8050   30.4350  -38.0100 H         1 NAP501      0.0000 
     60 H51N       75.9890   27.9930  -27.6960 H         1 NAP501      0.0000 
     61 H52N       76.3140   29.6560  -28.1980 H         1 NAP501      0.0000 
     62 H4D        73.9610   29.5520  -27.8080 H         1 NAP501      0.0000 
     63 H3D        75.8270   30.9240  -26.0810 H         1 NAP501      0.0000 
     64 HO3N       74.4540   32.6530  -26.4290 H         1 NAP501      0.0000 
     65 H2D        74.9680   30.5440  -24.1150 H         1 NAP501      0.0000 
     66 HO2N       72.7120   31.7000  -25.3220 H         1 NAP501      0.0000 
     67 H1D        72.5330   29.1460  -24.9160 H         1 NAP501      0.0000 
     68 H2N        76.0200   28.2020  -24.1980 H         1 NAP501      0.0000 
     69 H71N       77.8010   27.8380  -23.5390 H         1 NAP501      0.0000 
     70 H72N       78.8790   27.0680  -22.3970 H         1 NAP501      0.0000 
     71 H4N        74.9090   27.1520  -20.2240 H         1 NAP501      0.0000 
     72 H5N        72.6220   27.9300  -20.6990 H         1 NAP501      0.0000 
     73 H6N        72.1140   28.8240  -22.9250 H         1 NAP501      0.0000 
@<TRIPOS>BOND
     1    1    2 ar   
     2    1    3 ar   
     3    1    4 1    
     4    1   23 1    
     5    4    5 1    
     6    5    6 1    
     7    5   49 1    
     8    5   50 1    
     9    6    7 1    
    10    6    8 1    
    11    6   51 1    
    12    7   12 1    
    13    8    9 1    
    14    8   10 1    
    15    8   52 1    
    16    9   53 1    
    17   10   11 1    
    18   10   12 1    
    19   10   54 1    
    20   11   45 1    
    21   12   13 1    
    22   12   55 1    
    23   13   14 1    
    24   13   22 1    
    25   14   15 2    
    26   14   56 1    
    27   15   16 1    
    28   16   17 ar   
    29   16   22 ar   
    30   17   18 1    
    31   17   19 ar   
    32   18   57 1    
    33   18   58 1    
    34   19   20 ar   
    35   20   21 ar   
    36   20   59 1    
    37   21   22 ar   
    38   23   24 1    
    39   24   25 ar   
    40   24   26 ar   
    41   24   27 1    
    42   27   28 1    
    43   28   29 1    
    44   28   60 1    
    45   28   61 1    
    46   29   30 1    
    47   29   31 1    
    48   29   62 1    
    49   30   35 1    
    50   31   32 1    
    51   31   33 1    
    52   31   63 1    
    53   32   64 1    
    54   33   34 1    
    55   33   35 1    
    56   33   65 1    
    57   34   66 1    
    58   35   36 1    
    59   35   67 1    
    60   36   37 ar   
    61   36   44 ar   
    62   37   38 ar   
    63   37   68 1    
    64   38   39 1    
    65   38   42 ar   
    66   39   40 2    
    67   39   41 am   
    68   41   69 1    
    69   41   70 1    
    70   42   43 ar   
    71   42   71 1    
    72   43   44 ar   
    73   43   72 1    
    74   44   73 1    
    75   45   46 ar   
    76   45   47 ar   
    77   45   48 ar   
@<TRIPOS>SUBSTRUCTURE
     1 NAP501      1 GROUP   
@<TRIPOS>SET
ATOM$ORANGE STATIC     ATOMS   COLORGROUP SYSTEM 
42 5 5 6 6 8 8 10 10 12 12 14 14 16 16 17 17 20 \
20 22 22 28 28 29 29 31 31 33 33 35 35 37 37 38 38 39 \
39 42 42 43 43 44 44 

