#    Name: 6pbt_2_NAP_CAVITY_N1_4
#    Modification time : Fri May 22 19:31:19 2020

@<TRIPOS>MOLECULE
6pbt_2_NAP_CAVITY_N1_4
  111     0     7     0     0
SMALL
NO_CHARGES


@<TRIPOS>ATOM
      1 OG         69.8600   30.3800  -25.0000 O.3       1 SER1        0.0000 
      2 OG         71.8000   29.5400  -25.1800 O.3       1 SER1        0.0000 
      3 OG         72.3900   28.1700  -25.0200 O.3       1 SER1        0.0000 
      4 OG         70.1100   30.6500  -23.5500 O.3       1 SER1        0.0000 
      5 OG         72.0500   29.8200  -23.7200 O.3       1 SER1        0.0000 
      6 OG         70.6900   29.2700  -23.3900 O.3       1 SER1        0.0000 
      7 OG         72.6300   28.4400  -23.5600 O.3       1 SER1        0.0000 
      8 OG         71.2700   27.9000  -23.2300 O.3       1 SER1        0.0000 
      9 OG         70.3500   30.9200  -22.0900 O.3       1 SER1        0.0000 
     10 OG         70.9300   29.5500  -21.9400 O.3       1 SER1        0.0000 
     11 OG         71.5200   28.1700  -21.7800 O.3       1 SER1        0.0000 
     12 N          77.3400   29.7900  -29.2500 N.am      2 ALA2        0.0000 
     13 N          75.9800   29.2500  -28.9200 N.am      2 ALA2        0.0000 
     14 N          74.6200   28.7100  -28.5900 N.am      2 ALA2        0.0000 
     15 N          73.2600   28.1700  -28.2600 N.am      2 ALA2        0.0000 
     16 N          75.2000   27.3400  -28.4300 N.am      2 ALA2        0.0000 
     17 O          70.3900   32.0200  -26.9500 O.2       2 ALA2        0.0000 
     18 O          70.9800   30.6500  -26.7900 O.2       2 ALA2        0.0000 
     19 O          75.6400   30.9000  -27.6200 O.2       2 ALA2        0.0000 
     20 N          76.2200   29.5200  -27.4600 N.am      2 ALA2        0.0000 
     21 N          78.1700   28.6900  -27.6400 N.am      2 ALA2        0.0000 
     22 O          79.7700   29.5000  -26.5100 O.2       2 ALA2        0.0000 
     23 N          69.5700   29.0000  -21.6100 N.am      2 ALA2        0.0000 
     24 N          77.5400   28.9600  -22.9400 N.am      2 ALA2        0.0000 
     25 N          70.7400   26.2600  -21.2900 N.am      2 ALA2        0.0000 
     26 N          78.1300   27.5900  -22.7800 N.am      2 ALA2        0.0000 
     27 N          73.7100   27.6100  -20.5000 N.am      2 ALA2        0.0000 
     28 N          70.9900   26.5300  -19.8400 N.am      2 ALA2        0.0000 
     29 N          77.0100   27.3200  -21.0000 N.am      2 ALA2        0.0000 
     30 N          75.6500   26.7800  -20.6700 N.am      2 ALA2        0.0000 
     31 N          74.2900   26.2400  -20.3400 N.am      2 ALA2        0.0000 
     32 N          72.9300   25.7000  -20.0100 N.am      2 ALA2        0.0000 
     33 N          71.5700   25.1600  -19.6800 N.am      2 ALA2        0.0000 
     34 N          74.5400   26.5100  -18.8800 N.am      2 ALA2        0.0000 
     35 N          73.1800   25.9700  -18.5600 N.am      2 ALA2        0.0000 
     36 OD1        78.9400   30.6000  -28.1200 O.co2     3 ASP3        0.0000 
     37 OD1        77.5800   30.0600  -27.7900 O.co2     3 ASP3        0.0000 
     38 OD1        75.8800   31.1700  -26.1700 O.co2     3 ASP3        0.0000 
     39 OD1        74.5200   30.6300  -25.8400 O.co2     3 ASP3        0.0000 
     40 OD1        79.1900   30.8800  -26.6700 O.co2     3 ASP3        0.0000 
     41 OD1        77.8300   30.3300  -26.3400 O.co2     3 ASP3        0.0000 
     42 OD1        76.4700   29.7900  -26.0100 O.co2     3 ASP3        0.0000 
     43 OD1        69.5200   32.0200  -23.7100 O.co2     3 ASP3        0.0000 
     44 OD1        74.7700   30.9000  -24.3800 O.co2     3 ASP3        0.0000 
     45 OD1        76.7100   30.0700  -24.5500 O.co2     3 ASP3        0.0000 
     46 OD1        75.3500   29.5200  -24.2200 O.co2     3 ASP3        0.0000 
     47 OD1        78.6600   29.2300  -24.7300 O.co2     3 ASP3        0.0000 
     48 OD1        75.0100   31.1700  -22.9300 O.co2     3 ASP3        0.0000 
     49 OD1        76.9600   30.3400  -23.1000 O.co2     3 ASP3        0.0000 
     50 NZ         69.2800   31.7500  -25.1600 N.4       4 LYS4        0.0000 
     51 NZ         73.9400   32.0000  -25.9900 N.4       4 LYS4        0.0000 
     52 NZ         72.5800   31.4600  -25.6600 N.4       4 LYS4        0.0000 
     53 NZ         71.2200   30.9200  -25.3300 N.4       4 LYS4        0.0000 
     54 NZ         71.4600   31.1900  -23.8800 N.4       4 LYS4        0.0000 
     55 NZ         73.4100   30.3600  -24.0500 N.4       4 LYS4        0.0000 
     56 NZ         71.1300   32.8300  -22.5800 N.4       4 LYS4        0.0000 
     57 NZ         74.4300   32.5400  -23.0800 N.4       4 LYS4        0.0000 
     58 NZ         73.0700   32.0000  -22.7500 N.4       4 LYS4        0.0000 
     59 NZ         71.7100   31.4600  -22.4200 N.4       4 LYS4        0.0000 
     60 NZ         72.7300   33.6400  -21.4600 N.4       4 LYS4        0.0000 
     61 CZ         74.8200   27.8800  -22.2800 C.ar      5 PHE5        0.0000 
     62 CZ         76.7700   27.0500  -22.4500 C.ar      5 PHE5        0.0000 
     63 CA         73.8400   26.8000  -28.1000 C.3       6 GLY6        0.0000 
     64 CA         72.3300   31.1900  -27.1200 C.3       6 GLY6        0.0000 
     65 CA         74.2800   30.3500  -27.2900 C.3       6 GLY6        0.0000 
     66 CA         72.9200   29.8100  -26.9600 C.3       6 GLY6        0.0000 
     67 CA         74.8600   28.9800  -27.1300 C.3       6 GLY6        0.0000 
     68 CA         73.5000   28.4400  -26.8000 C.3       6 GLY6        0.0000 
     69 CA         79.5300   29.2300  -27.9600 C.3       6 GLY6        0.0000 
     70 CA         76.8100   28.1500  -27.3100 C.3       6 GLY6        0.0000 
     71 CA         75.4500   27.6100  -26.9800 C.3       6 GLY6        0.0000 
     72 CA         74.0900   27.0700  -26.6500 C.3       6 GLY6        0.0000 
     73 CA         75.1100   29.2500  -25.6800 C.3       6 GLY6        0.0000 
     74 CA         78.4100   28.9600  -26.1800 C.3       6 GLY6        0.0000 
     75 CA         77.0500   28.4200  -25.8500 C.3       6 GLY6        0.0000 
     76 CA         74.3300   27.3400  -25.1900 C.3       6 GLY6        0.0000 
     77 CA         72.9700   26.8000  -24.8600 C.3       6 GLY6        0.0000 
     78 CA         77.3000   28.6900  -24.4000 C.3       6 GLY6        0.0000 
     79 CA         75.9400   28.1500  -24.0700 C.3       6 GLY6        0.0000 
     80 CA         74.5800   27.6100  -23.7400 C.3       6 GLY6        0.0000 
     81 CA         73.2200   27.0700  -23.4100 C.3       6 GLY6        0.0000 
     82 CA         79.2400   27.8600  -24.5700 C.3       6 GLY6        0.0000 
     83 CA         77.8800   27.3200  -24.2400 C.3       6 GLY6        0.0000 
     84 CA         70.1600   27.6300  -21.4500 C.3       6 GLY6        0.0000 
     85 CA         73.4600   27.3400  -21.9500 C.3       6 GLY6        0.0000 
     86 CA         72.1000   26.8000  -21.6200 C.3       6 GLY6        0.0000 
     87 CA         71.1800   29.8200  -20.4800 C.3       6 GLY6        0.0000 
     88 CA         71.4200   30.0900  -19.0300 C.3       6 GLY6        0.0000 
     89 CA         74.7800   26.7800  -17.4300 C.3       6 GLY6        0.0000 
     90 DU         73.1600   30.0800  -25.5100 H         7 CUB7        0.0000 
     91 DU         73.7500   28.7100  -25.3500 H         7 CUB7        0.0000 
     92 DU         73.9900   28.9800  -23.8900 H         7 CUB7        0.0000 
     93 DU         73.6500   30.6300  -22.6000 H         7 CUB7        0.0000 
     94 DU         72.2900   30.0900  -22.2700 H         7 CUB7        0.0000 
     95 DU         75.6000   29.8000  -22.7700 H         7 CUB7        0.0000 
     96 DU         72.8800   28.7100  -22.1100 H         7 CUB7        0.0000 
     97 DU         76.1800   28.4200  -22.6100 H         7 CUB7        0.0000 
     98 DU         74.6700   32.8100  -21.6300 H         7 CUB7        0.0000 
     99 DU         73.3100   32.2700  -21.3000 H         7 CUB7        0.0000 
    100 DU         71.9500   31.7300  -20.9700 H         7 CUB7        0.0000 
    101 DU         72.5400   30.3600  -20.8100 H         7 CUB7        0.0000 
    102 DU         71.7600   28.4400  -20.3200 H         7 CUB7        0.0000 
    103 DU         70.4000   27.9000  -20.0000 H         7 CUB7        0.0000 
    104 DU         75.0700   28.1500  -20.8300 H         7 CUB7        0.0000 
    105 DU         72.3500   27.0700  -20.1700 H         7 CUB7        0.0000 
    106 DU         72.7800   30.6300  -19.3600 H         7 CUB7        0.0000 
    107 DU         72.0100   28.7200  -18.8700 H         7 CUB7        0.0000 
    108 DU         73.9500   27.8800  -19.0400 H         7 CUB7        0.0000 
    109 DU         72.5900   27.3400  -18.7100 H         7 CUB7        0.0000 
    110 DU         71.2300   26.8000  -18.3800 H         7 CUB7        0.0000 
    111 DU         74.2000   28.1500  -17.5900 H         7 CUB7        0.0000 
@<TRIPOS>BOND
@<TRIPOS>SUBSTRUCTURE
     1 SER1        1 GROUP   
     2 ALA2       12 GROUP   
     3 ASP3       36 GROUP   
     4 LYS4       50 GROUP   
     5 PHE5       61 GROUP   
     6 GLY6       63 GROUP   
     7 CUB7       90 GROUP   
@<TRIPOS>SET

