#    Name: 6nxg_2_MYA
#    Modification time : Fri May 22 19:25:01 2020

@<TRIPOS>MOLECULE
6nxg_2_MYA
   63    65     1     0     0
SMALL
NO_CHARGES


@<TRIPOS>ATOM
      1 S1        -33.7270   19.3870  -21.6180 S.3       1 MYA505      0.0000 
      2 C2        -33.4830   17.6410  -21.2140 C.3       1 MYA505      0.0000 
      3 C3        -34.7930   16.9090  -21.3160 C.3       1 MYA505      0.0000 
      4 N4        -34.7020   15.5430  -20.8290 N.am      1 MYA505      0.0000 
      5 C5        -34.4410   14.4880  -21.6130 C.2       1 MYA505      0.0000 
      6 O5        -34.2340   14.6010  -22.8260 O.2       1 MYA505      0.0000 
      7 C6        -34.3620   13.1410  -20.9240 C.3       1 MYA505      0.0000 
      8 C7        -34.9540   11.9960  -21.7280 C.3       1 MYA505      0.0000 
      9 N8        -36.3260   12.2480  -22.1490 N.am      1 MYA505      0.0000 
     10 C9        -37.3370   12.3670  -21.3000 C.2       1 MYA505      0.0000 
     11 O9        -37.2260   12.2060  -20.0870 O.2       1 MYA505      0.0000 
     12 C10       -38.6960   12.6840  -21.9060 C.3       1 MYA505      0.0000 
     13 O10       -38.6560   12.3860  -23.3000 O.3       1 MYA505      0.0000 
     14 C11       -39.1570   14.1370  -21.6940 C.3       1 MYA505      0.0000 
     15 C12       -40.4490   14.3980  -22.4650 C.3       1 MYA505      0.0000 
     16 C13       -38.0790   15.1170  -22.1900 C.3       1 MYA505      0.0000 
     17 C14       -39.4270   14.3790  -20.2010 C.3       1 MYA505      0.0000 
     18 N1A       -38.2940   20.3180  -23.1320 N.ar      1 MYA505      0.0000 
     19 O1A       -45.8610   13.0670  -23.7340 O.co2     1 MYA505      0.0000 
     20 P1A       -44.7840   13.8180  -23.0190 P.3       1 MYA505      0.0000 
     21 C1X       -42.6580   18.4090  -25.1390 C.3       1 MYA505      0.0000 
     22 C2A       -39.5400   20.8070  -23.1930 C.ar      1 MYA505      0.0000 
     23 O2A       -44.7650   13.7340  -21.5350 O.co2     1 MYA505      0.0000 
     24 P2A       -42.2010   12.5080  -23.0590 P.3       1 MYA505      0.0000 
     25 C2M       -34.2730   20.0260  -20.0470 C.2       1 MYA505      0.0000 
     26 O2M       -34.2000   19.4150  -19.0050 O.2       1 MYA505      0.0000 
     27 C2X       -43.1240   17.9760  -26.5230 C.3       1 MYA505      0.0000 
     28 O2X       -42.7730   18.8970  -27.5330 O.3       1 MYA505      0.0000 
     29 N3A       -40.6330   20.2620  -23.7260 N.ar      1 MYA505      0.0000 
     30 O3A       -43.3620   13.4450  -23.6470 O.3       1 MYA505      0.0000 
     31 C3M       -34.9210   21.3810  -20.1220 C.3       1 MYA505      0.0000 
     32 C3X       -44.6300   17.8640  -26.2680 C.3       1 MYA505      0.0000 
     33 O3X       -45.3220   19.1130  -26.2430 O.3       1 MYA505      0.0000 
     34 P3X       -46.0460   19.4780  -27.6540 P.3       1 MYA505      0.0000 
     35 C4A       -40.3630   19.0580  -24.2570 C.ar      1 MYA505      0.0000 
     36 O4A       -41.2760   12.2320  -24.1970 O.co2     1 MYA505      0.0000 
     37 C4M       -36.4000   21.2860  -19.9070 C.3       1 MYA505      0.0000 
     38 C4X       -44.6620   17.2490  -24.8710 C.3       1 MYA505      0.0000 
     39 O4X       -43.4000   17.6120  -24.2440 O.3       1 MYA505      0.0000 
     40 C5A       -39.1330   18.4230  -24.2600 C.ar      1 MYA505      0.0000 
     41 O5A       -42.7950   11.4010  -22.2620 O.co2     1 MYA505      0.0000 
     42 C5M       -37.1630   22.5710  -20.1350 C.3       1 MYA505      0.0000 
     43 C5X       -44.8240   15.7530  -24.8330 C.3       1 MYA505      0.0000 
     44 O5X       -44.8580   15.3520  -23.4530 O.3       1 MYA505      0.0000 
     45 C6A       -38.0470   19.0990  -23.6640 C.ar      1 MYA505      0.0000 
     46 N6A       -36.8040   18.6140  -23.6030 N.pl3     1 MYA505      0.0000 
     47 O6A       -41.4530   13.4580  -22.0030 O.3       1 MYA505      0.0000 
     48 C6M       -38.6480   22.4210  -19.9050 C.3       1 MYA505      0.0000 
     49 N7A       -39.2290   17.1900  -24.8940 N.2       1 MYA505      0.0000 
     50 O7A       -47.2000   18.5020  -27.7820 O.co2     1 MYA505      0.0000 
     51 C7M       -39.4720   23.6450  -20.2010 C.3       1 MYA505      0.0000 
     52 C8A       -40.4870   17.1050  -25.2510 C.2       1 MYA505      0.0000 
     53 O8A       -45.0330   19.2920  -28.7750 O.co2     1 MYA505      0.0000 
     54 C8M       -39.3250   24.7430  -19.1990 C.3       1 MYA505      0.0000 
     55 N9A       -41.2340   18.2010  -24.8920 N.pl3     1 MYA505      0.0000 
     56 O9A       -46.5020   20.9120  -27.5420 O.co2     1 MYA505      0.0000 
     57 C9M       -40.1720   25.9580  -19.4870 C.3       1 MYA505      0.0000 
     58 CAM       -40.0880   27.0290  -18.4270 C.3       1 MYA505      0.0000 
     59 CBM       -40.8670   26.7090  -17.1740 C.3       1 MYA505      0.0000 
     60 CCM       -40.7380   27.7210  -16.0640 C.3       1 MYA505      0.0000 
     61 CDM       -41.3710   29.0620  -16.3510 C.3       1 MYA505      0.0000 
     62 CEM       -41.2480   30.0580  -15.2290 C.3       1 MYA505      0.0000 
     63 CFM       -41.7430   31.4530  -15.5450 C.3       1 MYA505      0.0000 
@<TRIPOS>BOND
     1    1    2 1    
     2    1   25 1    
     3    2    3 1    
     4    3    4 1    
     5    4    5 am   
     6    5    6 2    
     7    5    7 1    
     8    7    8 1    
     9    8    9 1    
    10    9   10 am   
    11   10   11 2    
    12   10   12 1    
    13   12   13 1    
    14   12   14 1    
    15   14   15 1    
    16   14   16 1    
    17   14   17 1    
    18   15   47 1    
    19   18   22 ar   
    20   18   45 ar   
    21   19   20 ar   
    22   20   23 ar   
    23   20   30 1    
    24   20   44 1    
    25   21   27 1    
    26   21   39 1    
    27   21   55 1    
    28   22   29 ar   
    29   24   30 1    
    30   24   36 ar   
    31   24   41 ar   
    32   24   47 1    
    33   25   26 2    
    34   25   31 1    
    35   27   28 1    
    36   27   32 1    
    37   29   35 ar   
    38   31   37 1    
    39   32   33 1    
    40   32   38 1    
    41   33   34 1    
    42   34   50 ar   
    43   34   53 ar   
    44   34   56 ar   
    45   35   40 ar   
    46   35   55 1    
    47   37   42 1    
    48   38   39 1    
    49   38   43 1    
    50   40   45 ar   
    51   40   49 1    
    52   42   48 1    
    53   43   44 1    
    54   45   46 1    
    55   48   51 1    
    56   49   52 2    
    57   51   54 1    
    58   52   55 1    
    59   54   57 1    
    60   57   58 1    
    61   58   59 1    
    62   59   60 1    
    63   60   61 1    
    64   61   62 1    
    65   62   63 1    
@<TRIPOS>SUBSTRUCTURE
     1 MYA505      1 GROUP   
@<TRIPOS>SET

