#    Name: 6nxg_3_MYA
#    Modification time : Fri May 22 19:25:07 2020

@<TRIPOS>MOLECULE
6nxg_3_MYA
   63    65     1     0     0
SMALL
NO_CHARGES


@<TRIPOS>ATOM
      1 S1         -5.7510   39.7800  -54.4620 S.3       1 MYA504      0.0000 
      2 C2         -5.9790   39.3840  -56.2140 C.3       1 MYA504      0.0000 
      3 C3         -4.6680   38.9960  -56.8260 C.3       1 MYA504      0.0000 
      4 N4         -4.7650   38.7900  -58.2620 N.am      1 MYA504      0.0000 
      5 C5         -5.0640   37.6170  -58.8290 C.2       1 MYA504      0.0000 
      6 O5         -5.2730   36.5890  -58.1750 O.2       1 MYA504      0.0000 
      7 C6         -5.1520   37.6210  -60.3410 C.3       1 MYA504      0.0000 
      8 C7         -4.5680   36.3780  -60.9760 C.3       1 MYA504      0.0000 
      9 N8         -3.1920   36.1340  -60.5640 N.am      1 MYA504      0.0000 
     10 C9         -2.1810   36.9340  -60.8750 C.2       1 MYA504      0.0000 
     11 O9         -2.2950   37.9570  -61.5540 O.2       1 MYA504      0.0000 
     12 C10        -0.8210   36.5230  -60.3420 C.3       1 MYA504      0.0000 
     13 O10        -0.8530   35.1480  -59.9890 O.3       1 MYA504      0.0000 
     14 C11        -0.3660   37.3710  -59.1440 C.3       1 MYA504      0.0000 
     15 C12         0.9200   36.8040  -58.5530 C.3       1 MYA504      0.0000 
     16 C13        -1.4510   37.3840  -58.0540 C.3       1 MYA504      0.0000 
     17 C14        -0.1070   38.8060  -59.6190 C.3       1 MYA504      0.0000 
     18 N1A        -1.1950   38.8440  -52.9450 N.ar      1 MYA504      0.0000 
     19 O1A         6.3030   34.9940  -59.1550 O.co2     1 MYA504      0.0000 
     20 P1A         5.2680   36.0180  -58.8160 P.3       1 MYA504      0.0000 
     21 C1X         3.1770   36.2090  -53.7410 C.3       1 MYA504      0.0000 
     22 C2A         0.0460   39.0120  -52.4680 C.ar      1 MYA504      0.0000 
     23 O2A         5.2520   37.2740  -59.6040 O.co2     1 MYA504      0.0000 
     24 P2A         2.6750   35.4050  -59.9870 P.3       1 MYA504      0.0000 
     25 C2M        -5.2030   41.4610  -54.5420 C.2       1 MYA504      0.0000 
     26 O2M        -5.2690   42.1510  -55.5320 O.2       1 MYA504      0.0000 
     27 C2X         3.6350   34.7730  -53.5310 C.3       1 MYA504      0.0000 
     28 O2X         3.2940   34.3060  -52.2420 O.3       1 MYA504      0.0000 
     29 N3A         1.1420   38.2990  -52.7080 N.ar      1 MYA504      0.0000 
     30 O3A         3.8300   35.3240  -58.8830 O.3       1 MYA504      0.0000 
     31 C3M        -4.5570   41.9460  -53.2790 C.3       1 MYA504      0.0000 
     32 C3X         5.1370   34.9210  -53.7710 C.3       1 MYA504      0.0000 
     33 O3X         5.8290   35.4490  -52.6440 O.3       1 MYA504      0.0000 
     34 P3X         6.5730   34.3460  -51.7090 P.3       1 MYA504      0.0000 
     35 C4A         0.8790   37.2830  -53.5490 C.ar      1 MYA504      0.0000 
     36 O4A         1.7420   34.2670  -59.7220 O.co2     1 MYA504      0.0000 
     37 C4M        -3.0800   42.1350  -53.4930 C.3       1 MYA504      0.0000 
     38 C4X         5.1730   35.9330  -54.9120 C.3       1 MYA504      0.0000 
     39 O4X         3.9180   36.6660  -54.8510 O.3       1 MYA504      0.0000 
     40 C5A        -0.3450   36.9850  -54.1160 C.ar      1 MYA504      0.0000 
     41 O5A         3.2740   35.5940  -61.3410 O.co2     1 MYA504      0.0000 
     42 C5M        -2.3200   42.5550  -52.2560 C.3       1 MYA504      0.0000 
     43 C5X         5.3300   35.3160  -56.2790 C.3       1 MYA504      0.0000 
     44 O5X         5.3350   36.3630  -57.2610 O.3       1 MYA504      0.0000 
     45 C6A        -1.4340   37.8090  -53.7840 C.ar      1 MYA504      0.0000 
     46 N6A        -2.6630   37.6330  -54.2650 N.pl3     1 MYA504      0.0000 
     47 O6A         1.9340   36.7810  -59.5980 O.3       1 MYA504      0.0000 
     48 C6M        -0.8230   42.6230  -52.4690 C.3       1 MYA504      0.0000 
     49 N7A        -0.2480   35.8700  -54.9320 N.2       1 MYA504      0.0000 
     50 O7A         7.7230   33.7510  -52.5260 O.co2     1 MYA504      0.0000 
     51 C7M        -0.0240   42.8980  -51.2140 C.3       1 MYA504      0.0000 
     52 C8A         1.0130   35.5230  -54.8510 C.2       1 MYA504      0.0000 
     53 O8A         5.5450   33.2940  -51.3140 O.co2     1 MYA504      0.0000 
     54 C8M        -0.0890   44.3300  -50.7330 C.3       1 MYA504      0.0000 
     55 N9A         1.7540   36.3340  -54.0260 N.pl3     1 MYA504      0.0000 
     56 O9A         7.0640   35.1420  -50.5210 O.co2     1 MYA504      0.0000 
     57 C9M         0.7040   44.6060  -49.4660 C.3       1 MYA504      0.0000 
     58 CAM         0.6110   46.0390  -48.9660 C.3       1 MYA504      0.0000 
     59 CBM         1.4110   47.0220  -49.7880 C.3       1 MYA504      0.0000 
     60 CCM         1.3150   48.4630  -49.3460 C.3       1 MYA504      0.0000 
     61 CDM         1.9780   48.7660  -48.0240 C.3       1 MYA504      0.0000 
     62 CEM         1.8980   50.2240  -47.6620 C.3       1 MYA504      0.0000 
     63 CFM         2.3070   50.5370  -46.2440 C.3       1 MYA504      0.0000 
@<TRIPOS>BOND
     1    1    2 1    
     2    1   25 1    
     3    2    3 1    
     4    3    4 1    
     5    4    5 am   
     6    5    6 2    
     7    5    7 1    
     8    7    8 1    
     9    8    9 1    
    10    9   10 am   
    11   10   11 2    
    12   10   12 1    
    13   12   13 1    
    14   12   14 1    
    15   14   15 1    
    16   14   16 1    
    17   14   17 1    
    18   15   47 1    
    19   18   22 ar   
    20   18   45 ar   
    21   19   20 ar   
    22   20   23 ar   
    23   20   30 1    
    24   20   44 1    
    25   21   27 1    
    26   21   39 1    
    27   21   55 1    
    28   22   29 ar   
    29   24   30 1    
    30   24   36 ar   
    31   24   41 ar   
    32   24   47 1    
    33   25   26 2    
    34   25   31 1    
    35   27   28 1    
    36   27   32 1    
    37   29   35 ar   
    38   31   37 1    
    39   32   33 1    
    40   32   38 1    
    41   33   34 1    
    42   34   50 ar   
    43   34   53 ar   
    44   34   56 ar   
    45   35   40 ar   
    46   35   55 1    
    47   37   42 1    
    48   38   39 1    
    49   38   43 1    
    50   40   45 ar   
    51   40   49 1    
    52   42   48 1    
    53   43   44 1    
    54   45   46 1    
    55   48   51 1    
    56   49   52 2    
    57   51   54 1    
    58   52   55 1    
    59   54   57 1    
    60   57   58 1    
    61   58   59 1    
    62   59   60 1    
    63   60   61 1    
    64   61   62 1    
    65   62   63 1    
@<TRIPOS>SUBSTRUCTURE
     1 MYA504      1 GROUP   
@<TRIPOS>SET

