#    Name: 6nxg_4_MYA
#    Modification time : Fri May 22 19:25:15 2020

@<TRIPOS>MOLECULE
6nxg_4_MYA
   63    65     1     0     0
SMALL
NO_CHARGES


@<TRIPOS>ATOM
      1 S1        -12.4840   70.6620   -3.5760 S.3       1 MYA501      0.0000 
      2 C2        -12.2940   72.0010   -2.3680 C.3       1 MYA501      0.0000 
      3 C3        -13.6190   72.3500   -1.7400 C.3       1 MYA501      0.0000 
      4 N4        -13.5390   73.5280   -0.8890 N.am      1 MYA501      0.0000 
      5 C5        -13.2710   73.4910    0.4240 C.2       1 MYA501      0.0000 
      6 O5        -13.1060   72.4270    1.0370 O.2       1 MYA501      0.0000 
      7 C6        -13.1610   74.8320    1.1200 C.3       1 MYA501      0.0000 
      8 C7        -13.7770   74.8500    2.5050 C.3       1 MYA501      0.0000 
      9 N8        -15.1410   74.3370    2.5180 N.am      1 MYA501      0.0000 
     10 C9        -16.1670   74.9660    1.9580 C.2       1 MYA501      0.0000 
     11 O9        -16.0640   76.0580    1.3990 O.2       1 MYA501      0.0000 
     12 C10       -17.5130   74.2750    2.0610 C.3       1 MYA501      0.0000 
     13 O10       -17.4400   73.2890    3.0980 O.3       1 MYA501      0.0000 
     14 C11       -17.9850   73.6310    0.7420 C.3       1 MYA501      0.0000 
     15 C12       -19.2660   72.8340    0.9660 C.3       1 MYA501      0.0000 
     16 C13       -16.9110   72.6800    0.1870 C.3       1 MYA501      0.0000 
     17 C14       -18.2760   74.7350   -0.2860 C.3       1 MYA501      0.0000 
     18 N1A       -17.0620   68.8350   -3.4770 N.ar      1 MYA501      0.0000 
     19 O1A       -24.6480   72.5060    2.8490 O.co2     1 MYA501      0.0000 
     20 P1A       -23.6040   72.7050    1.7940 P.3       1 MYA501      0.0000 
     21 C1X       -21.4400   68.3740   -0.7970 C.3       1 MYA501      0.0000 
     22 C2A       -18.3080   68.5050   -3.8390 C.ar      1 MYA501      0.0000 
     23 O2A       -23.5720   73.9910    1.0400 O.co2     1 MYA501      0.0000 
     24 P2A       -20.9790   73.4000    2.8890 P.3       1 MYA501      0.0000 
     25 C2M       -13.0530   71.5590   -5.0020 C.2       1 MYA501      0.0000 
     26 O2M       -12.9910   72.7590   -5.1060 O.2       1 MYA501      0.0000 
     27 C2X       -21.9220   67.4820    0.3380 C.3       1 MYA501      0.0000 
     28 O2X       -21.5830   66.1280    0.1190 O.3       1 MYA501      0.0000 
     29 N3A       -19.3980   68.3840   -3.0850 N.ar      1 MYA501      0.0000 
     30 O3A       -22.1610   72.4190    2.4300 O.3       1 MYA501      0.0000 
     31 C3M       -13.6960   70.6990   -6.0560 C.3       1 MYA501      0.0000 
     32 C3X       -23.4300   67.7590    0.2930 C.3       1 MYA501      0.0000 
     33 O3X       -24.1150   67.0320   -0.7230 O.3       1 MYA501      0.0000 
     34 P3X       -24.8770   65.6840   -0.2000 P.3       1 MYA501      0.0000 
     35 C4A       -19.1350   68.6860   -1.8060 C.ar      1 MYA501      0.0000 
     36 O4A       -20.0730   72.6130    3.7750 O.co2     1 MYA501      0.0000 
     37 C4M       -15.1670   70.9630   -6.1260 C.3       1 MYA501      0.0000 
     38 C4X       -23.4700   69.2510   -0.0300 C.3       1 MYA501      0.0000 
     39 O4X       -22.1970   69.5540   -0.6650 O.3       1 MYA501      0.0000 
     40 C5A       -17.9080   69.0490   -1.2860 C.ar      1 MYA501      0.0000 
     41 O5A       -21.5650   74.6750    3.3930 O.co2     1 MYA501      0.0000 
     42 C5M       -15.9470   70.0210   -7.0170 C.3       1 MYA501      0.0000 
     43 C5X       -23.6470   70.1390    1.1770 C.3       1 MYA501      0.0000 
     44 O5X       -23.6930   71.5110    0.7360 O.3       1 MYA501      0.0000 
     45 C6A       -16.8220   69.1270   -2.1780 C.ar      1 MYA501      0.0000 
     46 N6A       -15.5860   69.4620   -1.8150 N.pl3     1 MYA501      0.0000 
     47 O6A       -20.2720   73.7370    1.4900 O.3       1 MYA501      0.0000 
     48 C6M       -17.4400   70.2930   -6.9870 C.3       1 MYA501      0.0000 
     49 N7A       -18.0130   69.2890    0.0750 N.2       1 MYA501      0.0000 
     50 O7A       -25.9770   66.1310    0.7660 O.co2     1 MYA501      0.0000 
     51 C7M       -18.2760   69.3320   -7.7890 C.3       1 MYA501      0.0000 
     52 C8A       -19.2790   69.0720    0.3420 C.2       1 MYA501      0.0000 
     53 O8A       -23.8340   64.8060    0.4900 O.co2     1 MYA501      0.0000 
     54 C8M       -18.2340   69.5740   -9.2750 C.3       1 MYA501      0.0000 
     55 N9A       -20.0160   68.6950   -0.7510 N.pl3     1 MYA501      0.0000 
     56 O9A       -25.4190   65.0620   -1.4400 O.co2     1 MYA501      0.0000 
     57 C9M       -19.0240   68.5710  -10.0980 C.3       1 MYA501      0.0000 
     58 CAM       -18.9500   68.7940  -11.5880 C.3       1 MYA501      0.0000 
     59 CBM       -19.7330   69.9980  -12.0600 C.3       1 MYA501      0.0000 
     60 CCM       -19.6400   70.2690  -13.5400 C.3       1 MYA501      0.0000 
     61 CDM       -20.2900   69.2390  -14.4330 C.3       1 MYA501      0.0000 
     62 CEM       -20.1860   69.5890  -15.8980 C.3       1 MYA501      0.0000 
     63 CFM       -20.7500   68.5700  -16.8530 C.3       1 MYA501      0.0000 
@<TRIPOS>BOND
     1    1    2 1    
     2    1   25 1    
     3    2    3 1    
     4    3    4 1    
     5    4    5 am   
     6    5    6 2    
     7    5    7 1    
     8    7    8 1    
     9    8    9 1    
    10    9   10 am   
    11   10   11 2    
    12   10   12 1    
    13   12   13 1    
    14   12   14 1    
    15   14   15 1    
    16   14   16 1    
    17   14   17 1    
    18   15   47 1    
    19   18   22 ar   
    20   18   45 ar   
    21   19   20 ar   
    22   20   23 ar   
    23   20   30 1    
    24   20   44 1    
    25   21   27 1    
    26   21   39 1    
    27   21   55 1    
    28   22   29 ar   
    29   24   30 1    
    30   24   36 ar   
    31   24   41 ar   
    32   24   47 1    
    33   25   26 2    
    34   25   31 1    
    35   27   28 1    
    36   27   32 1    
    37   29   35 ar   
    38   31   37 1    
    39   32   33 1    
    40   32   38 1    
    41   33   34 1    
    42   34   50 ar   
    43   34   53 ar   
    44   34   56 ar   
    45   35   40 ar   
    46   35   55 1    
    47   37   42 1    
    48   38   39 1    
    49   38   43 1    
    50   40   45 ar   
    51   40   49 1    
    52   42   48 1    
    53   43   44 1    
    54   45   46 1    
    55   48   51 1    
    56   49   52 2    
    57   51   54 1    
    58   52   55 1    
    59   54   57 1    
    60   57   58 1    
    61   58   59 1    
    62   59   60 1    
    63   60   61 1    
    64   61   62 1    
    65   62   63 1    
@<TRIPOS>SUBSTRUCTURE
     1 MYA501      1 GROUP   
@<TRIPOS>SET

