#    Name: 6n7l_11_NAD
#    Modification time : Fri May 22 19:32:45 2020

@<TRIPOS>MOLECULE
6n7l_11_NAD
   44    48     1     0     1
SMALL
NO_CHARGES


@<TRIPOS>ATOM
      1 PA         28.7500   11.6720   96.7030 P.3       1 NAD402      0.0000 
      2 O1A        29.6820   12.6740   97.2850 O.co2     1 NAD402      0.0000 
      3 O2A        28.8760   11.6320   95.2000 O.co2     1 NAD402      0.0000 
      4 O5B        29.0970   10.2240   97.3030 O.3       1 NAD402      0.0000 
      5 C5B        28.4590    9.0020   96.8780 C.3       1 NAD402      0.0000 
      6 C4B        29.3220    7.8570   97.3430 C.3       1 NAD402      0.0000 
      7 O4B        28.6660    6.5950   97.0860 O.3       1 NAD402      0.0000 
      8 C3B        30.7110    7.7590   96.6900 C.3       1 NAD402      0.0000 
      9 O3B        31.7070    7.6460   97.6990 O.3       1 NAD402      0.0000 
     10 C2B        30.6230    6.4670   95.8670 C.3       1 NAD402      0.0000 
     11 O2B        31.8840    5.8170   95.7430 O.3       1 NAD402      0.0000 
     12 C1B        29.6720    5.6700   96.7480 C.3       1 NAD402      0.0000 
     13 N9A        29.0670    4.4810   96.1340 N.pl3     1 NAD402      0.0000 
     14 C8A        28.7330    4.3060   94.8150 C.2       1 NAD402      0.0000 
     15 N7A        28.2950    3.0950   94.5520 N.2       1 NAD402      0.0000 
     16 C5A        28.3410    2.4420   95.7640 C.ar      1 NAD402      0.0000 
     17 C6A        28.0240    1.1280   96.1590 C.ar      1 NAD402      0.0000 
     18 N6A        27.6000    0.1830   95.3100 N.pl3     1 NAD402      0.0000 
     19 N1A        28.1780    0.8000   97.4600 N.ar      1 NAD402      0.0000 
     20 C2A        28.6220    1.7320   98.3080 C.ar      1 NAD402      0.0000 
     21 N3A        28.9610    2.9990   98.0560 N.ar      1 NAD402      0.0000 
     22 C4A        28.8060    3.2960   96.7630 C.ar      1 NAD402      0.0000 
     23 O3         27.2370   12.0680   97.0080 O.3       1 NAD402      0.0000 
     24 PN         26.6060   12.7460   98.3100 P.3       1 NAD402      0.0000 
     25 O1N        26.6520   14.2200   98.1740 O.co2     1 NAD402      0.0000 
     26 O2N        27.2180   12.0890   99.4860 O.co2     1 NAD402      0.0000 
     27 O5D        25.0780   12.2940   98.2300 O.3       1 NAD402      0.0000 
     28 C5D        24.7870   10.8820   98.1420 C.3       1 NAD402      0.0000 
     29 C4D        23.3240   10.6730   97.8380 C.3       1 NAD402      0.0000 
     30 O4D        22.5060   11.1350   98.9410 O.3       1 NAD402      0.0000 
     31 C3D        22.8060   11.4030   96.5920 C.3       1 NAD402      0.0000 
     32 O3D        21.8690   10.5870   95.8970 O.3       1 NAD402      0.0000 
     33 C2D        22.1150   12.6240   97.1910 C.3       1 NAD402      0.0000 
     34 O2D        21.1130   13.1670   96.3460 O.3       1 NAD402      0.0000 
     35 C1D        21.5210   12.0030   98.4500 C.3       1 NAD402      0.0000 
     36 N1N        21.1700   12.9970   99.5430 N.pl3     1 NAD402      0.0000 
     37 C2N        20.0460   12.7340  100.2320 C.ar      1 NAD402      0.0000 
     38 C3N        19.6600   13.5590  101.2740 C.ar      1 NAD402      0.0000 
     39 C7N        18.4590   13.2290  102.1260 C.2       1 NAD402      0.0000 
     40 O7N        18.0370   14.0680  102.9370 O.2       1 NAD402      0.0000 
     41 N7N        17.8470   12.0640  101.9200 N.am      1 NAD402      0.0000 
     42 C4N        20.4510   14.6660  101.5750 C.ar      1 NAD402      0.0000 
     43 C5N        21.6020   14.9120  100.8530 C.ar      1 NAD402      0.0000 
     44 C6N        21.9520   14.0610   99.8260 C.ar      1 NAD402      0.0000 
@<TRIPOS>BOND
     1    1    2 ar   
     2    1    3 ar   
     3    1    4 1    
     4    1   23 1    
     5    4    5 1    
     6    5    6 1    
     7    6    7 1    
     8    6    8 1    
     9    7   12 1    
    10    8    9 1    
    11    8   10 1    
    12   10   11 1    
    13   10   12 1    
    14   12   13 1    
    15   13   14 1    
    16   13   22 1    
    17   14   15 2    
    18   15   16 1    
    19   16   17 ar   
    20   16   22 ar   
    21   17   18 1    
    22   17   19 ar   
    23   19   20 ar   
    24   20   21 ar   
    25   21   22 ar   
    26   23   24 1    
    27   24   25 ar   
    28   24   26 ar   
    29   24   27 1    
    30   27   28 1    
    31   28   29 1    
    32   29   30 1    
    33   29   31 1    
    34   30   35 1    
    35   31   32 1    
    36   31   33 1    
    37   33   34 1    
    38   33   35 1    
    39   35   36 1    
    40   36   37 ar   
    41   36   44 ar   
    42   37   38 ar   
    43   38   39 1    
    44   38   42 ar   
    45   39   40 2    
    46   39   41 am   
    47   42   43 ar   
    48   43   44 ar   
@<TRIPOS>SUBSTRUCTURE
     1 NAD402      1 GROUP   
@<TRIPOS>SET
ATOM$ORANGE STATIC     ATOMS   COLORGROUP SYSTEM 
42 5 5 6 6 8 8 10 10 12 12 14 14 16 16 17 17 20 \
20 22 22 28 28 29 29 31 31 33 33 35 35 37 37 38 38 39 \
39 42 42 43 43 44 44 

