#    Name: 6n7l_8_NAD
#    Modification time : Fri May 22 19:32:21 2020

@<TRIPOS>MOLECULE
6n7l_8_NAD
   44    48     1     0     1
SMALL
NO_CHARGES


@<TRIPOS>ATOM
      1 PA        -17.6950   43.0400  -24.3390 P.3       1 NAD703      0.0000 
      2 O1A       -19.0670   42.5280  -24.0790 O.co2     1 NAD703      0.0000 
      3 O2A       -17.5650   43.6350  -25.7430 O.co2     1 NAD703      0.0000 
      4 O5B       -17.3030   44.1360  -23.2660 O.3       1 NAD703      0.0000 
      5 C5B       -16.1690   45.0060  -23.4070 C.3       1 NAD703      0.0000 
      6 C4B       -16.3900   46.1030  -22.4020 C.3       1 NAD703      0.0000 
      7 O4B       -15.1550   46.8210  -22.1760 O.3       1 NAD703      0.0000 
      8 C3B       -17.4410   47.1530  -22.7990 C.3       1 NAD703      0.0000 
      9 O3B       -18.3750   47.3590  -21.7410 O.3       1 NAD703      0.0000 
     10 C2B       -16.5970   48.4090  -23.0480 C.3       1 NAD703      0.0000 
     11 O2B       -17.3030   49.6160  -22.7820 O.3       1 NAD703      0.0000 
     12 C1B       -15.4780   48.1840  -22.0350 C.3       1 NAD703      0.0000 
     13 N9A       -14.2830   48.9970  -22.2430 N.pl3     1 NAD703      0.0000 
     14 C8A       -13.7340   49.3680  -23.4430 C.2       1 NAD703      0.0000 
     15 N7A       -12.7550   50.2360  -23.3380 N.2       1 NAD703      0.0000 
     16 C5A       -12.6410   50.4390  -21.9720 C.ar      1 NAD703      0.0000 
     17 C6A       -11.7850   51.2480  -21.1990 C.ar      1 NAD703      0.0000 
     18 N6A       -10.8800   52.0880  -21.7200 N.pl3     1 NAD703      0.0000 
     19 N1A       -11.9120   51.1940  -19.8550 N.ar      1 NAD703      0.0000 
     20 C2A       -12.8430   50.3920  -19.3280 C.ar      1 NAD703      0.0000 
     21 N3A       -13.7150   49.5950  -19.9530 N.ar      1 NAD703      0.0000 
     22 C4A       -13.5660   49.6690  -21.2810 C.ar      1 NAD703      0.0000 
     23 O3        -16.6690   41.8220  -24.2540 O.3       1 NAD703      0.0000 
     24 PN        -16.7150   40.4900  -23.3690 P.3       1 NAD703      0.0000 
     25 O1N       -17.4600   39.4090  -24.0580 O.co2     1 NAD703      0.0000 
     26 O2N       -17.1020   40.8870  -21.9950 O.co2     1 NAD703      0.0000 
     27 O5D       -15.1670   40.0790  -23.3870 O.3       1 NAD703      0.0000 
     28 C5D       -14.1530   41.0340  -23.0120 C.3       1 NAD703      0.0000 
     29 C4D       -12.7740   40.5340  -23.3760 C.3       1 NAD703      0.0000 
     30 O4D       -12.4370   39.3600  -22.5960 O.3       1 NAD703      0.0000 
     31 C3D       -12.5900   40.1340  -24.8440 C.3       1 NAD703      0.0000 
     32 O3D       -11.2970   40.5120  -25.3000 O.3       1 NAD703      0.0000 
     33 C2D       -12.7430   38.6180  -24.7930 C.3       1 NAD703      0.0000 
     34 O2D       -12.1340   37.9760  -25.9060 O.3       1 NAD703      0.0000 
     35 C1D       -12.0490   38.3280  -23.4630 C.3       1 NAD703      0.0000 
     36 N1N       -12.4190   36.9840  -22.8170 N.pl3     1 NAD703      0.0000 
     37 C2N       -11.4220   36.3950  -22.1360 C.ar      1 NAD703      0.0000 
     38 C3N       -11.6310   35.1840  -21.5020 C.ar      1 NAD703      0.0000 
     39 C7N       -10.5760   34.6100  -20.6020 C.2       1 NAD703      0.0000 
     40 O7N       -10.7120   33.4520  -20.1600 O.2       1 NAD703      0.0000 
     41 N7N        -9.4990   35.3580  -20.3450 N.am      1 NAD703      0.0000 
     42 C4N       -12.8860   34.5910  -21.5980 C.ar      1 NAD703      0.0000 
     43 C5N       -13.9000   35.2260  -22.2910 C.ar      1 NAD703      0.0000 
     44 C6N       -13.6480   36.4340  -22.9020 C.ar      1 NAD703      0.0000 
@<TRIPOS>BOND
     1    1    2 ar   
     2    1    3 ar   
     3    1    4 1    
     4    1   23 1    
     5    4    5 1    
     6    5    6 1    
     7    6    7 1    
     8    6    8 1    
     9    7   12 1    
    10    8    9 1    
    11    8   10 1    
    12   10   11 1    
    13   10   12 1    
    14   12   13 1    
    15   13   14 1    
    16   13   22 1    
    17   14   15 2    
    18   15   16 1    
    19   16   17 ar   
    20   16   22 ar   
    21   17   18 1    
    22   17   19 ar   
    23   19   20 ar   
    24   20   21 ar   
    25   21   22 ar   
    26   23   24 1    
    27   24   25 ar   
    28   24   26 ar   
    29   24   27 1    
    30   27   28 1    
    31   28   29 1    
    32   29   30 1    
    33   29   31 1    
    34   30   35 1    
    35   31   32 1    
    36   31   33 1    
    37   33   34 1    
    38   33   35 1    
    39   35   36 1    
    40   36   37 ar   
    41   36   44 ar   
    42   37   38 ar   
    43   38   39 1    
    44   38   42 ar   
    45   39   40 2    
    46   39   41 am   
    47   42   43 ar   
    48   43   44 ar   
@<TRIPOS>SUBSTRUCTURE
     1 NAD703      1 GROUP   
@<TRIPOS>SET
ATOM$ORANGE STATIC     ATOMS   COLORGROUP SYSTEM 
42 5 5 6 6 8 8 10 10 12 12 14 14 16 16 17 17 20 \
20 22 22 28 28 29 29 31 31 33 33 35 35 37 37 38 38 39 \
39 42 42 43 43 44 44 

