#    Name: 6n7l_2_NAD
#    Modification time : Fri May 22 19:31:55 2020

@<TRIPOS>MOLECULE
6n7l_2_NAD
   44    48     1     0     1
SMALL
NO_CHARGES


@<TRIPOS>ATOM
      1 PA         24.6520   13.6840   37.8890 P.3       1 NAD402      0.0000 
      2 O1A        25.7430   13.9880   38.8640 O.co2     1 NAD402      0.0000 
      3 O2A        24.8050   14.4050   36.5590 O.co2     1 NAD402      0.0000 
      4 O5B        24.5450   12.1090   37.6250 O.3       1 NAD402      0.0000 
      5 C5B        23.6860   11.5100   36.6350 C.3       1 NAD402      0.0000 
      6 C4B        24.2190   10.1150   36.4310 C.3       1 NAD402      0.0000 
      7 O4B        23.2950    9.3280   35.6540 O.3       1 NAD402      0.0000 
      8 C3B        25.5760   10.0200   35.7180 C.3       1 NAD402      0.0000 
      9 O3B        26.4440    9.1890   36.4860 O.3       1 NAD402      0.0000 
     10 C2B        25.2180    9.3590   34.3820 C.3       1 NAD402      0.0000 
     11 O2B        26.2730    8.5550   33.8690 O.3       1 NAD402      0.0000 
     12 C1B        24.0540    8.4860   34.8250 C.3       1 NAD402      0.0000 
     13 N9A        23.2100    7.9800   33.7480 N.pl3     1 NAD402      0.0000 
     14 C8A        22.9190    8.5960   32.5590 C.2       1 NAD402      0.0000 
     15 N7A        22.2170    7.8580   31.7320 N.2       1 NAD402      0.0000 
     16 C5A        22.0310    6.6710   32.4270 C.ar      1 NAD402      0.0000 
     17 C6A        21.3740    5.4710   32.0990 C.ar      1 NAD402      0.0000 
     18 N6A        20.8100    5.2260   30.9030 N.pl3     1 NAD402      0.0000 
     19 N1A        21.3350    4.4990   33.0400 N.ar      1 NAD402      0.0000 
     20 C2A        21.9270    4.7170   34.2170 C.ar      1 NAD402      0.0000 
     21 N3A        22.6000    5.7950   34.6290 N.ar      1 NAD402      0.0000 
     22 C4A        22.6210    6.7400   33.6810 C.ar      1 NAD402      0.0000 
     23 O3         23.2580   14.1690   38.4890 O.3       1 NAD402      0.0000 
     24 PN         22.7400   14.2560   39.9970 P.3       1 NAD402      0.0000 
     25 O1N        23.1630   15.5440   40.5920 O.co2     1 NAD402      0.0000 
     26 O2N        23.1280   12.9960   40.6670 O.co2     1 NAD402      0.0000 
     27 O5D        21.1560   14.2930   39.7700 O.3       1 NAD402      0.0000 
     28 C5D        20.5250   13.3280   38.8990 C.3       1 NAD402      0.0000 
     29 C4D        19.0550   13.6370   38.7230 C.3       1 NAD402      0.0000 
     30 O4D        18.3840   13.6640   40.0080 O.3       1 NAD402      0.0000 
     31 C3D        18.7430   14.9830   38.0530 C.3       1 NAD402      0.0000 
     32 O3D        17.6300   14.8350   37.1800 O.3       1 NAD402      0.0000 
     33 C2D        18.3970   15.8730   39.2430 C.3       1 NAD402      0.0000 
     34 O2D        17.5910   16.9910   38.8860 O.3       1 NAD402      0.0000 
     35 C1D        17.6460   14.8600   40.1000 C.3       1 NAD402      0.0000 
     36 N1N        17.4960   15.2320   41.5770 N.pl3     1 NAD402      0.0000 
     37 C2N        16.3240   14.8890   42.1380 C.ar      1 NAD402      0.0000 
     38 C3N        16.0970   15.1330   43.4810 C.ar      1 NAD402      0.0000 
     39 C7N        14.8360   14.6560   44.1470 C.2       1 NAD402      0.0000 
     40 O7N        14.5790   15.0300   45.3040 O.2       1 NAD402      0.0000 
     41 N7N        14.0050   13.8890   43.4370 N.am      1 NAD402      0.0000 
     42 C4N        17.1040   15.7370   44.2260 C.ar      1 NAD402      0.0000 
     43 C5N        18.3060   16.0650   43.6270 C.ar      1 NAD402      0.0000 
     44 C6N        18.4850   15.8140   42.2850 C.ar      1 NAD402      0.0000 
@<TRIPOS>BOND
     1    1    2 ar   
     2    1    3 ar   
     3    1    4 1    
     4    1   23 1    
     5    4    5 1    
     6    5    6 1    
     7    6    7 1    
     8    6    8 1    
     9    7   12 1    
    10    8    9 1    
    11    8   10 1    
    12   10   11 1    
    13   10   12 1    
    14   12   13 1    
    15   13   14 1    
    16   13   22 1    
    17   14   15 2    
    18   15   16 1    
    19   16   17 ar   
    20   16   22 ar   
    21   17   18 1    
    22   17   19 ar   
    23   19   20 ar   
    24   20   21 ar   
    25   21   22 ar   
    26   23   24 1    
    27   24   25 ar   
    28   24   26 ar   
    29   24   27 1    
    30   27   28 1    
    31   28   29 1    
    32   29   30 1    
    33   29   31 1    
    34   30   35 1    
    35   31   32 1    
    36   31   33 1    
    37   33   34 1    
    38   33   35 1    
    39   35   36 1    
    40   36   37 ar   
    41   36   44 ar   
    42   37   38 ar   
    43   38   39 1    
    44   38   42 ar   
    45   39   40 2    
    46   39   41 am   
    47   42   43 ar   
    48   43   44 ar   
@<TRIPOS>SUBSTRUCTURE
     1 NAD402      1 GROUP   
@<TRIPOS>SET
ATOM$ORANGE STATIC     ATOMS   COLORGROUP SYSTEM 
42 5 5 6 6 8 8 10 10 12 12 14 14 16 16 17 17 20 \
20 22 22 28 28 29 29 31 31 33 33 35 35 37 37 38 38 39 \
39 42 42 43 43 44 44 

