#    Name: 6n7l_9_NAD
#    Modification time : Fri May 22 19:32:33 2020

@<TRIPOS>MOLECULE
6n7l_9_NAD
   44    48     1     0     1
SMALL
NO_CHARGES


@<TRIPOS>ATOM
      1 PA         27.0340    5.1730  148.2260 P.3       1 NAD402      0.0000 
      2 O1A        28.3240    4.5860  147.7620 O.co2     1 NAD402      0.0000 
      3 O2A        26.9360    5.0970  149.7500 O.co2     1 NAD402      0.0000 
      4 O5B        26.9320    6.7300  147.7960 O.3       1 NAD402      0.0000 
      5 C5B        25.8220    7.6160  148.0310 C.3       1 NAD402      0.0000 
      6 C4B        26.2680    8.9740  147.5570 C.3       1 NAD402      0.0000 
      7 O4B        25.1820    9.9200  147.6660 O.3       1 NAD402      0.0000 
      8 C3B        27.4550    9.5800  148.3280 C.3       1 NAD402      0.0000 
      9 O3B        28.5200    9.9470  147.4580 O.3       1 NAD402      0.0000 
     10 C2B        26.8520   10.8160  149.0040 C.3       1 NAD402      0.0000 
     11 O2B        27.7990   11.8750  149.0810 O.3       1 NAD402      0.0000 
     12 C1B        25.7350   11.1620  148.0280 C.3       1 NAD402      0.0000 
     13 N9A        24.6810   12.0170  148.5770 N.pl3     1 NAD402      0.0000 
     14 C8A        24.1210   11.9420  149.8280 C.2       1 NAD402      0.0000 
     15 N7A        23.2290   12.8760  150.0530 N.2       1 NAD402      0.0000 
     16 C5A        23.1900   13.6060  148.8830 C.ar      1 NAD402      0.0000 
     17 C6A        22.4330   14.7130  148.4670 C.ar      1 NAD402      0.0000 
     18 N6A        21.5320   15.3310  149.2420 N.pl3     1 NAD402      0.0000 
     19 N1A        22.6200   15.1740  147.2130 N.ar      1 NAD402      0.0000 
     20 C2A        23.5130   14.5640  146.4320 C.ar      1 NAD402      0.0000 
     21 N3A        24.2930   13.5190  146.7110 N.ar      1 NAD402      0.0000 
     22 C4A        24.0890   13.0790  147.9530 C.ar      1 NAD402      0.0000 
     23 O3         25.8040    4.3310  147.6590 O.3       1 NAD402      0.0000 
     24 PN         25.6430    3.4090  146.3630 P.3       1 NAD402      0.0000 
     25 O1N        26.2670    2.0860  146.5900 O.co2     1 NAD402      0.0000 
     26 O2N        26.0600    4.2120  145.1910 O.co2     1 NAD402      0.0000 
     27 O5D        24.0600    3.2310  146.3140 O.3       1 NAD402      0.0000 
     28 C5D        23.2430    4.4120  146.4300 C.3       1 NAD402      0.0000 
     29 C4D        21.7970    4.0130  146.5700 C.3       1 NAD402      0.0000 
     30 O4D        21.3700    3.2860  145.3940 O.3       1 NAD402      0.0000 
     31 C3D        21.4700    3.1200  147.7690 C.3       1 NAD402      0.0000 
     32 O3D        20.2180    3.5250  148.3060 O.3       1 NAD402      0.0000 
     33 C2D        21.3890    1.7280  147.1390 C.3       1 NAD402      0.0000 
     34 O2D        20.5460    0.8590  147.8820 O.3       1 NAD402      0.0000 
     35 C1D        20.7760    2.0770  145.7850 C.3       1 NAD402      0.0000 
     36 N1N        21.0040    1.0300  144.6570 N.pl3     1 NAD402      0.0000 
     37 C2N        19.9870    0.9170  143.7840 C.ar      1 NAD402      0.0000 
     38 C3N        20.0740    0.0320  142.7250 C.ar      1 NAD402      0.0000 
     39 C7N        18.9550   -0.0740  141.7210 C.2       1 NAD402      0.0000 
     40 O7N        19.0240   -0.9170  140.8200 O.2       1 NAD402      0.0000 
     41 N7N        17.9110    0.7430  141.8590 N.am      1 NAD402      0.0000 
     42 C4N        21.2300   -0.7300  142.5880 C.ar      1 NAD402      0.0000 
     43 C5N        22.2650   -0.5850  143.4940 C.ar      1 NAD402      0.0000 
     44 C6N        22.1340    0.3040  144.5350 C.ar      1 NAD402      0.0000 
@<TRIPOS>BOND
     1    1    2 ar   
     2    1    3 ar   
     3    1    4 1    
     4    1   23 1    
     5    4    5 1    
     6    5    6 1    
     7    6    7 1    
     8    6    8 1    
     9    7   12 1    
    10    8    9 1    
    11    8   10 1    
    12   10   11 1    
    13   10   12 1    
    14   12   13 1    
    15   13   14 1    
    16   13   22 1    
    17   14   15 2    
    18   15   16 1    
    19   16   17 ar   
    20   16   22 ar   
    21   17   18 1    
    22   17   19 ar   
    23   19   20 ar   
    24   20   21 ar   
    25   21   22 ar   
    26   23   24 1    
    27   24   25 ar   
    28   24   26 ar   
    29   24   27 1    
    30   27   28 1    
    31   28   29 1    
    32   29   30 1    
    33   29   31 1    
    34   30   35 1    
    35   31   32 1    
    36   31   33 1    
    37   33   34 1    
    38   33   35 1    
    39   35   36 1    
    40   36   37 ar   
    41   36   44 ar   
    42   37   38 ar   
    43   38   39 1    
    44   38   42 ar   
    45   39   40 2    
    46   39   41 am   
    47   42   43 ar   
    48   43   44 ar   
@<TRIPOS>SUBSTRUCTURE
     1 NAD402      1 GROUP   
@<TRIPOS>SET
ATOM$ORANGE STATIC     ATOMS   COLORGROUP SYSTEM 
42 5 5 6 6 8 8 10 10 12 12 14 14 16 16 17 17 20 \
20 22 22 28 28 29 29 31 31 33 33 35 35 37 37 38 38 39 \
39 42 42 43 43 44 44 

