#    Name: 6n7l_6_NAD
#    Modification time : Fri May 22 19:32:06 2020

@<TRIPOS>MOLECULE
6n7l_6_NAD
   44    48     1     0     1
SMALL
NO_CHARGES


@<TRIPOS>ATOM
      1 PA        -19.6390   29.8920   25.9250 P.3       1 NAD402      0.0000 
      2 O1A       -20.3770   31.1600   25.7100 O.co2     1 NAD402      0.0000 
      3 O2A       -19.7640   29.3580   27.3490 O.co2     1 NAD402      0.0000 
      4 O5B       -20.1520   28.7890   24.8890 O.3       1 NAD402      0.0000 
      5 C5B       -19.6840   27.4280   24.7810 C.3       1 NAD402      0.0000 
      6 C4B       -20.6870   26.7260   23.9050 C.3       1 NAD402      0.0000 
      7 O4B       -20.2650   25.3700   23.6310 O.3       1 NAD402      0.0000 
      8 C3B       -22.1100   26.6290   24.4850 C.3       1 NAD402      0.0000 
      9 O3B       -23.0740   27.0580   23.5270 O.3       1 NAD402      0.0000 
     10 C2B       -22.2750   25.1280   24.7410 C.3       1 NAD402      0.0000 
     11 O2B       -23.6280   24.7240   24.5940 O.3       1 NAD402      0.0000 
     12 C1B       -21.4220   24.5730   23.6020 C.3       1 NAD402      0.0000 
     13 N9A       -21.0520   23.1690   23.7280 N.pl3     1 NAD402      0.0000 
     14 C8A       -20.8010   22.4830   24.8870 C.2       1 NAD402      0.0000 
     15 N7A       -20.5770   21.2020   24.7130 N.2       1 NAD402      0.0000 
     16 C5A       -20.6860   21.0320   23.3400 C.ar      1 NAD402      0.0000 
     17 C6A       -20.5760   19.8970   22.5120 C.ar      1 NAD402      0.0000 
     18 N6A       -20.2570   18.6720   22.9570 N.pl3     1 NAD402      0.0000 
     19 N1A       -20.7760   20.0670   21.1850 N.ar      1 NAD402      0.0000 
     20 C2A       -21.0460   21.2950   20.7260 C.ar      1 NAD402      0.0000 
     21 N3A       -21.1590   22.4370   21.4070 N.ar      1 NAD402      0.0000 
     22 C4A       -20.9740   22.2370   22.7190 C.ar      1 NAD402      0.0000 
     23 O3        -18.0890   30.2110   25.7630 O.3       1 NAD402      0.0000 
     24 PN        -17.3370   31.2010   24.7620 P.3       1 NAD402      0.0000 
     25 O1N       -17.1600   32.5300   25.3890 O.co2     1 NAD402      0.0000 
     26 O2N       -18.0270   31.0830   23.4590 O.co2     1 NAD402      0.0000 
     27 O5D       -15.9040   30.4960   24.6740 O.3       1 NAD402      0.0000 
     28 C5D       -15.7860   29.1710   24.1020 C.3       1 NAD402      0.0000 
     29 C4D       -14.3760   28.6540   24.2790 C.3       1 NAD402      0.0000 
     30 O4D       -13.4610   29.3900   23.4280 O.3       1 NAD402      0.0000 
     31 C3D       -13.8150   28.7740   25.7030 C.3       1 NAD402      0.0000 
     32 O3D       -13.0330   27.6270   26.0150 O.3       1 NAD402      0.0000 
     33 C2D       -12.9490   30.0300   25.6170 C.3       1 NAD402      0.0000 
     34 O2D       -11.8880   30.0510   26.5640 O.3       1 NAD402      0.0000 
     35 C1D       -12.3970   29.8730   24.2030 C.3       1 NAD402      0.0000 
     36 N1N       -11.8630   31.1630   23.5520 N.pl3     1 NAD402      0.0000 
     37 C2N       -10.7870   31.0060   22.7620 C.ar      1 NAD402      0.0000 
     38 C3N       -10.2510   32.0910   22.0910 C.ar      1 NAD402      0.0000 
     39 C7N        -9.1570   31.9050   21.0630 C.2       1 NAD402      0.0000 
     40 O7N        -8.5960   32.8900   20.5900 O.2       1 NAD402      0.0000 
     41 N7N        -8.8110   30.6720   20.7380 N.am      1 NAD402      0.0000 
     42 C4N       -10.8390   33.3410   22.2720 C.ar      1 NAD402      0.0000 
     43 C5N       -11.9540   33.4710   23.0830 C.ar      1 NAD402      0.0000 
     44 C6N       -12.4550   32.3640   23.7260 C.ar      1 NAD402      0.0000 
@<TRIPOS>BOND
     1    1    2 ar   
     2    1    3 ar   
     3    1    4 1    
     4    1   23 1    
     5    4    5 1    
     6    5    6 1    
     7    6    7 1    
     8    6    8 1    
     9    7   12 1    
    10    8    9 1    
    11    8   10 1    
    12   10   11 1    
    13   10   12 1    
    14   12   13 1    
    15   13   14 1    
    16   13   22 1    
    17   14   15 2    
    18   15   16 1    
    19   16   17 ar   
    20   16   22 ar   
    21   17   18 1    
    22   17   19 ar   
    23   19   20 ar   
    24   20   21 ar   
    25   21   22 ar   
    26   23   24 1    
    27   24   25 ar   
    28   24   26 ar   
    29   24   27 1    
    30   27   28 1    
    31   28   29 1    
    32   29   30 1    
    33   29   31 1    
    34   30   35 1    
    35   31   32 1    
    36   31   33 1    
    37   33   34 1    
    38   33   35 1    
    39   35   36 1    
    40   36   37 ar   
    41   36   44 ar   
    42   37   38 ar   
    43   38   39 1    
    44   38   42 ar   
    45   39   40 2    
    46   39   41 am   
    47   42   43 ar   
    48   43   44 ar   
@<TRIPOS>SUBSTRUCTURE
     1 NAD402      1 GROUP   
@<TRIPOS>SET
ATOM$ORANGE STATIC     ATOMS   COLORGROUP SYSTEM 
42 5 5 6 6 8 8 10 10 12 12 14 14 16 16 17 17 20 \
20 22 22 28 28 29 29 31 31 33 33 35 35 37 37 38 38 39 \
39 42 42 43 43 44 44 

