#    Name: 6n7l_12_NAD
#    Modification time : Fri May 22 19:32:57 2020

@<TRIPOS>MOLECULE
6n7l_12_NAD
   44    48     1     0     1
SMALL
NO_CHARGES


@<TRIPOS>ATOM
      1 PA        -13.6250   19.1500  138.5990 P.3       1 NAD402      0.0000 
      2 O1A       -14.6960   19.2600  137.5790 O.co2     1 NAD402      0.0000 
      3 O2A       -13.9630   19.9610  139.8550 O.co2     1 NAD402      0.0000 
      4 O5B       -13.3530   17.6350  139.0590 O.3       1 NAD402      0.0000 
      5 C5B       -12.4940   17.2780  140.1610 C.3       1 NAD402      0.0000 
      6 C4B       -12.9070   15.8970  140.6030 C.3       1 NAD402      0.0000 
      7 O4B       -11.9240   15.3410  141.5000 O.3       1 NAD402      0.0000 
      8 C3B       -14.2580   15.8120  141.3310 C.3       1 NAD402      0.0000 
      9 O3B       -15.1800   15.0260  140.5840 O.3       1 NAD402      0.0000 
     10 C2B       -13.9140   15.1640  142.6820 C.3       1 NAD402      0.0000 
     11 O2B       -14.9220   14.2430  143.0840 O.3       1 NAD402      0.0000 
     12 C1B       -12.6010   14.4570  142.3610 C.3       1 NAD402      0.0000 
     13 N9A       -11.7490   14.1730  143.5110 N.pl3     1 NAD402      0.0000 
     14 C8A       -11.4310   15.0180  144.5430 C.2       1 NAD402      0.0000 
     15 N7A       -10.6640   14.4810  145.4610 N.2       1 NAD402      0.0000 
     16 C5A       -10.4600   13.1860  145.0000 C.ar      1 NAD402      0.0000 
     17 C6A        -9.7380   12.0960  145.5210 C.ar      1 NAD402      0.0000 
     18 N6A        -9.0750   12.1260  146.6810 N.pl3     1 NAD402      0.0000 
     19 N1A        -9.7260   10.9490  144.8040 N.ar      1 NAD402      0.0000 
     20 C2A       -10.3990   10.9060  143.6500 C.ar      1 NAD402      0.0000 
     21 N3A       -11.1220   11.8650  143.0650 N.ar      1 NAD402      0.0000 
     22 C4A       -11.1150   12.9870  143.7960 C.ar      1 NAD402      0.0000 
     23 O3        -12.2810   19.7410  137.9820 O.3       1 NAD402      0.0000 
     24 PN        -11.7320   19.5670  136.4920 P.3       1 NAD402      0.0000 
     25 O1N       -12.2630   20.6620  135.6470 O.co2     1 NAD402      0.0000 
     26 O2N       -11.9790   18.1580  136.1020 O.co2     1 NAD402      0.0000 
     27 O5D       -10.1710   19.8190  136.7090 O.3       1 NAD402      0.0000 
     28 C5D        -9.3970   18.9520  137.5590 C.3       1 NAD402      0.0000 
     29 C4D        -7.9990   19.4970  137.7310 C.3       1 NAD402      0.0000 
     30 O4D        -7.2740   19.4160  136.4810 O.3       1 NAD402      0.0000 
     31 C3D        -7.8930   20.9570  138.1880 C.3       1 NAD402      0.0000 
     32 O3D        -6.8200   21.0920  139.1170 O.3       1 NAD402      0.0000 
     33 C2D        -7.5860   21.6940  136.8850 C.3       1 NAD402      0.0000 
     34 O2D        -6.8880   22.9110  137.1160 O.3       1 NAD402      0.0000 
     35 C1D        -6.6970   20.6620  136.2010 C.3       1 NAD402      0.0000 
     36 N1N        -6.5740   20.8110  134.6700 N.pl3     1 NAD402      0.0000 
     37 C2N        -5.3760   20.4470  134.1790 C.ar      1 NAD402      0.0000 
     38 C3N        -5.1190   20.5520  132.8250 C.ar      1 NAD402      0.0000 
     39 C7N        -3.8020   20.0980  132.2650 C.2       1 NAD402      0.0000 
     40 O7N        -3.5420   20.3120  131.0750 O.2       1 NAD402      0.0000 
     41 N7N        -2.9380   19.5190  133.0970 N.am      1 NAD402      0.0000 
     42 C4N        -6.1220   21.0340  131.9910 C.ar      1 NAD402      0.0000 
     43 C5N        -7.3500   21.3840  132.5210 C.ar      1 NAD402      0.0000 
     44 C6N        -7.5620   21.2680  133.8750 C.ar      1 NAD402      0.0000 
@<TRIPOS>BOND
     1    1    2 ar   
     2    1    3 ar   
     3    1    4 1    
     4    1   23 1    
     5    4    5 1    
     6    5    6 1    
     7    6    7 1    
     8    6    8 1    
     9    7   12 1    
    10    8    9 1    
    11    8   10 1    
    12   10   11 1    
    13   10   12 1    
    14   12   13 1    
    15   13   14 1    
    16   13   22 1    
    17   14   15 2    
    18   15   16 1    
    19   16   17 ar   
    20   16   22 ar   
    21   17   18 1    
    22   17   19 ar   
    23   19   20 ar   
    24   20   21 ar   
    25   21   22 ar   
    26   23   24 1    
    27   24   25 ar   
    28   24   26 ar   
    29   24   27 1    
    30   27   28 1    
    31   28   29 1    
    32   29   30 1    
    33   29   31 1    
    34   30   35 1    
    35   31   32 1    
    36   31   33 1    
    37   33   34 1    
    38   33   35 1    
    39   35   36 1    
    40   36   37 ar   
    41   36   44 ar   
    42   37   38 ar   
    43   38   39 1    
    44   38   42 ar   
    45   39   40 2    
    46   39   41 am   
    47   42   43 ar   
    48   43   44 ar   
@<TRIPOS>SUBSTRUCTURE
     1 NAD402      1 GROUP   
@<TRIPOS>SET
ATOM$ORANGE STATIC     ATOMS   COLORGROUP SYSTEM 
42 5 5 6 6 8 8 10 10 12 12 14 14 16 16 17 17 20 \
20 22 22 28 28 29 29 31 31 33 33 35 35 37 37 38 38 39 \
39 42 42 43 43 44 44 

