#    Name: 5oa0_4_SY9
#    Modification time : Fri May 22 19:12:29 2020

@<TRIPOS>MOLECULE
5oa0_4_SY9
   25    31     1     0     0
SMALL
NO_CHARGES


@<TRIPOS>ATOM
      1 CAV        14.7420    9.9090   18.7330 C.3       1 SY9601      0.0000 
      2 CAU        14.5970    9.7020   20.2320 C.3       1 SY9601      0.0000 
      3 CAT        13.1020    9.6690   20.5700 C.3       1 SY9601      0.0000 
      4 CAN        12.5750    8.3510   19.9820 C.3       1 SY9601      0.0000 
      5 CAK        12.7330    8.2810   18.4630 C.3       1 SY9601      0.0000 
      6 NAH        12.7230    6.8350   18.1090 N.am      1 SY9601      0.0000 
      7 CAA        13.9970    6.4550   17.6380 C.ar      1 SY9601      0.0000 
      8 CAF        14.4510    5.1850   17.3060 C.ar      1 SY9601      0.0000 
      9 CAE        15.7700    5.0420   16.9090 C.ar      1 SY9601      0.0000 
     10 CAD        16.6120    6.1460   16.8360 C.ar      1 SY9601      0.0000 
     11 CAC        16.1450    7.4120   17.1530 C.ar      1 SY9601      0.0000 
     12 CAB        14.8290    7.5670   17.5560 C.ar      1 SY9601      0.0000 
     13 CAG        14.0680    8.8270   17.8630 C.3       1 SY9601      0.0000 
     14 CAW        13.8240    9.6290   16.5760 C.3       1 SY9601      0.0000 
     15 CAX        13.3130   10.9550   17.0970 C.3       1 SY9601      0.0000 
     16 NAY        14.1240   11.2020   18.2910 N.4       1 SY9601      0.0000 
     17 CAS        13.3580   11.8760   19.3530 C.3       1 SY9601      0.0000 
     18 CAR        12.4170   10.9260   20.0360 C.2       1 SY9601      0.0000 
     19 CAQ        11.1060   11.1210   20.0970 C.2       1 SY9601      0.0000 
     20 CAP        10.1530   10.1130   20.6670 C.3       1 SY9601      0.0000 
     21 OAO        10.1610    8.8910   19.9070 O.3       1 SY9601      0.0000 
     22 CAM        11.1510    7.9380   20.3070 C.3       1 SY9601      0.0000 
     23 CAL        10.7830    6.6540   19.5640 C.3       1 SY9601      0.0000 
     24 CAI        11.8330    6.0000   18.7100 C.2       1 SY9601      0.0000 
     25 OAJ        11.8830    4.7950   18.5840 O.2       1 SY9601      0.0000 
@<TRIPOS>BOND
     1    1    2 1    
     2    1   13 1    
     3    1   16 1    
     4    2    3 1    
     5    3    4 1    
     6    3   18 1    
     7    4    5 1    
     8    4   22 1    
     9    5    6 1    
    10    5   13 1    
    11    6    7 1    
    12    6   24 am   
    13    7    8 ar   
    14    7   12 ar   
    15    8    9 ar   
    16    9   10 ar   
    17   10   11 ar   
    18   11   12 ar   
    19   12   13 1    
    20   13   14 1    
    21   14   15 1    
    22   15   16 1    
    23   16   17 1    
    24   17   18 1    
    25   18   19 2    
    26   19   20 1    
    27   20   21 1    
    28   21   22 1    
    29   22   23 1    
    30   23   24 1    
    31   24   25 2    
@<TRIPOS>SUBSTRUCTURE
     1 SY9601      1 GROUP   
@<TRIPOS>SET

