#    Name: 5oa0_1_SY9
#    Modification time : Fri May 22 19:12:07 2020

@<TRIPOS>MOLECULE
5oa0_1_SY9
   25    31     1     0     0
SMALL
NO_CHARGES


@<TRIPOS>ATOM
      1 CAV         2.5510   13.0650  -29.5650 C.3       1 SY9601      0.0000 
      2 CAU         2.3080   12.0150  -30.6390 C.3       1 SY9601      0.0000 
      3 CAT         1.5240   10.8550  -30.0190 C.3       1 SY9601      0.0000 
      4 CAN         0.1170   11.3910  -29.7010 C.3       1 SY9601      0.0000 
      5 CAK         0.1400   12.5510  -28.7080 C.3       1 SY9601      0.0000 
      6 NAH        -1.1310   13.3050  -28.9140 N.am      1 SY9601      0.0000 
      7 CAA        -0.8410   14.5950  -29.4070 C.ar      1 SY9601      0.0000 
      8 CAF        -1.7220   15.5950  -29.7950 C.ar      1 SY9601      0.0000 
      9 CAE        -1.1980   16.7760  -30.3080 C.ar      1 SY9601      0.0000 
     10 CAD         0.1690   16.9470  -30.4370 C.ar      1 SY9601      0.0000 
     11 CAC         1.0430   15.9410  -30.0530 C.ar      1 SY9601      0.0000 
     12 CAB         0.5360   14.7640  -29.5190 C.ar      1 SY9601      0.0000 
     13 CAG         1.2690   13.6140  -28.8850 C.3       1 SY9601      0.0000 
     14 CAW         1.8420   14.0450  -27.5320 C.3       1 SY9601      0.0000 
     15 CAX         2.7620   12.8980  -27.1850 C.3       1 SY9601      0.0000 
     16 NAY         3.3730   12.5140  -28.4620 N.4       1 SY9601      0.0000 
     17 CAS         3.5770   11.0570  -28.5610 C.3       1 SY9601      0.0000 
     18 CAR         2.2870   10.3290  -28.8190 C.2       1 SY9601      0.0000 
     19 CAQ         1.8320    9.3570  -28.0450 C.2       1 SY9601      0.0000 
     20 CAP         0.4930    8.7160  -28.2550 C.3       1 SY9601      0.0000 
     21 OAO        -0.5750    9.6590  -28.0580 O.3       1 SY9601      0.0000 
     22 CAM        -0.9450   10.4000  -29.2250 C.3       1 SY9601      0.0000 
     23 CAL        -2.2330   11.1340  -28.8390 C.3       1 SY9601      0.0000 
     24 CAI        -2.3010   12.6140  -29.1150 C.2       1 SY9601      0.0000 
     25 OAJ        -3.3320   13.1500  -29.5130 O.2       1 SY9601      0.0000 
@<TRIPOS>BOND
     1    1    2 1    
     2    1   13 1    
     3    1   16 1    
     4    2    3 1    
     5    3    4 1    
     6    3   18 1    
     7    4    5 1    
     8    4   22 1    
     9    5    6 1    
    10    5   13 1    
    11    6    7 1    
    12    6   24 am   
    13    7    8 ar   
    14    7   12 ar   
    15    8    9 ar   
    16    9   10 ar   
    17   10   11 ar   
    18   11   12 ar   
    19   12   13 1    
    20   13   14 1    
    21   14   15 1    
    22   15   16 1    
    23   16   17 1    
    24   17   18 1    
    25   18   19 2    
    26   19   20 1    
    27   20   21 1    
    28   21   22 1    
    29   22   23 1    
    30   23   24 1    
    31   24   25 2    
@<TRIPOS>SUBSTRUCTURE
     1 SY9601      1 GROUP   
@<TRIPOS>SET

