#    Name: 5oa0_2_SY9_CAVITY_N1_4
#    Modification time : Fri May 22 19:12:16 2020

@<TRIPOS>MOLECULE
5oa0_2_SY9_CAVITY_N1_4
   96     0     6     0     0
SMALL
NO_CHARGES


@<TRIPOS>ATOM
      1 OG        -13.2600   33.8000  -17.6400 O.3       1 SER1        0.0000 
      2 OG        -12.7100   33.7000  -15.5900 O.3       1 SER1        0.0000 
      3 OG        -13.9800   34.4200  -15.2200 O.3       1 SER1        0.0000 
      4 OG        -15.2400   35.1300  -14.8400 O.3       1 SER1        0.0000 
      5 OG        -10.4500   34.8500  -16.1500 O.3       1 SER1        0.0000 
      6 OG        -11.7100   35.5700  -15.7700 O.3       1 SER1        0.0000 
      7 OG        -13.2000   35.3000  -14.2800 O.3       1 SER1        0.0000 
      8 OG        -14.2400   36.9900  -15.0200 O.3       1 SER1        0.0000 
      9 OG         -9.6700   35.7300  -15.2200 O.3       1 SER1        0.0000 
     10 OG        -10.9400   36.4500  -14.8400 O.3       1 SER1        0.0000 
     11 OG        -13.6900   36.8900  -12.9700 O.3       1 SER1        0.0000 
     12 OG        -13.4700   37.8800  -14.0900 O.3       1 SER1        0.0000 
     13 OG        -14.7300   38.5900  -13.7100 O.3       1 SER1        0.0000 
     14 OG         -8.1200   37.5000  -13.3500 O.3       1 SER1        0.0000 
     15 OG         -7.6800   39.4600  -15.5700 O.3       1 SER1        0.0000 
     16 OG         -9.3900   38.2100  -12.9700 O.3       1 SER1        0.0000 
     17 OG         -7.3500   38.3800  -12.4200 O.3       1 SER1        0.0000 
     18 OG         -7.1200   39.3600  -13.5300 O.3       1 SER1        0.0000 
     19 OG         -6.6800   41.3200  -15.7500 O.3       1 SER1        0.0000 
     20 OG         -8.6100   39.0900  -12.0400 O.3       1 SER1        0.0000 
     21 OG        -10.1000   38.8300  -10.5500 O.3       1 SER1        0.0000 
     22 OG         -9.8800   39.8100  -11.6600 O.3       1 SER1        0.0000 
     23 OG         -9.1000   40.6900  -10.7300 O.3       1 SER1        0.0000 
     24 N          -9.5200   35.2200  -19.6800 N.am      2 ALA2        0.0000 
     25 N          -8.9600   35.1200  -17.6400 N.am      2 ALA2        0.0000 
     26 N          -8.7400   36.1000  -18.7500 N.am      2 ALA2        0.0000 
     27 N          -8.1900   36.0000  -16.7100 N.am      2 ALA2        0.0000 
     28 N          -7.9600   36.9800  -17.8200 N.am      2 ALA2        0.0000 
     29 N         -11.9800   38.1400  -15.5800 N.am      2 ALA2        0.0000 
     30 N          -8.6800   37.6000  -15.4000 N.am      2 ALA2        0.0000 
     31 N          -9.9400   38.3100  -15.0200 N.am      2 ALA2        0.0000 
     32 N          -9.7200   39.2900  -16.1300 N.am      2 ALA2        0.0000 
     33 N         -11.4300   38.0400  -13.5300 N.am      2 ALA2        0.0000 
     34 N         -12.6900   38.7600  -13.1500 N.am      2 ALA2        0.0000 
     35 N          -7.9000   38.4800  -14.4600 N.am      2 ALA2        0.0000 
     36 N          -9.1600   39.1900  -14.0900 N.am      2 ALA2        0.0000 
     37 N         -10.6500   38.9300  -12.6000 N.am      2 ALA2        0.0000 
     38 N          -4.5900   37.9300  -14.2800 N.am      2 ALA2        0.0000 
     39 N          -5.8600   38.6500  -13.9100 N.am      2 ALA2        0.0000 
     40 N          -5.6400   39.6300  -15.0200 N.am      2 ALA2        0.0000 
     41 N          -6.9000   40.3400  -14.6400 N.am      2 ALA2        0.0000 
     42 N          -8.3900   40.0800  -13.1500 N.am      2 ALA2        0.0000 
     43 N          -9.6500   40.7900  -12.7800 N.am      2 ALA2        0.0000 
     44 N          -7.1700   42.9200  -14.4400 N.am      2 ALA2        0.0000 
     45 N          -8.6500   42.6500  -12.9500 N.am      2 ALA2        0.0000 
     46 OD1        -8.8800   41.6700  -11.8400 O.co2     3 ASP3        0.0000 
     47 OD1        -7.8800   43.5300  -12.0200 O.co2     3 ASP3        0.0000 
     48 CZ        -14.5300   34.5200  -17.2600 C.ar      4 PHE5        0.0000 
     49 CZ        -11.0000   34.9500  -18.2000 C.ar      4 PHE5        0.0000 
     50 CZ        -10.7800   35.9300  -19.3100 C.ar      4 PHE5        0.0000 
     51 CZ        -12.4900   34.6800  -16.7100 C.ar      4 PHE5        0.0000 
     52 CZ        -12.2700   35.6700  -17.8200 C.ar      4 PHE5        0.0000 
     53 CZ        -13.7500   35.4000  -16.3300 C.ar      4 PHE5        0.0000 
     54 CZ        -10.0000   36.8200  -18.3700 C.ar      4 PHE5        0.0000 
     55 CZ        -11.4900   36.5500  -16.8900 C.ar      4 PHE5        0.0000 
     56 CZ        -11.2700   37.5300  -18.0000 C.ar      4 PHE5        0.0000 
     57 CZ        -12.9800   36.2800  -15.4000 C.ar      4 PHE5        0.0000 
     58 CZ        -12.7600   37.2600  -16.5100 C.ar      4 PHE5        0.0000 
     59 CZ         -8.4100   35.0200  -15.5900 C.ar      4 PHE5        0.0000 
     60 CZ         -9.2300   37.7000  -17.4400 C.ar      4 PHE5        0.0000 
     61 CZ        -11.1600   35.4700  -13.7300 C.ar      4 PHE5        0.0000 
     62 CZ        -10.4900   38.4100  -17.0600 C.ar      4 PHE5        0.0000 
     63 CZ        -12.4200   36.1800  -13.3500 C.ar      4 PHE5        0.0000 
     64 CZ        -11.7600   39.1300  -16.6900 C.ar      4 PHE5        0.0000 
     65 CZ        -13.9100   35.9100  -11.8600 C.ar      4 PHE5        0.0000 
     66 CZ         -7.6300   35.9000  -14.6600 C.ar      4 PHE5        0.0000 
     67 CZ         -8.9000   36.6200  -14.2800 C.ar      4 PHE5        0.0000 
     68 CZ         -8.4500   38.5800  -16.5100 C.ar      4 PHE5        0.0000 
     69 CZ        -11.6500   37.0600  -12.4200 C.ar      4 PHE5        0.0000 
     70 CZ        -13.1400   36.7900  -10.9300 C.ar      4 PHE5        0.0000 
     71 CZ        -12.9100   37.7800  -12.0400 C.ar      4 PHE5        0.0000 
     72 CZ        -14.1800   38.4900  -11.6600 C.ar      4 PHE5        0.0000 
     73 CZ         -6.8600   36.7800  -13.7300 C.ar      4 PHE5        0.0000 
     74 CZ         -8.3400   36.5200  -12.2400 C.ar      4 PHE5        0.0000 
     75 CZ         -9.6100   37.2300  -11.8600 C.ar      4 PHE5        0.0000 
     76 CZ        -10.8700   37.9400  -11.4800 C.ar      4 PHE5        0.0000 
     77 CZ        -12.1400   38.6600  -11.1100 C.ar      4 PHE5        0.0000 
     78 CZ         -6.0800   37.6700  -12.7900 C.ar      4 PHE5        0.0000 
     79 CZ        -11.3600   39.5400  -10.1700 C.ar      4 PHE5        0.0000 
     80 CA        -13.4900   32.8200  -16.5300 C.3       5 GLY6        0.0000 
     81 CA        -11.2200   33.9700  -17.0800 C.3       5 GLY6        0.0000 
     82 CA        -13.2400   38.8600  -15.2000 C.3       5 GLY6        0.0000 
     83 CA        -13.9600   39.4700  -12.7800 C.3       5 GLY6        0.0000 
     84 CA        -11.9200   39.6400  -12.2200 C.3       5 GLY6        0.0000 
     85 CA        -11.1400   40.5200  -11.2900 C.3       5 GLY6        0.0000 
     86 CA         -5.0800   39.5300  -12.9700 C.3       5 GLY6        0.0000 
     87 CA         -4.8600   40.5100  -14.0800 C.3       5 GLY6        0.0000 
     88 CA         -6.3500   40.2400  -12.6000 C.3       5 GLY6        0.0000 
     89 CA         -7.6100   40.9600  -12.2200 C.3       5 GLY6        0.0000 
     90 CA         -7.3900   41.9400  -13.3300 C.3       5 GLY6        0.0000 
     91 CA         -7.6600   44.5200  -13.1300 C.3       5 GLY6        0.0000 
     92 DU        -10.2300   35.8300  -17.2600 H         6 CUB7        0.0000 
     93 DU         -9.4500   36.7200  -16.3300 H         6 CUB7        0.0000 
     94 DU        -10.7200   37.4300  -15.9500 H         6 CUB7        0.0000 
     95 DU        -12.2000   37.1600  -14.4600 H         6 CUB7        0.0000 
     96 DU        -10.1600   37.3300  -13.9100 H         6 CUB7        0.0000 
@<TRIPOS>BOND
@<TRIPOS>SUBSTRUCTURE
     1 SER1        1 GROUP   
     2 ALA2       24 GROUP   
     3 ASP3       46 GROUP   
     4 PHE5       48 GROUP   
     5 GLY6       80 GROUP   
     6 CUB7       92 GROUP   
@<TRIPOS>SET

