#    Name: 5oa0_5_SY9
#    Modification time : Fri May 22 19:12:37 2020

@<TRIPOS>MOLECULE
5oa0_5_SY9
   25    31     1     0     0
SMALL
NO_CHARGES


@<TRIPOS>ATOM
      1 CAV        16.6630   -4.3150   -8.4770 C.3       1 SY9601      0.0000 
      2 CAU        17.0140   -5.7210   -8.0190 C.3       1 SY9601      0.0000 
      3 CAT        15.9600   -6.1810   -6.9970 C.3       1 SY9601      0.0000 
      4 CAN        14.6640   -6.3950   -7.8020 C.3       1 SY9601      0.0000 
      5 CAK        14.1660   -5.1100   -8.4630 C.3       1 SY9601      0.0000 
      6 NAH        13.3140   -5.5380   -9.6090 N.am      1 SY9601      0.0000 
      7 CAA        13.9430   -5.1680  -10.8290 C.ar      1 SY9601      0.0000 
      8 CAF        13.5500   -5.4400  -12.1330 C.ar      1 SY9601      0.0000 
      9 CAE        14.3560   -4.9920  -13.1690 C.ar      1 SY9601      0.0000 
     10 CAD        15.5320   -4.3030  -12.9140 C.ar      1 SY9601      0.0000 
     11 CAC        15.9130   -4.0280  -11.6130 C.ar      1 SY9601      0.0000 
     12 CAB        15.1090   -4.4530  -10.5640 C.ar      1 SY9601      0.0000 
     13 CAG        15.2470   -4.1680   -9.0950 C.3       1 SY9601      0.0000 
     14 CAW        14.9550   -2.6830   -8.8020 C.3       1 SY9601      0.0000 
     15 CAX        15.5510   -2.4340   -7.4320 C.3       1 SY9601      0.0000 
     16 NAY        16.7040   -3.3450   -7.3420 N.4       1 SY9601      0.0000 
     17 CAS        16.8050   -3.9980   -6.0220 C.3       1 SY9601      0.0000 
     18 CAR        15.8440   -5.1500   -5.8840 C.2       1 SY9601      0.0000 
     19 CAQ        14.9310   -5.2220   -4.9260 C.2       1 SY9601      0.0000 
     20 CAP        13.9110   -6.3180   -4.8300 C.3       1 SY9601      0.0000 
     21 OAO        13.0060   -6.3140   -5.9520 O.3       1 SY9601      0.0000 
     22 CAM        13.4660   -7.0380   -7.0980 C.3       1 SY9601      0.0000 
     23 CAL        12.2570   -7.0890   -8.0310 C.3       1 SY9601      0.0000 
     24 CAI        12.4150   -6.5650   -9.4370 C.2       1 SY9601      0.0000 
     25 OAJ        11.7470   -7.0270  -10.3530 O.2       1 SY9601      0.0000 
@<TRIPOS>BOND
     1    1    2 1    
     2    1   13 1    
     3    1   16 1    
     4    2    3 1    
     5    3    4 1    
     6    3   18 1    
     7    4    5 1    
     8    4   22 1    
     9    5    6 1    
    10    5   13 1    
    11    6    7 1    
    12    6   24 am   
    13    7    8 ar   
    14    7   12 ar   
    15    8    9 ar   
    16    9   10 ar   
    17   10   11 ar   
    18   11   12 ar   
    19   12   13 1    
    20   13   14 1    
    21   14   15 1    
    22   15   16 1    
    23   16   17 1    
    24   17   18 1    
    25   18   19 2    
    26   19   20 1    
    27   20   21 1    
    28   21   22 1    
    29   22   23 1    
    30   23   24 1    
    31   24   25 2    
@<TRIPOS>SUBSTRUCTURE
     1 SY9601      1 GROUP   
@<TRIPOS>SET

