#    Name: 5oa0_4_SY9_CAVITY_N1_4
#    Modification time : Fri May 22 19:12:31 2020

@<TRIPOS>MOLECULE
5oa0_4_SY9_CAVITY_N1_4
   87     0     5     0     0
SMALL
NO_CHARGES


@<TRIPOS>ATOM
      1 OG         11.0900    3.7900   19.4100 O.3       1 SER1        0.0000 
      2 OG         15.0600    6.1900   16.2500 O.3       1 SER1        0.0000 
      3 OG         13.8000    6.9000   16.6300 O.3       1 SER1        0.0000 
      4 OG         14.0200    7.8800   15.5100 O.3       1 SER1        0.0000 
      5 OG         11.8700    4.6700   20.3400 O.3       1 SER1        0.0000 
      6 OG         10.8300    6.3700   19.6000 O.3       1 SER1        0.0000 
      7 OG          9.5600    7.0800   19.9800 O.3       1 SER1        0.0000 
      8 OG          8.0700    6.8100   21.4700 O.3       1 SER1        0.0000 
      9 OG          8.3000    7.7900   20.3600 O.3       1 SER1        0.0000 
     10 OG          8.5200    8.7700   19.2500 O.3       1 SER1        0.0000 
     11 OG         15.8400    7.0700   17.1800 O.3       1 SER1        0.0000 
     12 OG         14.5700    7.7800   17.5600 O.3       1 SER1        0.0000 
     13 OG         14.8000    8.7700   16.4500 O.3       1 SER1        0.0000 
     14 OG         11.8200    8.2300   19.4300 O.3       1 SER1        0.0000 
     15 OG         12.0500    9.2100   18.3100 O.3       1 SER1        0.0000 
     16 OG         10.5600    8.9400   19.8000 O.3       1 SER1        0.0000 
     17 OG         10.7800    9.9200   18.6900 O.3       1 SER1        0.0000 
     18 OG         11.0000   10.9100   17.5800 O.3       1 SER1        0.0000 
     19 OG          9.5200   10.6400   19.0700 O.3       1 SER1        0.0000 
     20 OG          9.7400   11.6200   17.9500 O.3       1 SER1        0.0000 
     21 OG          7.8100    9.3900   21.6700 O.3       1 SER1        0.0000 
     22 OG         10.0700   10.5400   21.1100 O.3       1 SER1        0.0000 
     23 OG         10.8500   11.4200   22.0500 O.3       1 SER1        0.0000 
     24 OG          9.5800   12.1300   22.4200 O.3       1 SER1        0.0000 
     25 N          13.5800    5.9200   17.7400 N.am      2 ALA2        0.0000 
     26 N           7.0300    8.5100   20.7300 N.am      2 ALA2        0.0000 
     27 N          15.6200    6.0900   18.2900 N.am      2 ALA2        0.0000 
     28 N          14.3500    6.8000   18.6700 N.am      2 ALA2        0.0000 
     29 N          12.8700    6.5300   20.1600 N.am      2 ALA2        0.0000 
     30 N          13.0900    7.5200   19.0500 N.am      2 ALA2        0.0000 
     31 N          16.6100    7.9500   18.1200 N.am      2 ALA2        0.0000 
     32 N          15.3500    8.6700   18.4900 N.am      2 ALA2        0.0000 
     33 N          15.5700    9.6500   17.3800 N.am      2 ALA2        0.0000 
     34 N          13.6400    7.4200   21.0900 N.am      2 ALA2        0.0000 
     35 N          13.8600    8.4000   19.9800 N.am      2 ALA2        0.0000 
     36 N          14.3100   10.3600   17.7600 N.am      2 ALA2        0.0000 
     37 N          13.0400   11.0700   18.1300 N.am      2 ALA2        0.0000 
     38 N          13.2700   12.0600   17.0200 N.am      2 ALA2        0.0000 
     39 N          14.6400    9.2800   20.9100 N.am      2 ALA2        0.0000 
     40 N          15.0800   11.2400   18.6900 N.am      2 ALA2        0.0000 
     41 N          13.8200   11.9600   19.0700 N.am      2 ALA2        0.0000 
     42 N          12.5500   12.6700   19.4400 N.am      2 ALA2        0.0000 
     43 CZ         14.0700    4.3200   16.4300 C.ar      3 PHE5        0.0000 
     44 CZ         12.8000    5.0400   16.8100 C.ar      3 PHE5        0.0000 
     45 CZ         11.3100    4.7700   18.2900 C.ar      3 PHE5        0.0000 
     46 CZ         10.0500    5.4800   18.6700 C.ar      3 PHE5        0.0000 
     47 CZ         13.1300    3.9600   19.9600 C.ar      3 PHE5        0.0000 
     48 CZ         12.3100    6.6300   18.1200 C.ar      3 PHE5        0.0000 
     49 CZ         12.5300    7.6200   17.0000 C.ar      3 PHE5        0.0000 
     50 CZ         11.0500    7.3500   18.4900 C.ar      3 PHE5        0.0000 
     51 CZ         13.3100    8.5000   17.9400 C.ar      3 PHE5        0.0000 
     52 CZ         13.5300    9.4800   16.8200 C.ar      3 PHE5        0.0000 
     53 CZ         11.3800    6.2700   21.6500 C.ar      3 PHE5        0.0000 
     54 CZ         11.6000    7.2500   20.5400 C.ar      3 PHE5        0.0000 
     55 CZ         12.2700   10.1900   17.2000 C.ar      3 PHE5        0.0000 
     56 CZ         10.3400    7.9600   20.9100 C.ar      3 PHE5        0.0000 
     57 CZ          9.0700    8.6700   21.2900 C.ar      3 PHE5        0.0000 
     58 CZ          7.5800    8.4100   22.7800 C.ar      3 PHE5        0.0000 
     59 CZ         12.3800    8.1300   21.4700 C.ar      3 PHE5        0.0000 
     60 CZ         12.6000    9.1100   20.3600 C.ar      3 PHE5        0.0000 
     61 CZ         11.3300    9.8200   20.7400 C.ar      3 PHE5        0.0000 
     62 CZ         14.8600   10.2600   19.8000 C.ar      3 PHE5        0.0000 
     63 CZ         13.3700    9.9900   21.2900 C.ar      3 PHE5        0.0000 
     64 CZ         13.6000   10.9700   20.1800 C.ar      3 PHE5        0.0000 
     65 CZ         12.1100   10.7100   21.6700 C.ar      3 PHE5        0.0000 
     66 CZ         13.1100   12.5700   21.4900 C.ar      3 PHE5        0.0000 
     67 CZ         11.6200   12.3000   22.9800 C.ar      3 PHE5        0.0000 
     68 CA         14.8400    5.2100   17.3600 C.3       4 GLY6        0.0000 
     69 CA         13.3500    4.9400   18.8500 C.3       4 GLY6        0.0000 
     70 CA         12.6400    5.5500   21.2700 C.3       4 GLY6        0.0000 
     71 CA          9.2900    9.6600   20.1800 C.3       4 GLY6        0.0000 
     72 CA          6.5400   10.1000   22.0500 C.3       4 GLY6        0.0000 
     73 CA         16.8400    8.9300   17.0000 C.3       4 GLY6        0.0000 
     74 CA         10.2900   11.5200   20.0000 C.3       4 GLY6        0.0000 
     75 CA          8.8100   11.2500   21.4900 C.3       4 GLY6        0.0000 
     76 CA          9.0300   12.2300   20.3800 C.3       4 GLY6        0.0000 
     77 CA          9.8000   13.1100   21.3100 C.3       4 GLY6        0.0000 
     78 CA         12.8900   11.5900   22.6000 C.3       4 GLY6        0.0000 
     79 CA         11.8400   13.2800   21.8700 C.3       4 GLY6        0.0000 
     80 CA         10.5800   14.0000   22.2400 C.3       4 GLY6        0.0000 
     81 DU         12.0900    5.6500   19.2300 H         5 CUB7        0.0000 
     82 DU         14.0900    9.3800   18.8700 H         5 CUB7        0.0000 
     83 DU         12.8200   10.0900   19.2500 H         5 CUB7        0.0000 
     84 DU         11.5600   10.8100   19.6200 H         5 CUB7        0.0000 
     85 DU         11.7800   11.7900   18.5100 H         5 CUB7        0.0000 
     86 DU         12.3300   11.6900   20.5600 H         5 CUB7        0.0000 
     87 DU         11.0700   12.4000   20.9300 H         5 CUB7        0.0000 
@<TRIPOS>BOND
@<TRIPOS>SUBSTRUCTURE
     1 SER1        1 GROUP   
     2 ALA2       25 GROUP   
     3 PHE5       43 GROUP   
     4 GLY6       68 GROUP   
     5 CUB7       81 GROUP   
@<TRIPOS>SET

