#    Name: 5oa0_5_SY9_CAVITY_N1_4
#    Modification time : Fri May 22 19:12:39 2020

@<TRIPOS>MOLECULE
5oa0_5_SY9_CAVITY_N1_4
  112     0     6     0     0
SMALL
NO_CHARGES


@<TRIPOS>ATOM
      1 OG         11.6200   -9.8700   -6.7000 O.3       1 SER1        0.0000 
      2 OG         12.0600   -7.9100   -8.9300 O.3       1 SER1        0.0000 
      3 OG         10.3500   -9.1600   -6.3300 O.3       1 SER1        0.0000 
      4 OG         10.8000   -7.1900   -8.5500 O.3       1 SER1        0.0000 
      5 OG         14.7700   -4.7900  -11.7100 O.3       1 SER1        0.0000 
      6 OG         13.5100   -4.0800  -11.3300 O.3       1 SER1        0.0000 
      7 OG         11.3500   -7.2900   -6.5100 O.3       1 SER1        0.0000 
      8 OG         10.0900   -6.5800   -6.1300 O.3       1 SER1        0.0000 
      9 OG         17.0300   -3.6400  -12.2600 O.3       1 SER1        0.0000 
     10 OG         15.5500   -3.9100  -10.7700 O.3       1 SER1        0.0000 
     11 OG         13.6100   -6.1400   -7.0600 O.3       1 SER1        0.0000 
     12 OG         14.2800   -3.2000  -10.4000 O.3       1 SER1        0.0000 
     13 OG         11.6800   -8.3700   -3.3500 O.3       1 SER1        0.0000 
     14 OG         12.1300   -6.4100   -5.5700 O.3       1 SER1        0.0000 
     15 OG         16.3200   -3.0300   -9.8400 O.3       1 SER1        0.0000 
     16 OG         16.5400   -2.0500  -10.9500 O.3       1 SER1        0.0000 
     17 OG         13.9500   -7.2200   -3.9000 O.3       1 SER1        0.0000 
     18 OG         14.3900   -5.2600   -6.1300 O.3       1 SER1        0.0000 
     19 OG         14.6100   -4.2800   -7.2400 O.3       1 SER1        0.0000 
     20 OG         15.0600   -2.3200   -9.4600 O.3       1 SER1        0.0000 
     21 OG         13.3500   -3.5700   -6.8600 O.3       1 SER1        0.0000 
     22 OG         15.9900   -7.0600   -3.3500 O.3       1 SER1        0.0000 
     23 OG         14.5000   -7.3200   -1.8600 O.3       1 SER1        0.0000 
     24 OG         14.7200   -6.3400   -2.9700 O.3       1 SER1        0.0000 
     25 OG         13.9000   -3.6700   -4.8200 O.3       1 SER1        0.0000 
     26 OG         12.6400   -2.9500   -4.4400 O.3       1 SER1        0.0000 
     27 N          13.5500   -7.6400  -10.4200 N.am      2 ALA2        0.0000 
     28 N          17.5200   -5.2400  -13.5700 N.am      2 ALA2        0.0000 
     29 N          16.0400   -5.5100  -12.0800 N.am      2 ALA2        0.0000 
     30 N          14.3300   -6.7600   -9.4800 N.am      2 ALA2        0.0000 
     31 N          14.5500   -5.7700  -10.6000 N.am      2 ALA2        0.0000 
     32 N           9.8700   -7.5600   -5.0200 N.am      2 ALA2        0.0000 
     33 N          18.3000   -4.3600  -12.6400 N.am      2 ALA2        0.0000 
     34 N          16.3700   -6.5900   -8.9300 N.am      2 ALA2        0.0000 
     35 N          16.5900   -5.6100  -10.0400 N.am      2 ALA2        0.0000 
     36 N          16.8100   -4.6200  -11.1500 N.am      2 ALA2        0.0000 
     37 N          15.1000   -5.8700   -8.5500 N.am      2 ALA2        0.0000 
     38 N          15.3200   -4.8900   -9.6600 N.am      2 ALA2        0.0000 
     39 N          10.6400   -6.6800   -4.0800 N.am      2 ALA2        0.0000 
     40 N          18.8500   -4.4600  -10.5900 N.am      2 ALA2        0.0000 
     41 N          19.0700   -3.4700  -11.7100 N.am      2 ALA2        0.0000 
     42 N          17.3600   -4.7200   -9.1100 N.am      2 ALA2        0.0000 
     43 N          17.5900   -3.7400  -10.2200 N.am      2 ALA2        0.0000 
     44 N          18.1400   -3.8400   -8.1700 N.am      2 ALA2        0.0000 
     45 N          16.6500   -4.1100   -6.6800 N.am      2 ALA2        0.0000 
     46 N          16.8800   -3.1300   -7.8000 N.am      2 ALA2        0.0000 
     47 N          15.3900   -3.4000   -6.3100 N.am      2 ALA2        0.0000 
     48 N          15.6100   -2.4200   -7.4200 N.am      2 ALA2        0.0000 
     49 N          16.9800   -5.1900   -3.5300 N.am      2 ALA2        0.0000 
     50 N          17.2100   -4.2100   -4.6400 N.am      2 ALA2        0.0000 
     51 N          15.7200   -4.4800   -3.1500 N.am      2 ALA2        0.0000 
     52 N          15.9400   -3.5000   -4.2600 N.am      2 ALA2        0.0000 
     53 N          16.4900   -3.6000   -2.2200 N.am      2 ALA2        0.0000 
     54 N          15.2300   -2.8800   -1.8400 N.am      2 ALA2        0.0000 
     55 N          15.4500   -1.9000   -2.9500 N.am      2 ALA2        0.0000 
     56 OD1        16.2600   -4.5200  -13.2000 O.co2     3 ASP3        0.0000 
     57 OD1        16.4800   -3.5400  -14.3100 O.co2     3 ASP3        0.0000 
     58 CZ         14.2200   -4.6900  -13.7500 C.ar      4 PHE5        0.0000 
     59 CZ         12.2900   -6.9200  -10.0400 C.ar      4 PHE5        0.0000 
     60 CZ         12.5100   -5.9400  -11.1500 C.ar      4 PHE5        0.0000 
     61 CZ         14.1000   -7.7400   -8.3700 C.ar      4 PHE5        0.0000 
     62 CZ         12.6200   -8.0100   -6.8800 C.ar      4 PHE5        0.0000 
     63 CZ         12.8400   -7.0200   -7.9900 C.ar      4 PHE5        0.0000 
     64 CZ         13.0600   -6.0400   -9.1100 C.ar      4 PHE5        0.0000 
     65 CZ         13.2800   -5.0600  -10.2200 C.ar      4 PHE5        0.0000 
     66 CZ         10.9100   -9.2600   -4.2800 C.ar      4 PHE5        0.0000 
     67 CZ         11.1300   -8.2700   -5.3900 C.ar      4 PHE5        0.0000 
     68 CZ         11.5700   -6.3100   -7.6200 C.ar      4 PHE5        0.0000 
     69 CZ         16.1400   -7.5700   -7.8100 C.ar      4 PHE5        0.0000 
     70 CZ         14.6600   -7.8400   -6.3300 C.ar      4 PHE5        0.0000 
     71 CZ         14.8800   -6.8600   -7.4400 C.ar      4 PHE5        0.0000 
     72 CZ         13.1700   -8.1100   -4.8400 C.ar      4 PHE5        0.0000 
     73 CZ         13.3900   -7.1200   -5.9500 C.ar      4 PHE5        0.0000 
     74 CZ         13.8400   -5.1600   -8.1700 C.ar      4 PHE5        0.0000 
     75 CZ         14.0600   -4.1800   -9.2900 C.ar      4 PHE5        0.0000 
     76 CZ         16.9200   -6.6900   -6.8800 C.ar      4 PHE5        0.0000 
     77 CZ         17.1400   -5.7100   -7.9900 C.ar      4 PHE5        0.0000 
     78 CZ         15.4300   -6.9600   -5.3900 C.ar      4 PHE5        0.0000 
     79 CZ         15.6500   -5.9700   -6.5000 C.ar      4 PHE5        0.0000 
     80 CZ         14.1700   -6.2400   -5.0200 C.ar      4 PHE5        0.0000 
     81 CZ         14.8300   -3.3000   -8.3500 C.ar      4 PHE5        0.0000 
     82 CZ         17.6900   -5.8100   -5.9500 C.ar      4 PHE5        0.0000 
     83 CZ         17.9200   -4.8200   -7.0600 C.ar      4 PHE5        0.0000 
     84 CZ         16.2100   -6.0700   -4.4600 C.ar      4 PHE5        0.0000 
     85 CZ         16.4300   -5.0900   -5.5700 C.ar      4 PHE5        0.0000 
     86 CZ         14.1200   -2.6800   -5.9300 C.ar      4 PHE5        0.0000 
     87 CZ         12.8600   -1.9700   -5.5500 C.ar      4 PHE5        0.0000 
     88 CZ         14.6800   -2.7800   -3.8800 C.ar      4 PHE5        0.0000 
     89 CZ         13.4100   -2.0700   -3.5100 C.ar      4 PHE5        0.0000 
     90 CA         13.7700   -6.6600  -11.5300 C.3       5 GLY6        0.0000 
     91 CA         13.9900   -5.6700  -12.6400 C.3       5 GLY6        0.0000 
     92 CA         12.7300   -4.9600  -12.2600 C.3       5 GLY6        0.0000 
     93 CA         18.5200   -3.3700  -13.7500 C.3       5 GLY6        0.0000 
     94 CA         17.2600   -2.6600  -13.3800 C.3       5 GLY6        0.0000 
     95 CA         17.4800   -1.6800  -14.4900 C.3       5 GLY6        0.0000 
     96 CA         11.9100   -7.3900   -4.4600 C.3       5 GLY6        0.0000 
     97 CA         19.3000   -2.4900  -12.8200 C.3       5 GLY6        0.0000 
     98 CA         18.0300   -1.7800  -12.4400 C.3       5 GLY6        0.0000 
     99 CA         12.4600   -7.4900   -2.4100 C.3       5 GLY6        0.0000 
    100 CA         12.9000   -5.5300   -4.6400 C.3       5 GLY6        0.0000 
    101 CA         17.4700   -6.7900   -4.8400 C.3       5 GLY6        0.0000 
    102 CA         13.6800   -4.6500   -3.7100 C.3       5 GLY6        0.0000 
    103 CA         16.7600   -6.1700   -2.4100 C.3       5 GLY6        0.0000 
    104 CA         15.5000   -5.4600   -2.0400 C.3       5 GLY6        0.0000 
    105 CA         16.1600   -2.5200   -5.3700 C.3       5 GLY6        0.0000 
    106 CA         14.2300   -4.7500   -1.6600 C.3       5 GLY6        0.0000 
    107 CA         14.4500   -3.7600   -2.7700 C.3       5 GLY6        0.0000 
    108 CA         13.1900   -3.0500   -2.4000 C.3       5 GLY6        0.0000 
    109 DU         15.8800   -4.9900   -7.6200 H         6 CUB7        0.0000 
    110 DU         16.1000   -4.0100   -8.7300 H         6 CUB7        0.0000 
    111 DU         14.9400   -5.3600   -4.0800 H         6 CUB7        0.0000 
    112 DU         15.1700   -4.3800   -5.1900 H         6 CUB7        0.0000 
@<TRIPOS>BOND
@<TRIPOS>SUBSTRUCTURE
     1 SER1        1 GROUP   
     2 ALA2       27 GROUP   
     3 ASP3       56 GROUP   
     4 PHE5       58 GROUP   
     5 GLY6       90 GROUP   
     6 CUB7      109 GROUP   
@<TRIPOS>SET

