#    Name: 5oa0_2_SY9
#    Modification time : Fri May 22 19:12:15 2020

@<TRIPOS>MOLECULE
5oa0_2_SY9
   25    31     1     0     0
SMALL
NO_CHARGES


@<TRIPOS>ATOM
      1 CAV        -8.6310   38.0690  -15.6820 C.3       1 SY9601      0.0000 
      2 CAU        -9.8090   38.4920  -16.5530 C.3       1 SY9601      0.0000 
      3 CAT       -10.8720   37.3840  -16.5110 C.3       1 SY9601      0.0000 
      4 CAN       -11.4570   37.4210  -15.0930 C.3       1 SY9601      0.0000 
      5 CAK       -10.4100   37.1250  -14.0160 C.3       1 SY9601      0.0000 
      6 NAH       -10.9300   37.7170  -12.7530 N.am      1 SY9601      0.0000 
      7 CAA       -10.0760   38.7800  -12.3340 C.ar      1 SY9601      0.0000 
      8 CAF       -10.2100   39.6310  -11.2400 C.ar      1 SY9601      0.0000 
      9 CAE        -9.2640   40.6270  -11.0550 C.ar      1 SY9601      0.0000 
     10 CAD        -8.2080   40.7750  -11.9460 C.ar      1 SY9601      0.0000 
     11 CAC        -8.0740   39.9190  -13.0300 C.ar      1 SY9601      0.0000 
     12 CAB        -9.0070   38.9070  -13.2180 C.ar      1 SY9601      0.0000 
     13 CAG        -8.9900   37.7640  -14.2010 C.3       1 SY9601      0.0000 
     14 CAW        -7.8640   36.7800  -13.8260 C.3       1 SY9601      0.0000 
     15 CAX        -7.6690   35.9390  -15.0720 C.3       1 SY9601      0.0000 
     16 NAY        -7.9840   36.8220  -16.2040 N.4       1 SY9601      0.0000 
     17 CAS        -8.7810   36.1420  -17.2440 C.3       1 SY9601      0.0000 
     18 CAR       -10.2450   36.0490  -16.8930 C.2       1 SY9601      0.0000 
     19 CAQ       -10.9150   34.9020  -16.8570 C.2       1 SY9601      0.0000 
     20 CAP       -12.3520   34.8030  -16.4300 C.3       1 SY9601      0.0000 
     21 OAO       -12.5270   35.1610  -15.0430 O.3       1 SY9601      0.0000 
     22 CAM       -12.6950   36.5620  -14.7930 C.3       1 SY9601      0.0000 
     23 CAL       -13.0780   36.6620  -13.3010 C.3       1 SY9601      0.0000 
     24 CAI       -12.2390   37.5270  -12.3870 C.2       1 SY9601      0.0000 
     25 OAJ       -12.7120   37.9960  -11.3620 O.2       1 SY9601      0.0000 
@<TRIPOS>BOND
     1    1    2 1    
     2    1   13 1    
     3    1   16 1    
     4    2    3 1    
     5    3    4 1    
     6    3   18 1    
     7    4    5 1    
     8    4   22 1    
     9    5    6 1    
    10    5   13 1    
    11    6    7 1    
    12    6   24 am   
    13    7    8 ar   
    14    7   12 ar   
    15    8    9 ar   
    16    9   10 ar   
    17   10   11 ar   
    18   11   12 ar   
    19   12   13 1    
    20   13   14 1    
    21   14   15 1    
    22   15   16 1    
    23   16   17 1    
    24   17   18 1    
    25   18   19 2    
    26   19   20 1    
    27   20   21 1    
    28   21   22 1    
    29   22   23 1    
    30   23   24 1    
    31   24   25 2    
@<TRIPOS>SUBSTRUCTURE
     1 SY9601      1 GROUP   
@<TRIPOS>SET

