#    Name: 5oa0_3_SY9_CAVITY_N1_4
#    Modification time : Fri May 22 19:12:23 2020

@<TRIPOS>MOLECULE
5oa0_3_SY9_CAVITY_N1_4
  106     0     5     0     0
SMALL
NO_CHARGES


@<TRIPOS>ATOM
      1 OG         -4.5200   34.2700   10.8200 O.3       1 SER1        0.0000 
      2 OG         -6.4500   32.0400   14.5300 O.3       1 SER1        0.0000 
      3 OG         -7.7200   32.7500   14.9100 O.3       1 SER1        0.0000 
      4 OG         -8.5400   35.4300   13.0600 O.3       1 SER1        0.0000 
      5 OG         -3.9700   34.1700   12.8600 O.3       1 SER1        0.0000 
      6 OG         -3.7400   35.1500   11.7500 O.3       1 SER1        0.0000 
      7 OG         -5.9000   31.9400   16.5800 O.3       1 SER1        0.0000 
      8 OG         -5.4500   33.9000   14.3500 O.3       1 SER1        0.0000 
      9 OG         -5.2300   34.8800   13.2400 O.3       1 SER1        0.0000 
     10 OG         -6.9400   33.6300   15.8400 O.3       1 SER1        0.0000 
     11 OG         -6.2700   36.5800   12.5000 O.3       1 SER1        0.0000 
     12 OG         -6.0500   37.5600   11.3900 O.3       1 SER1        0.0000 
     13 OG         -7.3200   38.2700   11.7700 O.3       1 SER1        0.0000 
     14 OG         -5.1200   32.8200   17.5100 O.3       1 SER1        0.0000 
     15 OG         -4.9000   33.8000   16.4000 O.3       1 SER1        0.0000 
     16 OG         -6.1700   34.5100   16.7700 O.3       1 SER1        0.0000 
     17 OG         -6.5400   39.1500   12.7000 O.3       1 SER1        0.0000 
     18 OG         -0.3300   32.5400   16.2000 O.3       1 SER1        0.0000 
     19 OG         -0.1100   33.5200   15.0900 O.3       1 SER1        0.0000 
     20 OG         -4.3500   33.7000   18.4400 O.3       1 SER1        0.0000 
     21 OG         -5.6100   34.4100   18.8200 O.3       1 SER1        0.0000 
     22 OG          0.2200   32.4400   18.2500 O.3       1 SER1        0.0000 
     23 OG          0.4400   33.4200   17.1300 O.3       1 SER1        0.0000 
     24 OG          0.6700   34.4000   16.0200 O.3       1 SER1        0.0000 
     25 OG          2.4800   33.5900   17.6900 O.3       1 SER1        0.0000 
     26 N          -4.3000   35.2500    9.7100 N.am      2 ALA2        0.0000 
     27 O          -5.3400   36.9400    8.9700 O.2       2 ALA2        0.0000 
     28 N          -3.5200   36.1300   10.6400 N.am      2 ALA2        0.0000 
     29 N          -4.5600   37.8300    9.9000 N.am      2 ALA2        0.0000 
     30 N          -0.4400   34.6000   11.9300 N.am      2 ALA2        0.0000 
     31 N          -1.7000   35.3200   12.3100 N.am      2 ALA2        0.0000 
     32 N          -2.7500   37.0100   11.5700 N.am      2 ALA2        0.0000 
     33 N          -4.0100   37.7300   11.9500 N.am      2 ALA2        0.0000 
     34 N          -3.7900   38.7100   10.8400 N.am      2 ALA2        0.0000 
     35 N           0.1100   34.5000   13.9800 N.am      2 ALA2        0.0000 
     36 N          -1.6000   33.2500   16.5800 N.am      2 ALA2        0.0000 
     37 N          -0.9300   36.2000   13.2400 N.am      2 ALA2        0.0000 
     38 N          -2.8600   33.9700   16.9500 N.am      2 ALA2        0.0000 
     39 N          -2.6400   34.9500   15.8400 N.am      2 ALA2        0.0000 
     40 N          -2.1900   36.9100   13.6200 N.am      2 ALA2        0.0000 
     41 N          -4.1300   34.6800   17.3300 N.am      2 ALA2        0.0000 
     42 N          -0.8200   34.1400   17.5100 N.am      2 ALA2        0.0000 
     43 N          -0.6000   35.1200   16.4000 N.am      2 ALA2        0.0000 
     44 N          -0.3800   36.1000   15.2900 N.am      2 ALA2        0.0000 
     45 N          -0.1500   37.0800   14.1700 N.am      2 ALA2        0.0000 
     46 N          -1.6400   36.8100   15.6600 N.am      2 ALA2        0.0000 
     47 N           1.4400   35.2900   16.9500 N.am      2 ALA2        0.0000 
     48 CZ         -3.2600   33.5500   10.4400 C.ar      3 PHE5        0.0000 
     49 CZ         -3.0300   34.5400    9.3300 C.ar      3 PHE5        0.0000 
     50 CZ         -8.7600   34.4500   14.1700 C.ar      3 PHE5        0.0000 
     51 CZ         -2.7000   33.4500   12.4900 C.ar      3 PHE5        0.0000 
     52 CZ         -2.4800   34.4400   11.3700 C.ar      3 PHE5        0.0000 
     53 CZ         -2.2600   35.4200   10.2600 C.ar      3 PHE5        0.0000 
     54 CZ         -5.6800   32.9200   15.4600 C.ar      3 PHE5        0.0000 
     55 CZ         -6.7200   34.6100   14.7300 C.ar      3 PHE5        0.0000 
     56 CZ         -6.5000   35.5900   13.6200 C.ar      3 PHE5        0.0000 
     57 CZ         -8.2100   34.3500   16.2200 C.ar      3 PHE5        0.0000 
     58 CZ         -0.8900   32.6400   14.1600 C.ar      3 PHE5        0.0000 
     59 CZ         -0.6600   33.6200   13.0400 C.ar      3 PHE5        0.0000 
     60 CZ         -2.3700   32.3700   15.6400 C.ar      3 PHE5        0.0000 
     61 CZ         -2.1500   33.3500   14.5300 C.ar      3 PHE5        0.0000 
     62 CZ         -1.9300   34.3400   13.4200 C.ar      3 PHE5        0.0000 
     63 CZ         -3.8600   32.1000   17.1300 C.ar      3 PHE5        0.0000 
     64 CZ         -3.6400   33.0900   16.0200 C.ar      3 PHE5        0.0000 
     65 CZ         -3.4100   34.0700   14.9100 C.ar      3 PHE5        0.0000 
     66 CZ         -4.4600   35.7600   14.1700 C.ar      3 PHE5        0.0000 
     67 CZ         -4.2300   36.7400   13.0600 C.ar      3 PHE5        0.0000 
     68 CZ         -5.9400   35.5000   15.6600 C.ar      3 PHE5        0.0000 
     69 CZ         -5.7200   36.4800   14.5500 C.ar      3 PHE5        0.0000 
     70 CZ         -5.5000   37.4600   13.4400 C.ar      3 PHE5        0.0000 
     71 CZ         -5.2800   38.4400   12.3300 C.ar      3 PHE5        0.0000 
     72 CZ         -1.8200   32.2700   17.6900 C.ar      3 PHE5        0.0000 
     73 CZ         -3.0800   32.9900   18.0700 C.ar      3 PHE5        0.0000 
     74 CZ         -1.9700   37.8900   12.5100 C.ar      3 PHE5        0.0000 
     75 CZ         -4.5700   32.7200   19.5600 C.ar      3 PHE5        0.0000 
     76 CZ         -3.9000   35.6600   16.2200 C.ar      3 PHE5        0.0000 
     77 CZ         -3.6800   36.6400   15.1100 C.ar      3 PHE5        0.0000 
     78 CZ         -3.4600   37.6300   13.9900 C.ar      3 PHE5        0.0000 
     79 CZ         -3.2400   38.6100   12.8800 C.ar      3 PHE5        0.0000 
     80 CZ         -5.3900   35.4000   17.7100 C.ar      3 PHE5        0.0000 
     81 CZ         -1.4200   37.7900   14.5500 C.ar      3 PHE5        0.0000 
     82 CZ         -2.9000   37.5300   16.0400 C.ar      3 PHE5        0.0000 
     83 CZ         -2.6800   38.5100   14.9300 C.ar      3 PHE5        0.0000 
     84 CA         -6.0100   34.0000   12.3100 C.3       4 GLY6        0.0000 
     85 CA         -5.7900   34.9800   11.1900 C.3       4 GLY6        0.0000 
     86 CA         -5.5600   35.9600   10.0800 C.3       4 GLY6        0.0000 
     87 CA         -7.4900   33.7300   13.8000 C.3       4 GLY6        0.0000 
     88 CA         -7.2700   34.7100   12.6800 C.3       4 GLY6        0.0000 
     89 CA         -6.8300   36.6800   10.4600 C.3       4 GLY6        0.0000 
     90 CA         -8.3100   36.4100   11.9500 C.3       4 GLY6        0.0000 
     91 CA         -5.0100   35.8600   12.1300 C.3       4 GLY6        0.0000 
     92 CA         -5.8300   38.5400   10.2800 C.3       4 GLY6        0.0000 
     93 CA         -5.0500   39.4200   11.2100 C.3       4 GLY6        0.0000 
     94 CA         -0.5500   31.5600   17.3100 C.3       4 GLY6        0.0000 
     95 CA         -1.0400   33.1500   18.6200 C.3       4 GLY6        0.0000 
     96 CA         -3.5700   34.5800   19.3800 C.3       4 GLY6        0.0000 
     97 CA          2.7100   34.5700   16.5800 C.3       4 GLY6        0.0000 
     98 CA          1.2200   34.3000   18.0700 C.3       4 GLY6        0.0000 
     99 DU         -4.7900   36.8400   11.0200 H         5 CUB7        0.0000 
    100 DU         -3.1900   35.0500   13.8000 H         5 CUB7        0.0000 
    101 DU         -2.9700   36.0300   12.6800 H         5 CUB7        0.0000 
    102 DU         -4.6800   34.7800   15.2900 H         5 CUB7        0.0000 
    103 DU         -1.3700   34.2400   15.4700 H         5 CUB7        0.0000 
    104 DU         -1.1500   35.2200   14.3500 H         5 CUB7        0.0000 
    105 DU         -2.4200   35.9300   14.7300 H         5 CUB7        0.0000 
    106 DU          0.8900   35.3900   14.9100 H         5 CUB7        0.0000 
@<TRIPOS>BOND
@<TRIPOS>SUBSTRUCTURE
     1 SER1        1 GROUP   
     2 ALA2       26 GROUP   
     3 PHE5       48 GROUP   
     4 GLY6       84 GROUP   
     5 CUB7       99 GROUP   
@<TRIPOS>SET

