#    Name: 5oa0_1_SY9_CAVITY_N1_4
#    Modification time : Fri May 22 19:12:08 2020

@<TRIPOS>MOLECULE
5oa0_1_SY9_CAVITY_N1_4
  104     0     6     0     0
SMALL
NO_CHARGES


@<TRIPOS>ATOM
      1 OG         -0.3700    5.3700  -28.0200 O.3       1 SER1        0.0000 
      2 OG         -1.4100    7.0700  -28.7500 O.3       1 SER1        0.0000 
      3 OG         -3.9400    8.4900  -28.0000 O.3       1 SER1        0.0000 
      4 OG         -3.2700   11.4400  -31.3300 O.3       1 SER1        0.0000 
      5 OG         -4.5400   12.1500  -30.9600 O.3       1 SER1        0.0000 
      6 OG          1.8900    6.5200  -28.5700 O.3       1 SER1        0.0000 
      7 OG          0.6300    7.2400  -28.2000 O.3       1 SER1        0.0000 
      8 OG         -1.9000    8.6600  -27.4400 O.3       1 SER1        0.0000 
      9 OG         -1.6800    9.6400  -28.5500 O.3       1 SER1        0.0000 
     10 OG         -3.1600    9.3800  -27.0600 O.3       1 SER1        0.0000 
     11 OG         -2.9400   10.3600  -28.1800 O.3       1 SER1        0.0000 
     12 OG         -2.7200   11.3400  -29.2900 O.3       1 SER1        0.0000 
     13 OG         -3.9800   12.0500  -28.9100 O.3       1 SER1        0.0000 
     14 OG          0.3600    9.8100  -28.0000 O.3       1 SER1        0.0000 
     15 OG         -0.9000   10.5300  -27.6200 O.3       1 SER1        0.0000 
     16 OG          1.1400   10.6900  -27.0600 O.3       1 SER1        0.0000 
     17 OG          4.0700   14.7900  -30.9600 O.3       1 SER1        0.0000 
     18 OG          1.3200   15.2300  -29.0900 O.3       1 SER1        0.0000 
     19 OG          1.5400   16.2200  -30.2000 O.3       1 SER1        0.0000 
     20 OG          0.2700   16.9300  -29.8300 O.3       1 SER1        0.0000 
     21 OG          2.0900   16.1200  -28.1600 O.3       1 SER1        0.0000 
     22 OG          2.3100   17.1000  -29.2700 O.3       1 SER1        0.0000 
     23 N          -2.1200    7.6800  -26.3300 N.am      2 ALA2        0.0000 
     24 N          -1.2300   11.6100  -30.7800 N.am      2 ALA2        0.0000 
     25 N          -3.3900    8.3900  -25.9500 N.am      2 ALA2        0.0000 
     26 N          -2.5000   12.3200  -30.4000 N.am      2 ALA2        0.0000 
     27 N          -2.2800   13.3000  -31.5100 N.am      2 ALA2        0.0000 
     28 N           0.8100   11.7800  -30.2200 N.am      2 ALA2        0.0000 
     29 N          -0.4600   12.4900  -29.8400 N.am      2 ALA2        0.0000 
     30 N          -1.7200   13.2000  -29.4700 N.am      2 ALA2        0.0000 
     31 N          -1.5000   14.1800  -30.5800 N.am      2 ALA2        0.0000 
     32 N           3.6700    9.2700  -27.8200 N.am      2 ALA2        0.0000 
     33 N           2.8500   11.9400  -29.6700 N.am      2 ALA2        0.0000 
     34 N           3.0700   12.9300  -30.7800 N.am      2 ALA2        0.0000 
     35 N           1.8000   13.6400  -30.4000 N.am      2 ALA2        0.0000 
     36 N           0.5400   14.3500  -30.0200 N.am      2 ALA2        0.0000 
     37 N           0.7600   15.3300  -31.1400 N.am      2 ALA2        0.0000 
     38 N           1.2100   17.3000  -33.3600 N.am      2 ALA2        0.0000 
     39 N          -0.7200   15.0700  -29.6500 N.am      2 ALA2        0.0000 
     40 N           3.4000   11.8400  -27.6200 N.am      2 ALA2        0.0000 
     41 N           3.6200   12.8300  -28.7300 N.am      2 ALA2        0.0000 
     42 N           3.8500   13.8100  -29.8400 N.am      2 ALA2        0.0000 
     43 N           4.2900   15.7700  -32.0700 N.am      2 ALA2        0.0000 
     44 N           2.3600   13.5400  -28.3500 N.am      2 ALA2        0.0000 
     45 N           2.5800   14.5200  -29.4700 N.am      2 ALA2        0.0000 
     46 N           2.8000   15.5000  -30.5800 N.am      2 ALA2        0.0000 
     47 N           3.0300   16.4800  -31.6900 N.am      2 ALA2        0.0000 
     48 N           3.2500   17.4700  -32.8000 N.am      2 ALA2        0.0000 
     49 N           1.7600   17.2000  -31.3100 N.am      2 ALA2        0.0000 
     50 OD1         1.9800   18.1800  -32.4300 O.co2     3 ASP3        0.0000 
     51 OD1         0.5000   17.9100  -30.9400 O.co2     3 ASP3        0.0000 
     52 CZ         -2.6800    7.7800  -28.3700 C.ar      4 PHE5        0.0000 
     53 CZ         -2.4500    8.7600  -29.4900 C.ar      4 PHE5        0.0000 
     54 CZ          2.1200    7.5000  -29.6800 C.ar      4 PHE5        0.0000 
     55 CZ          0.8500    8.2200  -29.3100 C.ar      4 PHE5        0.0000 
     56 CZ         -0.4100    8.9300  -28.9300 C.ar      4 PHE5        0.0000 
     57 CZ         -0.1900    9.9100  -30.0400 C.ar      4 PHE5        0.0000 
     58 CZ          0.0300   10.8900  -31.1500 C.ar      4 PHE5        0.0000 
     59 CZ         -1.4600   10.6300  -29.6700 C.ar      4 PHE5        0.0000 
     60 CZ         -3.7600   13.0300  -30.0200 C.ar      4 PHE5        0.0000 
     61 CZ         -3.5400   14.0200  -31.1400 C.ar      4 PHE5        0.0000 
     62 CZ          2.8900    8.3900  -28.7500 C.ar      4 PHE5        0.0000 
     63 CZ          3.1100    9.3700  -29.8600 C.ar      4 PHE5        0.0000 
     64 CZ          1.8500   10.0800  -29.4900 C.ar      4 PHE5        0.0000 
     65 CZ          2.0700   11.0600  -30.6000 C.ar      4 PHE5        0.0000 
     66 CZ         -0.6800   11.5100  -28.7300 C.ar      4 PHE5        0.0000 
     67 CZ         -1.9400   12.2200  -28.3600 C.ar      4 PHE5        0.0000 
     68 CZ         -2.9900   13.9200  -29.0900 C.ar      4 PHE5        0.0000 
     69 CZ         -2.7600   14.9000  -30.2000 C.ar      4 PHE5        0.0000 
     70 CZ          3.8900   10.2500  -28.9300 C.ar      4 PHE5        0.0000 
     71 CZ          4.1100   11.2300  -30.0400 C.ar      4 PHE5        0.0000 
     72 CZ          0.1000   12.3900  -27.8000 C.ar      4 PHE5        0.0000 
     73 CZ         -0.9500   14.0800  -28.5300 C.ar      4 PHE5        0.0000 
     74 CZ         -2.2100   14.8000  -28.1600 C.ar      4 PHE5        0.0000 
     75 CZ         -1.9900   15.7800  -29.2700 C.ar      4 PHE5        0.0000 
     76 CZ         -1.7700   16.7600  -30.3800 C.ar      4 PHE5        0.0000 
     77 CZ          3.1800   10.8600  -26.5100 C.ar      4 PHE5        0.0000 
     78 CZ          1.9100   11.5800  -26.1300 C.ar      4 PHE5        0.0000 
     79 CZ          2.1400   12.5600  -27.2400 C.ar      4 PHE5        0.0000 
     80 CZ          0.8700   13.2700  -26.8700 C.ar      4 PHE5        0.0000 
     81 CZ          1.0900   14.2500  -27.9800 C.ar      4 PHE5        0.0000 
     82 CZ         -0.1700   14.9700  -27.6000 C.ar      4 PHE5        0.0000 
     83 CZ          2.9100   13.4400  -26.3100 C.ar      4 PHE5        0.0000 
     84 CZ          1.8700   15.1300  -27.0400 C.ar      4 PHE5        0.0000 
     85 CA         -1.6300    6.0900  -27.6400 C.3       5 GLY6        0.0000 
     86 CA         -2.9000    6.8000  -27.2600 C.3       5 GLY6        0.0000 
     87 CA          3.1600    5.8100  -28.9500 C.3       5 GLY6        0.0000 
     88 CA          3.3800    6.7900  -30.0600 C.3       5 GLY6        0.0000 
     89 CA          1.6700    5.5400  -27.4600 C.3       5 GLY6        0.0000 
     90 CA         -0.6400    7.9500  -27.8200 C.3       5 GLY6        0.0000 
     91 CA          3.9300    6.6900  -28.0200 C.3       5 GLY6        0.0000 
     92 CA          4.1600    7.6700  -29.1300 C.3       5 GLY6        0.0000 
     93 CA          1.4000    8.1200  -27.2600 C.3       5 GLY6        0.0000 
     94 CA          0.1400    8.8300  -26.8800 C.3       5 GLY6        0.0000 
     95 CA         -0.5000   16.0500  -30.7600 C.3       5 GLY6        0.0000 
     96 CA         -0.2800   17.0300  -31.8700 C.3       5 GLY6        0.0000 
     97 DU          2.6700    7.4000  -27.6400 H         6 CUB7        0.0000 
     98 DU          1.6300    9.1000  -28.3700 H         6 CUB7        0.0000 
     99 DU          0.5800   10.7900  -29.1100 H         6 CUB7        0.0000 
    100 DU          2.4000    9.9800  -27.4400 H         6 CUB7        0.0000 
    101 DU          2.6200   10.9600  -28.5500 H         6 CUB7        0.0000 
    102 DU          1.3600   11.6800  -28.1800 H         6 CUB7        0.0000 
    103 DU          1.5800   12.6600  -29.2900 H         6 CUB7        0.0000 
    104 DU          0.3200   13.3700  -28.9100 H         6 CUB7        0.0000 
@<TRIPOS>BOND
@<TRIPOS>SUBSTRUCTURE
     1 SER1        1 GROUP   
     2 ALA2       23 GROUP   
     3 ASP3       50 GROUP   
     4 PHE5       52 GROUP   
     5 GLY6       85 GROUP   
     6 CUB7       97 GROUP   
@<TRIPOS>SET

