#    Name: 5oa0_3_SY9
#    Modification time : Fri May 22 19:12:22 2020

@<TRIPOS>MOLECULE
5oa0_3_SY9
   25    31     1     0     0
SMALL
NO_CHARGES


@<TRIPOS>ATOM
      1 CAV        -1.0010   36.2220   14.3450 C.3       1 SY9602      0.0000 
      2 CAU        -1.9880   37.1670   15.0200 C.3       1 SY9602      0.0000 
      3 CAT        -3.4110   36.6870   14.7040 C.3       1 SY9602      0.0000 
      4 CAN        -3.5900   35.3690   15.4730 C.3       1 SY9602      0.0000 
      5 CAK        -2.5930   34.2840   15.0550 C.3       1 SY9602      0.0000 
      6 NAH        -2.4810   33.3520   16.2140 N.am      1 SY9602      0.0000 
      7 CAA        -1.1820   33.4270   16.7600 C.ar      1 SY9602      0.0000 
      8 CAF        -0.6720   32.7960   17.8900 C.ar      1 SY9602      0.0000 
      9 CAE         0.6480   33.0430   18.2510 C.ar      1 SY9602      0.0000 
     10 CAD         1.4440   33.9000   17.4960 C.ar      1 SY9602      0.0000 
     11 CAC         0.9320   34.5150   16.3650 C.ar      1 SY9602      0.0000 
     12 CAB        -0.3890   34.2740   15.9910 C.ar      1 SY9602      0.0000 
     13 CAG        -1.1290   34.7330   14.7630 C.3       1 SY9602      0.0000 
     14 CAW        -0.5650   34.0330   13.5150 C.3       1 SY9602      0.0000 
     15 CAX        -1.1490   34.8420   12.3760 C.3       1 SY9602      0.0000 
     16 NAY        -1.1690   36.2320   12.8650 N.4       1 SY9602      0.0000 
     17 CAS        -2.3690   36.9700   12.4190 C.3       1 SY9602      0.0000 
     18 CAR        -3.5910   36.5680   13.2010 C.2       1 SY9602      0.0000 
     19 CAQ        -4.6960   36.0900   12.6390 C.2       1 SY9602      0.0000 
     20 CAP        -5.8720   35.6140   13.4390 C.3       1 SY9602      0.0000 
     21 OAO        -5.5450   34.4510   14.2260 O.3       1 SY9602      0.0000 
     22 CAM        -4.9800   34.7280   15.5130 C.3       1 SY9602      0.0000 
     23 CAL        -4.9190   33.3720   16.2350 C.3       1 SY9602      0.0000 
     24 CAI        -3.6110   32.9990   16.8960 C.2       1 SY9602      0.0000 
     25 OAJ        -3.5750   32.4360   17.9690 O.2       1 SY9602      0.0000 
@<TRIPOS>BOND
     1    1    2 1    
     2    1   13 1    
     3    1   16 1    
     4    2    3 1    
     5    3    4 1    
     6    3   18 1    
     7    4    5 1    
     8    4   22 1    
     9    5    6 1    
    10    5   13 1    
    11    6    7 1    
    12    6   24 am   
    13    7    8 ar   
    14    7   12 ar   
    15    8    9 ar   
    16    9   10 ar   
    17   10   11 ar   
    18   11   12 ar   
    19   12   13 1    
    20   13   14 1    
    21   14   15 1    
    22   15   16 1    
    23   16   17 1    
    24   17   18 1    
    25   18   19 2    
    26   19   20 1    
    27   20   21 1    
    28   21   22 1    
    29   22   23 1    
    30   23   24 1    
    31   24   25 2    
@<TRIPOS>SUBSTRUCTURE
     1 SY9602      1 GROUP   
@<TRIPOS>SET

