#    Name: 5v0w_3_MYA
#    Modification time : Fri May 22 19:13:39 2020

@<TRIPOS>MOLECULE
5v0w_3_MYA
   63    65     1     0     0
SMALL
NO_CHARGES


@<TRIPOS>ATOM
      1 S1         12.3900  -70.5750   -3.9100 S.3       1 MYA501      0.0000 
      2 C2         12.2050  -71.9710   -2.8270 C.3       1 MYA501      0.0000 
      3 C3         13.4490  -72.0950   -1.9450 C.3       1 MYA501      0.0000 
      4 N4         13.4400  -73.3170   -1.1680 N.am      1 MYA501      0.0000 
      5 C5         13.2090  -73.2940    0.1430 C.2       1 MYA501      0.0000 
      6 O5         13.0020  -72.2630    0.7730 O.2       1 MYA501      0.0000 
      7 C6         13.1860  -74.6400    0.8270 C.3       1 MYA501      0.0000 
      8 C7         13.7020  -74.5670    2.2660 C.3       1 MYA501      0.0000 
      9 N8         15.0830  -74.1240    2.3150 N.am      1 MYA501      0.0000 
     10 C9         16.0920  -74.7930    1.7440 C.2       1 MYA501      0.0000 
     11 O9         15.9570  -75.8660    1.1820 O.2       1 MYA501      0.0000 
     12 C10        17.4500  -74.1320    1.8220 C.3       1 MYA501      0.0000 
     13 O10        17.4070  -73.1340    2.8640 O.3       1 MYA501      0.0000 
     14 C11        17.8990  -73.4640    0.5060 C.3       1 MYA501      0.0000 
     15 C12        19.1240  -72.6300    0.8200 C.3       1 MYA501      0.0000 
     16 C13        16.8100  -72.5440   -0.0360 C.3       1 MYA501      0.0000 
     17 C14        18.2980  -74.4950   -0.5410 C.3       1 MYA501      0.0000 
     18 N1A        17.0340  -68.6010   -3.8300 N.ar      1 MYA501      0.0000 
     19 O1A        23.5660  -73.7130    0.8530 O.co2     1 MYA501      0.0000 
     20 P1A        23.5310  -72.4280    1.6260 P.3       1 MYA501      0.0000 
     21 C1X        21.4880  -68.2220   -1.1790 C.3       1 MYA501      0.0000 
     22 C2A        18.2390  -68.1840   -4.2380 C.ar      1 MYA501      0.0000 
     23 O2A        24.5320  -72.1800    2.7180 O.co2     1 MYA501      0.0000 
     24 P2A        20.8920  -73.1110    2.6560 P.3       1 MYA501      0.0000 
     25 C2M        13.0800  -71.3300   -5.2410 C.2       1 MYA501      0.0000 
     26 O2M        13.0580  -72.5500   -5.3170 O.2       1 MYA501      0.0000 
     27 C2X        21.8830  -67.2790   -0.0560 C.3       1 MYA501      0.0000 
     28 O2X        21.5280  -65.9090   -0.3480 O.3       1 MYA501      0.0000 
     29 N3A        19.3150  -68.1380   -3.4270 N.ar      1 MYA501      0.0000 
     30 O3A        22.0260  -72.0850    2.1370 O.3       1 MYA501      0.0000 
     31 C3M        13.7270  -70.5410   -6.3520 C.3       1 MYA501      0.0000 
     32 C3X        23.3890  -67.5170    0.0020 C.3       1 MYA501      0.0000 
     33 O3X        24.0280  -66.7500   -1.0150 O.3       1 MYA501      0.0000 
     34 P3X        24.8270  -65.4190   -0.5800 P.3       1 MYA501      0.0000 
     35 C4A        19.2230  -68.5360   -2.1320 C.ar      1 MYA501      0.0000 
     36 O4A        19.9440  -72.2900    3.4980 O.co2     1 MYA501      0.0000 
     37 C4M        15.2350  -70.7780   -6.2640 C.3       1 MYA501      0.0000 
     38 C4X        23.5130  -69.0040   -0.3230 C.3       1 MYA501      0.0000 
     39 O4X        22.3180  -69.3710   -1.0110 O.3       1 MYA501      0.0000 
     40 C5A        17.9350  -69.0140   -1.6110 C.ar      1 MYA501      0.0000 
     41 O5A        21.4780  -74.3630    3.2400 O.co2     1 MYA501      0.0000 
     42 C5M        16.0370  -69.8410   -7.1870 C.3       1 MYA501      0.0000 
     43 C5X        23.5560  -69.8690    0.9360 C.3       1 MYA501      0.0000 
     44 O5X        23.6610  -71.2390    0.5430 O.3       1 MYA501      0.0000 
     45 C6A        16.8020  -69.0280   -2.5630 C.ar      1 MYA501      0.0000 
     46 N6A        15.5790  -69.4570   -2.1590 N.pl3     1 MYA501      0.0000 
     47 O6A        20.1440  -73.5080    1.3000 O.3       1 MYA501      0.0000 
     48 C6M        17.5310  -70.2080   -7.1800 C.3       1 MYA501      0.0000 
     49 N7A        18.1230  -69.3430   -0.3130 N.2       1 MYA501      0.0000 
     50 O7A        25.3840  -64.7910   -1.8370 O.co2     1 MYA501      0.0000 
     51 C7M        18.3690  -69.2440   -8.0140 C.3       1 MYA501      0.0000 
     52 C8A        19.4310  -69.1000   -0.0220 C.2       1 MYA501      0.0000 
     53 O8A        23.7110  -64.6310    0.0440 O.co2     1 MYA501      0.0000 
     54 C8M        18.2690  -69.5400   -9.5110 C.3       1 MYA501      0.0000 
     55 N9A        20.0720  -68.6090   -1.1070 N.pl3     1 MYA501      0.0000 
     56 O9A        25.8650  -65.9270    0.3910 O.co2     1 MYA501      0.0000 
     57 C9M        19.0290  -68.4870  -10.3310 C.3       1 MYA501      0.0000 
     58 CAM        18.9130  -68.7270  -11.8420 C.3       1 MYA501      0.0000 
     59 CBM        19.6880  -69.9700  -12.2620 C.3       1 MYA501      0.0000 
     60 CCM        19.6030  -70.2830  -13.7530 C.3       1 MYA501      0.0000 
     61 CDM        20.3040  -69.2630  -14.6420 C.3       1 MYA501      0.0000 
     62 CEM        20.2110  -69.6990  -16.1060 C.3       1 MYA501      0.0000 
     63 CFM        20.8820  -68.7160  -17.0640 C.3       1 MYA501      0.0000 
@<TRIPOS>BOND
     1    1    2 1    
     2    1   25 1    
     3    2    3 1    
     4    3    4 1    
     5    4    5 am   
     6    5    6 2    
     7    5    7 1    
     8    7    8 1    
     9    8    9 1    
    10    9   10 am   
    11   10   11 2    
    12   10   12 1    
    13   12   13 1    
    14   12   14 1    
    15   14   15 1    
    16   14   16 1    
    17   14   17 1    
    18   15   47 1    
    19   18   22 ar   
    20   18   45 ar   
    21   19   20 ar   
    22   20   23 ar   
    23   20   30 1    
    24   20   44 1    
    25   21   27 1    
    26   21   39 1    
    27   21   55 1    
    28   22   29 ar   
    29   24   30 1    
    30   24   36 ar   
    31   24   41 ar   
    32   24   47 1    
    33   25   26 2    
    34   25   31 1    
    35   27   28 1    
    36   27   32 1    
    37   29   35 ar   
    38   31   37 1    
    39   32   33 1    
    40   32   38 1    
    41   33   34 1    
    42   34   50 ar   
    43   34   53 ar   
    44   34   56 ar   
    45   35   40 ar   
    46   35   55 1    
    47   37   42 1    
    48   38   39 1    
    49   38   43 1    
    50   40   45 ar   
    51   40   49 1    
    52   42   48 1    
    53   43   44 1    
    54   45   46 1    
    55   48   51 1    
    56   49   52 2    
    57   51   54 1    
    58   52   55 1    
    59   54   57 1    
    60   57   58 1    
    61   58   59 1    
    62   59   60 1    
    63   60   61 1    
    64   61   62 1    
    65   62   63 1    
@<TRIPOS>SUBSTRUCTURE
     1 MYA501      1 GROUP   
@<TRIPOS>SET

