#    Name: 5v0w_1_MYA
#    Modification time : Fri May 22 19:13:22 2020

@<TRIPOS>MOLECULE
5v0w_1_MYA
   63    65     1     0     0
SMALL
NO_CHARGES


@<TRIPOS>ATOM
      1 S1         33.3430  -19.4520  -21.5360 S.3       1 MYA501      0.0000 
      2 C2         33.1120  -17.7700  -21.0220 C.3       1 MYA501      0.0000 
      3 C3         34.3290  -16.9510  -21.4360 C.3       1 MYA501      0.0000 
      4 N4         34.2990  -15.5950  -20.9010 N.am      1 MYA501      0.0000 
      5 C5         34.1290  -14.5400  -21.6840 C.2       1 MYA501      0.0000 
      6 O5         33.9720  -14.6370  -22.8980 O.2       1 MYA501      0.0000 
      7 C6         34.0940  -13.1980  -20.9700 C.3       1 MYA501      0.0000 
      8 C7         34.6500  -12.0540  -21.8240 C.3       1 MYA501      0.0000 
      9 N8         36.0350  -12.2650  -22.2420 N.am      1 MYA501      0.0000 
     10 C9         37.0310  -12.3610  -21.3680 C.2       1 MYA501      0.0000 
     11 O9         36.8960  -12.1930  -20.1710 O.2       1 MYA501      0.0000 
     12 C10        38.3860  -12.6790  -21.9440 C.3       1 MYA501      0.0000 
     13 O10        38.3300  -12.4130  -23.3460 O.3       1 MYA501      0.0000 
     14 C11        38.8170  -14.1370  -21.7020 C.3       1 MYA501      0.0000 
     15 C12        40.0650  -14.3900  -22.5430 C.3       1 MYA501      0.0000 
     16 C13        37.7300  -15.1330  -22.1080 C.3       1 MYA501      0.0000 
     17 C14        39.1240  -14.3010  -20.2250 C.3       1 MYA501      0.0000 
     18 N1A        38.0450  -20.4550  -23.1960 N.ar      1 MYA501      0.0000 
     19 O1A        44.4760  -13.7270  -21.7020 O.co2     1 MYA501      0.0000 
     20 P1A        44.4620  -13.8500  -23.1970 P.3       1 MYA501      0.0000 
     21 C1X        42.3990  -18.4930  -25.1620 C.3       1 MYA501      0.0000 
     22 C2A        39.2670  -21.0180  -23.3230 C.ar      1 MYA501      0.0000 
     23 O2A        45.4280  -13.0400  -24.0180 O.co2     1 MYA501      0.0000 
     24 P2A        41.8640  -12.5780  -23.1820 P.3       1 MYA501      0.0000 
     25 C2M        33.9770  -20.1080  -20.1270 C.2       1 MYA501      0.0000 
     26 O2M        33.9710  -19.4930  -19.0710 O.2       1 MYA501      0.0000 
     27 C2X        42.8040  -18.0120  -26.5420 C.3       1 MYA501      0.0000 
     28 O2X        42.4590  -18.9350  -27.5750 O.3       1 MYA501      0.0000 
     29 N3A        40.3020  -20.3710  -23.8720 N.ar      1 MYA501      0.0000 
     30 O3A        42.9830  -13.5540  -23.7780 O.3       1 MYA501      0.0000 
     31 C3M        34.5980  -21.4890  -20.1380 C.3       1 MYA501      0.0000 
     32 C3X        44.2970  -17.8610  -26.3760 C.3       1 MYA501      0.0000 
     33 O3X        44.9360  -19.1380  -26.4660 O.3       1 MYA501      0.0000 
     34 P3X        45.7020  -19.5560  -27.8260 P.3       1 MYA501      0.0000 
     35 C4A        40.1610  -19.0920  -24.3110 C.ar      1 MYA501      0.0000 
     36 O4A        40.9590  -12.3440  -24.3590 O.co2     1 MYA501      0.0000 
     37 C4M        36.1200  -21.2820  -20.1200 C.3       1 MYA501      0.0000 
     38 C4X        44.4240  -17.3550  -24.9500 C.3       1 MYA501      0.0000 
     39 O4X        43.2280  -17.7580  -24.2600 O.3       1 MYA501      0.0000 
     40 C5A        38.8610  -18.4160  -24.2010 C.ar      1 MYA501      0.0000 
     41 O5A        42.4270  -11.3900  -22.4610 O.co2     1 MYA501      0.0000 
     42 C5M        36.9080  -22.5960  -20.2350 C.3       1 MYA501      0.0000 
     43 C5X        44.5710  -15.8450  -24.9250 C.3       1 MYA501      0.0000 
     44 O5X        44.5960  -15.4020  -23.5740 O.3       1 MYA501      0.0000 
     45 C6A        37.7640  -19.2000  -23.6000 C.ar      1 MYA501      0.0000 
     46 N6A        36.5210  -18.6720  -23.4540 N.pl3     1 MYA501      0.0000 
     47 O6A        41.1010  -13.5070  -22.1010 O.3       1 MYA501      0.0000 
     48 C6M        38.4030  -22.3670  -20.0170 C.3       1 MYA501      0.0000 
     49 N7A        39.0130  -17.1760  -24.7160 N.2       1 MYA501      0.0000 
     50 O7A        46.1590  -20.9780  -27.6310 O.co2     1 MYA501      0.0000 
     51 C7M        39.2240  -23.6310  -20.3480 C.3       1 MYA501      0.0000 
     52 C8A        40.3060  -17.0680  -25.1230 C.2       1 MYA501      0.0000 
     53 O8A        44.6800  -19.4120  -28.9150 O.co2     1 MYA501      0.0000 
     54 C8M        39.1090  -24.7110  -19.2720 C.3       1 MYA501      0.0000 
     55 N9A        40.9780  -18.2140  -24.8820 N.pl3     1 MYA501      0.0000 
     56 O9A        46.8240  -18.5370  -27.9460 O.co2     1 MYA501      0.0000 
     57 C9M        39.8740  -25.9790  -19.6460 C.3       1 MYA501      0.0000 
     58 CAM        39.7980  -27.0500  -18.5530 C.3       1 MYA501      0.0000 
     59 CBM        40.6290  -26.6610  -17.3350 C.3       1 MYA501      0.0000 
     60 CCM        40.5040  -27.6830  -16.1950 C.3       1 MYA501      0.0000 
     61 CDM        41.1450  -29.0340  -16.5080 C.3       1 MYA501      0.0000 
     62 CEM        41.0390  -29.9970  -15.3230 C.3       1 MYA501      0.0000 
     63 CFM        41.5930  -31.3760  -15.6510 C.3       1 MYA501      0.0000 
@<TRIPOS>BOND
     1    1    2 1    
     2    1   25 1    
     3    2    3 1    
     4    3    4 1    
     5    4    5 am   
     6    5    6 2    
     7    5    7 1    
     8    7    8 1    
     9    8    9 1    
    10    9   10 am   
    11   10   11 2    
    12   10   12 1    
    13   12   13 1    
    14   12   14 1    
    15   14   15 1    
    16   14   16 1    
    17   14   17 1    
    18   15   47 1    
    19   18   22 ar   
    20   18   45 ar   
    21   19   20 ar   
    22   20   23 ar   
    23   20   30 1    
    24   20   44 1    
    25   21   27 1    
    26   21   39 1    
    27   21   55 1    
    28   22   29 ar   
    29   24   30 1    
    30   24   36 ar   
    31   24   41 ar   
    32   24   47 1    
    33   25   26 2    
    34   25   31 1    
    35   27   28 1    
    36   27   32 1    
    37   29   35 ar   
    38   31   37 1    
    39   32   33 1    
    40   32   38 1    
    41   33   34 1    
    42   34   50 ar   
    43   34   53 ar   
    44   34   56 ar   
    45   35   40 ar   
    46   35   55 1    
    47   37   42 1    
    48   38   39 1    
    49   38   43 1    
    50   40   45 ar   
    51   40   49 1    
    52   42   48 1    
    53   43   44 1    
    54   45   46 1    
    55   48   51 1    
    56   49   52 2    
    57   51   54 1    
    58   52   55 1    
    59   54   57 1    
    60   57   58 1    
    61   58   59 1    
    62   59   60 1    
    63   60   61 1    
    64   61   62 1    
    65   62   63 1    
@<TRIPOS>SUBSTRUCTURE
     1 MYA501      1 GROUP   
@<TRIPOS>SET

