#    Name: 5v0w_2_MYA
#    Modification time : Fri May 22 19:13:30 2020

@<TRIPOS>MOLECULE
5v0w_2_MYA
   63    65     1     0     0
SMALL
NO_CHARGES


@<TRIPOS>ATOM
      1 S1          5.9860  -39.9400  -54.8200 S.3       1 MYA501      0.0000 
      2 C2          6.2160  -39.6600  -56.5560 C.3       1 MYA501      0.0000 
      3 C3          4.9850  -38.9900  -57.1730 C.3       1 MYA501      0.0000 
      4 N4          5.1580  -38.8040  -58.6050 N.am      1 MYA501      0.0000 
      5 C5          5.2710  -37.6090  -59.1920 C.2       1 MYA501      0.0000 
      6 O5          5.3540  -36.5670  -58.5600 O.2       1 MYA501      0.0000 
      7 C6          5.2760  -37.6130  -60.7110 C.3       1 MYA501      0.0000 
      8 C7          4.6330  -36.3630  -61.3290 C.3       1 MYA501      0.0000 
      9 N8          3.2660  -36.1300  -60.8740 N.am      1 MYA501      0.0000 
     10 C9          2.2830  -36.9580  -61.2230 C.2       1 MYA501      0.0000 
     11 O9          2.4570  -37.9430  -61.9320 O.2       1 MYA501      0.0000 
     12 C10         0.9150  -36.5900  -60.7070 C.3       1 MYA501      0.0000 
     13 O10         0.9640  -35.2080  -60.3190 O.3       1 MYA501      0.0000 
     14 C11         0.4800  -37.4610  -59.5200 C.3       1 MYA501      0.0000 
     15 C12        -0.7520  -36.8030  -58.9030 C.3       1 MYA501      0.0000 
     16 C13         1.5690  -37.5400  -58.4530 C.3       1 MYA501      0.0000 
     17 C14         0.1630  -38.8730  -60.0070 C.3       1 MYA501      0.0000 
     18 N1A         1.2660  -38.9640  -53.1210 N.ar      1 MYA501      0.0000 
     19 O1A        -5.1650  -37.2380  -59.8710 O.co2     1 MYA501      0.0000 
     20 P1A        -5.1350  -35.9480  -59.1100 P.3       1 MYA501      0.0000 
     21 C1X        -3.0550  -36.2710  -54.0700 C.3       1 MYA501      0.0000 
     22 C2A         0.0360  -39.0800  -52.5890 C.ar      1 MYA501      0.0000 
     23 O2A        -6.1550  -34.8620  -59.3980 O.co2     1 MYA501      0.0000 
     24 P2A        -2.5200  -35.3550  -60.2470 P.3       1 MYA501      0.0000 
     25 C2M         5.3800  -41.5150  -54.8670 C.2       1 MYA501      0.0000 
     26 O2M         5.3950  -42.1800  -55.8980 O.2       1 MYA501      0.0000 
     27 C2X        -3.4680  -34.8180  -53.8860 C.3       1 MYA501      0.0000 
     28 O2X        -3.1080  -34.3280  -52.6000 O.3       1 MYA501      0.0000 
     29 N3A        -0.9810  -38.2730  -52.9300 N.ar      1 MYA501      0.0000 
     30 O3A        -3.6430  -35.3040  -59.1070 O.3       1 MYA501      0.0000 
     31 C3M         4.7850  -42.1370  -53.6230 C.3       1 MYA501      0.0000 
     32 C3X        -4.9660  -34.8900  -54.0990 C.3       1 MYA501      0.0000 
     33 O3X        -5.6500  -35.3850  -52.9450 O.3       1 MYA501      0.0000 
     34 P3X        -6.3690  -34.3740  -51.9090 P.3       1 MYA501      0.0000 
     35 C4A        -0.8200  -37.3270  -53.8780 C.ar      1 MYA501      0.0000 
     36 O4A        -1.5740  -34.2100  -59.9500 O.co2     1 MYA501      0.0000 
     37 C4M         3.2550  -42.1180  -53.8100 C.3       1 MYA501      0.0000 
     38 C4X        -5.1010  -35.9460  -55.1760 C.3       1 MYA501      0.0000 
     39 O4X        -3.9070  -36.7430  -55.1240 O.3       1 MYA501      0.0000 
     40 C5A         0.4830  -37.1560  -54.5280 C.ar      1 MYA501      0.0000 
     41 O5A        -3.1620  -35.5070  -61.6000 O.co2     1 MYA501      0.0000 
     42 C5M         2.4990  -42.6110  -52.5750 C.3       1 MYA501      0.0000 
     43 C5X        -5.2860  -35.3080  -56.5480 C.3       1 MYA501      0.0000 
     44 O5X        -5.1840  -36.3190  -57.5450 O.3       1 MYA501      0.0000 
     45 C6A         1.5650  -38.0480  -54.0840 C.ar      1 MYA501      0.0000 
     46 N6A         2.8080  -37.9440  -54.6340 N.pl3     1 MYA501      0.0000 
     47 O6A        -1.7550  -36.7320  -59.9140 O.3       1 MYA501      0.0000 
     48 C6M         0.9860  -42.6360  -52.8520 C.3       1 MYA501      0.0000 
     49 N7A         0.3580  -36.1550  -55.4180 N.2       1 MYA501      0.0000 
     50 O7A        -6.7970  -35.2050  -50.7190 O.co2     1 MYA501      0.0000 
     51 C7M         0.1250  -42.8850  -51.6100 C.3       1 MYA501      0.0000 
     52 C8A        -0.9300  -35.7190  -55.3500 C.2       1 MYA501      0.0000 
     53 O8A        -5.3050  -33.3610  -51.5670 O.co2     1 MYA501      0.0000 
     54 C8M         0.2400  -44.3320  -51.1290 C.3       1 MYA501      0.0000 
     55 N9A        -1.6270  -36.4200  -54.4230 N.pl3     1 MYA501      0.0000 
     56 O9A        -7.5230  -33.7880  -52.7080 O.co2     1 MYA501      0.0000 
     57 C9M        -0.5930  -44.5810  -49.8670 C.3       1 MYA501      0.0000 
     58 CAM        -0.5010  -46.0380  -49.3840 C.3       1 MYA501      0.0000 
     59 CBM        -1.2390  -47.0010  -50.3100 C.3       1 MYA501      0.0000 
     60 CCM        -1.1310  -48.4600  -49.8490 C.3       1 MYA501      0.0000 
     61 CDM        -1.8870  -48.7830  -48.5540 C.3       1 MYA501      0.0000 
     62 CEM        -1.7140  -50.2570  -48.1760 C.3       1 MYA501      0.0000 
     63 CFM        -2.3010  -50.5550  -46.8110 C.3       1 MYA501      0.0000 
@<TRIPOS>BOND
     1    1    2 1    
     2    1   25 1    
     3    2    3 1    
     4    3    4 1    
     5    4    5 am   
     6    5    6 2    
     7    5    7 1    
     8    7    8 1    
     9    8    9 1    
    10    9   10 am   
    11   10   11 2    
    12   10   12 1    
    13   12   13 1    
    14   12   14 1    
    15   14   15 1    
    16   14   16 1    
    17   14   17 1    
    18   15   47 1    
    19   18   22 ar   
    20   18   45 ar   
    21   19   20 ar   
    22   20   23 ar   
    23   20   30 1    
    24   20   44 1    
    25   21   27 1    
    26   21   39 1    
    27   21   55 1    
    28   22   29 ar   
    29   24   30 1    
    30   24   36 ar   
    31   24   41 ar   
    32   24   47 1    
    33   25   26 2    
    34   25   31 1    
    35   27   28 1    
    36   27   32 1    
    37   29   35 ar   
    38   31   37 1    
    39   32   33 1    
    40   32   38 1    
    41   33   34 1    
    42   34   50 ar   
    43   34   53 ar   
    44   34   56 ar   
    45   35   40 ar   
    46   35   55 1    
    47   37   42 1    
    48   38   39 1    
    49   38   43 1    
    50   40   45 ar   
    51   40   49 1    
    52   42   48 1    
    53   43   44 1    
    54   45   46 1    
    55   48   51 1    
    56   49   52 2    
    57   51   54 1    
    58   52   55 1    
    59   54   57 1    
    60   57   58 1    
    61   58   59 1    
    62   59   60 1    
    63   60   61 1    
    64   61   62 1    
    65   62   63 1    
@<TRIPOS>SUBSTRUCTURE
     1 MYA501      1 GROUP   
@<TRIPOS>SET

