#    Name: 6q4n_2_FUA_CAVITY_N1_4
#    Modification time : Fri May 22 19:33:35 2020

@<TRIPOS>MOLECULE
6q4n_2_FUA_CAVITY_N1_4
   21     0     2     0     0
SMALL
NO_CHARGES


@<TRIPOS>ATOM
      1 CA         41.4200  -29.1800  -71.9700 C.3       1 GLY6        0.0000 
      2 CA         41.7900  -30.2600  -70.9900 C.3       1 GLY6        0.0000 
      3 CA         42.4100  -29.2300  -70.0900 C.3       1 GLY6        0.0000 
      4 CA         42.7800  -30.3100  -69.1200 C.3       1 GLY6        0.0000 
      5 CA         43.1500  -31.3900  -68.1500 C.3       1 GLY6        0.0000 
      6 CA         43.9700  -27.3000  -70.8600 C.3       1 GLY6        0.0000 
      7 CA         42.6500  -27.1300  -70.1600 C.3       1 GLY6        0.0000 
      8 CA         43.7700  -30.3600  -67.2400 C.3       1 GLY6        0.0000 
      9 CA         44.1400  -31.4400  -66.2700 C.3       1 GLY6        0.0000 
     10 CA         44.2100  -25.2000  -70.9300 C.3       1 GLY6        0.0000 
     11 CA         44.9600  -27.3500  -68.9900 C.3       1 GLY6        0.0000 
     12 CA         43.6400  -27.1800  -68.2900 C.3       1 GLY6        0.0000 
     13 CA         45.3300  -28.4300  -68.0100 C.3       1 GLY6        0.0000 
     14 CA         44.0200  -28.2600  -67.3200 C.3       1 GLY6        0.0000 
     15 DU         42.0400  -28.1500  -71.0700 H         2 CUB7        0.0000 
     16 DU         43.5300  -32.4700  -67.1700 H         2 CUB7        0.0000 
     17 DU         43.6000  -26.2200  -71.8400 H         2 CUB7        0.0000 
     18 DU         44.3400  -28.3800  -69.8900 H         2 CUB7        0.0000 
     19 DU         43.0300  -28.2000  -69.1900 H         2 CUB7        0.0000 
     20 DU         44.7100  -29.4600  -68.9200 H         2 CUB7        0.0000 
     21 DU         43.4000  -29.2800  -68.2200 H         2 CUB7        0.0000 
@<TRIPOS>BOND
@<TRIPOS>SUBSTRUCTURE
     1 GLY6        1 GROUP   
     2 CUB7       15 GROUP   
@<TRIPOS>SET

