#    Name: 6q4n_2_FUA
#    Modification time : Fri May 22 19:33:34 2020

@<TRIPOS>MOLECULE
6q4n_2_FUA
   37    40     1     0     0
SMALL
NO_CHARGES


@<TRIPOS>ATOM
      1 C1         47.5230  -29.2920  -67.9010 C.3       1 FUA1101     0.0000 
      2 C2         48.2640  -28.0680  -67.3710 C.3       1 FUA1101     0.0000 
      3 C3         49.4360  -27.7140  -68.2550 C.3       1 FUA1101     0.0000 
      4 C4         49.0820  -27.6110  -69.7450 C.3       1 FUA1101     0.0000 
      5 C5         48.2920  -28.8580  -70.2350 C.3       1 FUA1101     0.0000 
      6 C6         48.0000  -28.7970  -71.7380 C.3       1 FUA1101     0.0000 
      7 C7         46.8730  -29.7330  -72.1660 C.3       1 FUA1101     0.0000 
      8 C8         46.7310  -30.9680  -71.2690 C.3       1 FUA1101     0.0000 
      9 C9         46.3200  -30.4540  -69.8480 C.3       1 FUA1101     0.0000 
     10 C10        47.0320  -29.1490  -69.3570 C.3       1 FUA1101     0.0000 
     11 C11        46.1570  -31.6180  -68.8310 C.3       1 FUA1101     0.0000 
     12 C12        45.2320  -32.7270  -69.3350 C.3       1 FUA1101     0.0000 
     13 C13        45.5580  -33.1490  -70.7880 C.3       1 FUA1101     0.0000 
     14 C14        45.5640  -31.9200  -71.7290 C.3       1 FUA1101     0.0000 
     15 C15        45.7030  -32.6330  -73.0950 C.3       1 FUA1101     0.0000 
     16 C16        44.7600  -33.8280  -72.9730 C.3       1 FUA1101     0.0000 
     17 C17        44.5300  -34.0220  -71.4820 C.2       1 FUA1101     0.0000 
     18 C18        50.3340  -27.3300  -70.5870 C.3       1 FUA1101     0.0000 
     19 C19        46.0420  -27.9620  -69.4030 C.3       1 FUA1101     0.0000 
     20 C20        48.0870  -31.7240  -71.3010 C.3       1 FUA1101     0.0000 
     21 C21        44.1950  -31.2030  -71.7540 C.3       1 FUA1101     0.0000 
     22 C22        43.6170  -34.8650  -70.9590 C.2       1 FUA1101     0.0000 
     23 C23        43.5490  -35.0800  -69.4650 C.3       1 FUA1101     0.0000 
     24 C24        43.6300  -36.5560  -69.1280 C.3       1 FUA1101     0.0000 
     25 C25        43.3920  -36.8210  -67.6810 C.2       1 FUA1101     0.0000 
     26 C26        42.8440  -37.8910  -67.1320 C.2       1 FUA1101     0.0000 
     27 C27        42.5600  -37.9960  -65.6660 C.3       1 FUA1101     0.0000 
     28 C28        42.4810  -39.1070  -67.9270 C.3       1 FUA1101     0.0000 
     29 C29        42.7420  -35.5130  -71.7290 C.2       1 FUA1101     0.0000 
     30 C31        43.3580  -34.1060  -74.9110 C.2       1 FUA1101     0.0000 
     31 C32        44.5670  -34.0650  -75.7830 C.3       1 FUA1101     0.0000 
     32 O1         47.4060  -32.2040  -68.4530 O.3       1 FUA1101     0.0000 
     33 O2         43.5610  -33.5030  -73.7160 O.3       1 FUA1101     0.0000 
     34 O3         42.3050  -34.5930  -75.2090 O.2       1 FUA1101     0.0000 
     35 O4         41.5640  -35.4950  -71.3800 O.co2     1 FUA1101     0.0000 
     36 O5         43.1380  -36.1690  -72.6930 O.co2     1 FUA1101     0.0000 
     37 O6         50.4580  -28.6840  -68.0220 O.3       1 FUA1101     0.0000 
@<TRIPOS>BOND
     1    1    2 1    
     2    1   10 1    
     3    2    3 1    
     4    3    4 1    
     5    3   37 1    
     6    4    5 1    
     7    4   18 1    
     8    5    6 1    
     9    5   10 1    
    10    6    7 1    
    11    7    8 1    
    12    8    9 1    
    13    8   14 1    
    14    8   20 1    
    15    9   10 1    
    16    9   11 1    
    17   10   19 1    
    18   11   12 1    
    19   11   32 1    
    20   12   13 1    
    21   13   14 1    
    22   13   17 1    
    23   14   15 1    
    24   14   21 1    
    25   15   16 1    
    26   16   17 1    
    27   16   33 1    
    28   17   22 2    
    29   22   23 1    
    30   22   29 1    
    31   23   24 1    
    32   24   25 1    
    33   25   26 2    
    34   26   27 1    
    35   26   28 1    
    36   29   35 ar   
    37   29   36 ar   
    38   30   31 1    
    39   30   33 1    
    40   30   34 2    
@<TRIPOS>SUBSTRUCTURE
     1 FUA1101     1 GROUP   
@<TRIPOS>SET

