#    Name: 6s6t_5_FAD
#    Modification time : Fri May 22 19:33:18 2020

@<TRIPOS>MOLECULE
6s6t_5_FAD
   53    58     1     0     1
SMALL
NO_CHARGES


@<TRIPOS>ATOM
      1 PA        175.6630  257.8630  152.3670 P.3       1 FAD503      0.0000 
      2 O1A       174.8070  258.9020  151.7510 O.co2     1 FAD503      0.0000 
      3 O2A       174.9230  256.8010  153.1780 O.co2     1 FAD503      0.0000 
      4 O5B       176.5410  257.1540  151.2870 O.3       1 FAD503      0.0000 
      5 C5B       176.0020  256.8150  149.9930 C.3       1 FAD503      0.0000 
      6 C4B       176.3110  257.9220  149.0190 C.3       1 FAD503      0.0000 
      7 O4B       177.1670  257.4140  147.9720 O.3       1 FAD503      0.0000 
      8 C3B       175.1010  258.5120  148.3050 C.3       1 FAD503      0.0000 
      9 O3B       175.3320  259.8730  147.9620 O.3       1 FAD503      0.0000 
     10 C2B       175.0030  257.6370  147.0560 C.3       1 FAD503      0.0000 
     11 O2B       174.3520  258.3210  145.9920 O.3       1 FAD503      0.0000 
     12 C1B       176.4810  257.4240  146.7340 C.3       1 FAD503      0.0000 
     13 N9A       176.7700  256.1750  146.0400 N.pl3     1 FAD503      0.0000 
     14 C8A       176.5350  254.9040  146.4900 C.2       1 FAD503      0.0000 
     15 N7A       176.8980  253.9630  145.6530 N.2       1 FAD503      0.0000 
     16 C5A       177.4110  254.6660  144.5740 C.ar      1 FAD503      0.0000 
     17 C6A       177.9670  254.2520  143.3490 C.ar      1 FAD503      0.0000 
     18 N6A       178.1040  252.9730  142.9900 N.pl3     1 FAD503      0.0000 
     19 N1A       178.3820  255.2110  142.4920 N.ar      1 FAD503      0.0000 
     20 C2A       178.2490  256.4910  142.8470 C.ar      1 FAD503      0.0000 
     21 N3A       177.7430  257.0000  143.9710 N.ar      1 FAD503      0.0000 
     22 C4A       177.3390  256.0300  144.7990 C.ar      1 FAD503      0.0000 
     23 N1        170.2820  255.5930  157.8210 N.2       1 FAD503      0.0000 
     24 C2        169.3770  255.0790  156.9390 C.2       1 FAD503      0.0000 
     25 O2        169.7170  254.3140  156.0310 O.2       1 FAD503      0.0000 
     26 N3        168.0400  255.4140  157.0540 N.am      1 FAD503      0.0000 
     27 C4        167.4930  256.2470  158.0010 C.2       1 FAD503      0.0000 
     28 O4        166.2840  256.4720  158.0020 O.2       1 FAD503      0.0000 
     29 C4X       168.4620  256.7880  158.9330 C.2       1 FAD503      0.0000 
     30 N5        168.0330  257.5850  159.8630 N.2       1 FAD503      0.0000 
     31 C5X       168.9570  258.1020  160.7520 C.ar      1 FAD503      0.0000 
     32 C6        168.5130  258.9580  161.7550 C.ar      1 FAD503      0.0000 
     33 C7        169.4010  259.5040  162.6740 C.ar      1 FAD503      0.0000 
     34 C7M       168.8830  260.4260  163.7440 C.3       1 FAD503      0.0000 
     35 C8        170.7670  259.1870  162.5910 C.ar      1 FAD503      0.0000 
     36 C8M       171.7560  259.7600  163.5700 C.3       1 FAD503      0.0000 
     37 C9        171.2130  258.3310  161.5910 C.ar      1 FAD503      0.0000 
     38 C9A       170.3210  257.7900  160.6740 C.ar      1 FAD503      0.0000 
     39 N10       170.7400  256.9200  159.6500 N.pl3     1 FAD503      0.0000 
     40 C10       169.8370  256.4010  158.7600 C.2       1 FAD503      0.0000 
     41 C1'       172.1530  256.5530  159.5100 C.3       1 FAD503      0.0000 
     42 C2'       172.9670  257.5970  158.7550 C.3       1 FAD503      0.0000 
     43 O2'       172.0930  258.4930  158.0690 O.3       1 FAD503      0.0000 
     44 C3'       173.8780  256.8960  157.7480 C.3       1 FAD503      0.0000 
     45 O3'       174.5190  255.7990  158.3890 O.3       1 FAD503      0.0000 
     46 C4'       174.9510  257.8040  157.1460 C.3       1 FAD503      0.0000 
     47 O4'       174.3230  258.8900  156.4660 O.3       1 FAD503      0.0000 
     48 C5'       175.8790  257.0620  156.2080 C.3       1 FAD503      0.0000 
     49 O5'       176.8750  257.9790  155.7100 O.3       1 FAD503      0.0000 
     50 P         177.6090  257.7200  154.3420 P.3       1 FAD503      0.0000 
     51 O1P       178.9990  258.3610  154.3760 O.co2     1 FAD503      0.0000 
     52 O2P       177.5860  256.2860  153.9890 O.co2     1 FAD503      0.0000 
     53 O3P       176.7310  258.5390  153.3210 O.3       1 FAD503      0.0000 
@<TRIPOS>BOND
     1    1    2 ar   
     2    1    3 ar   
     3    1    4 1    
     4    1   53 1    
     5    4    5 1    
     6    5    6 1    
     7    6    7 1    
     8    6    8 1    
     9    7   12 1    
    10    8    9 1    
    11    8   10 1    
    12   10   11 1    
    13   10   12 1    
    14   12   13 1    
    15   13   14 1    
    16   13   22 1    
    17   14   15 2    
    18   15   16 1    
    19   16   17 ar   
    20   16   22 ar   
    21   17   18 1    
    22   17   19 ar   
    23   19   20 ar   
    24   20   21 ar   
    25   21   22 ar   
    26   23   24 1    
    27   23   40 2    
    28   24   25 2    
    29   24   26 am   
    30   26   27 am   
    31   27   28 2    
    32   27   29 1    
    33   29   30 2    
    34   29   40 1    
    35   30   31 1    
    36   31   32 ar   
    37   31   38 ar   
    38   32   33 ar   
    39   33   34 1    
    40   33   35 ar   
    41   35   36 1    
    42   35   37 ar   
    43   37   38 ar   
    44   38   39 1    
    45   39   40 1    
    46   39   41 1    
    47   41   42 1    
    48   42   43 1    
    49   42   44 1    
    50   44   45 1    
    51   44   46 1    
    52   46   47 1    
    53   46   48 1    
    54   48   49 1    
    55   49   50 1    
    56   50   51 ar   
    57   50   52 ar   
    58   50   53 1    
@<TRIPOS>SUBSTRUCTURE
     1 FAD503      1 GROUP   
@<TRIPOS>SET
ATOM$ORANGE STATIC     ATOMS   COLORGROUP SYSTEM 
54 5 5 6 6 8 8 10 10 12 12 14 14 16 16 17 17 20 \
20 22 22 24 24 27 27 29 29 31 31 32 32 33 33 34 34 35 \
35 36 36 37 37 38 38 40 40 41 41 42 42 44 44 46 46 48 \
48 

