#    Name: 6s6t_2_FMN
#    Modification time : Fri May 22 19:32:38 2020

@<TRIPOS>MOLECULE
6s6t_2_FMN
   31    33     1     0     1
SMALL
NO_CHARGES


@<TRIPOS>ATOM
      1 N1        165.4370  202.7730  226.0720 N.2       1 FMN1501     0.0000 
      2 C2        165.7710  203.7570  225.1650 C.2       1 FMN1501     0.0000 
      3 O2        166.8920  203.7730  224.6640 O.2       1 FMN1501     0.0000 
      4 N3        164.8520  204.7240  224.8160 N.am      1 FMN1501     0.0000 
      5 C4        163.5930  204.7110  225.3740 C.2       1 FMN1501     0.0000 
      6 O4        162.7720  205.5690  225.0660 O.2       1 FMN1501     0.0000 
      7 C4A       163.2520  203.7260  226.2870 C.2       1 FMN1501     0.0000 
      8 N5        161.9940  203.7140  226.8460 N.2       1 FMN1501     0.0000 
      9 C5A       161.6600  202.7330  227.7530 C.ar      1 FMN1501     0.0000 
     10 C6        160.3910  202.7210  228.3130 C.ar      1 FMN1501     0.0000 
     11 C7        160.0470  201.7360  229.2270 C.ar      1 FMN1501     0.0000 
     12 C7M       158.6750  201.7300  229.8290 C.3       1 FMN1501     0.0000 
     13 C8        160.9710  200.7610  229.5800 C.ar      1 FMN1501     0.0000 
     14 C8M       160.5980  199.6970  230.5680 C.3       1 FMN1501     0.0000 
     15 C9        162.2410  200.7710  229.0180 C.ar      1 FMN1501     0.0000 
     16 C9A       162.5870  201.7590  228.1040 C.ar      1 FMN1501     0.0000 
     17 N10       163.8470  201.7770  227.5420 N.pl3     1 FMN1501     0.0000 
     18 C10       164.1800  202.7560  226.6340 C.2       1 FMN1501     0.0000 
     19 C1'       164.8550  200.7320  227.9030 C.3       1 FMN1501     0.0000 
     20 C2'       165.7090  201.2160  229.0630 C.3       1 FMN1501     0.0000 
     21 O2'       166.5150  202.2880  228.6320 O.3       1 FMN1501     0.0000 
     22 C3'       166.5920  200.0860  229.5690 C.3       1 FMN1501     0.0000 
     23 O3'       167.3660  199.5840  228.5050 O.3       1 FMN1501     0.0000 
     24 C4'       165.7400  198.9670  230.1470 C.3       1 FMN1501     0.0000 
     25 O4'       164.6430  199.5210  230.8360 O.3       1 FMN1501     0.0000 
     26 C5'       166.5530  198.1190  231.1110 C.3       1 FMN1501     0.0000 
     27 O5'       165.7140  197.1360  231.6640 O.3       1 FMN1501     0.0000 
     28 P         165.8080  196.7940  233.2300 P.3       1 FMN1501     0.0000 
     29 O1P       165.0640  197.8760  233.9680 O.co2     1 FMN1501     0.0000 
     30 O2P       165.1850  195.4470  233.4970 O.co2     1 FMN1501     0.0000 
     31 O3P       167.2480  196.7880  233.6780 O.co2     1 FMN1501     0.0000 
@<TRIPOS>BOND
     1    1    2 1    
     2    1   18 2    
     3    2    3 2    
     4    2    4 am   
     5    4    5 am   
     6    5    6 2    
     7    5    7 1    
     8    7    8 2    
     9    7   18 1    
    10    8    9 1    
    11    9   10 ar   
    12    9   16 ar   
    13   10   11 ar   
    14   11   12 1    
    15   11   13 ar   
    16   13   14 1    
    17   13   15 ar   
    18   15   16 ar   
    19   16   17 1    
    20   17   18 1    
    21   17   19 1    
    22   19   20 1    
    23   20   21 1    
    24   20   22 1    
    25   22   23 1    
    26   22   24 1    
    27   24   25 1    
    28   24   26 1    
    29   26   27 1    
    30   27   28 1    
    31   28   29 ar   
    32   28   30 ar   
    33   28   31 ar   
@<TRIPOS>SUBSTRUCTURE
     1 FMN1501     1 GROUP   
@<TRIPOS>SET
ATOM$ORANGE STATIC     ATOMS   COLORGROUP SYSTEM 
34 2 2 5 5 7 7 9 9 10 10 11 11 12 12 13 13 14 \
14 15 15 16 16 18 18 19 19 20 20 22 22 24 24 26 26 

