#    Name: 6s6t_1_FMN
#    Modification time : Fri May 22 19:32:20 2020

@<TRIPOS>MOLECULE
6s6t_1_FMN
   31    33     1     0     1
SMALL
NO_CHARGES


@<TRIPOS>ATOM
      1 N1        193.9360  263.4900  205.0700 N.2       1 FMN1501     0.0000 
      2 C2        193.9810  263.9910  206.3520 C.2       1 FMN1501     0.0000 
      3 O2        194.9660  263.7870  207.0560 O.2       1 FMN1501     0.0000 
      4 N3        192.9250  264.7230  206.8500 N.am      1 FMN1501     0.0000 
      5 C4        191.8170  264.9570  206.0660 C.2       1 FMN1501     0.0000 
      6 O4        190.8700  265.6070  206.5010 O.2       1 FMN1501     0.0000 
      7 C4A       191.7680  264.4550  204.7790 C.2       1 FMN1501     0.0000 
      8 N5        190.6600  264.6890  204.0000 N.2       1 FMN1501     0.0000 
      9 C5A       190.6130  264.1890  202.7190 C.ar      1 FMN1501     0.0000 
     10 C6        189.4970  264.4270  201.9330 C.ar      1 FMN1501     0.0000 
     11 C7        189.4450  263.9260  200.6430 C.ar      1 FMN1501     0.0000 
     12 C7M       188.2380  264.1820  199.7940 C.3       1 FMN1501     0.0000 
     13 C8        190.5080  263.1900  200.1390 C.ar      1 FMN1501     0.0000 
     14 C8M       190.4520  262.6480  198.7430 C.3       1 FMN1501     0.0000 
     15 C9        191.6240  262.9530  200.9260 C.ar      1 FMN1501     0.0000 
     16 C9A       191.6780  263.4530  202.2190 C.ar      1 FMN1501     0.0000 
     17 N10       192.7830  263.2200  203.0070 N.pl3     1 FMN1501     0.0000 
     18 C10       192.8320  263.7230  204.2830 C.2       1 FMN1501     0.0000 
     19 C1'       193.9440  262.4360  202.4780 C.3       1 FMN1501     0.0000 
     20 C2'       193.7730  260.9620  202.8040 C.3       1 FMN1501     0.0000 
     21 O2'       193.7480  260.8200  204.2050 O.3       1 FMN1501     0.0000 
     22 C3'       194.9100  260.1330  202.2180 C.3       1 FMN1501     0.0000 
     23 O3'       196.1330  260.5150  202.8040 O.3       1 FMN1501     0.0000 
     24 C4'       194.9940  260.3180  200.7090 C.3       1 FMN1501     0.0000 
     25 O4'       193.6960  260.3600  200.1620 O.3       1 FMN1501     0.0000 
     26 C5'       195.7550  259.1770  200.0530 C.3       1 FMN1501     0.0000 
     27 O5'       195.5490  259.2690  198.6640 O.3       1 FMN1501     0.0000 
     28 P         195.0260  257.9900  197.8460 P.3       1 FMN1501     0.0000 
     29 O1P       193.5850  257.7620  198.2170 O.co2     1 FMN1501     0.0000 
     30 O2P       195.1410  258.2510  196.3660 O.co2     1 FMN1501     0.0000 
     31 O3P       195.8330  256.7730  198.2150 O.co2     1 FMN1501     0.0000 
@<TRIPOS>BOND
     1    1    2 1    
     2    1   18 2    
     3    2    3 2    
     4    2    4 am   
     5    4    5 am   
     6    5    6 2    
     7    5    7 1    
     8    7    8 2    
     9    7   18 1    
    10    8    9 1    
    11    9   10 ar   
    12    9   16 ar   
    13   10   11 ar   
    14   11   12 1    
    15   11   13 ar   
    16   13   14 1    
    17   13   15 ar   
    18   15   16 ar   
    19   16   17 1    
    20   17   18 1    
    21   17   19 1    
    22   19   20 1    
    23   20   21 1    
    24   20   22 1    
    25   22   23 1    
    26   22   24 1    
    27   24   25 1    
    28   24   26 1    
    29   26   27 1    
    30   27   28 1    
    31   28   29 ar   
    32   28   30 ar   
    33   28   31 ar   
@<TRIPOS>SUBSTRUCTURE
     1 FMN1501     1 GROUP   
@<TRIPOS>SET
ATOM$ORANGE STATIC     ATOMS   COLORGROUP SYSTEM 
34 2 2 5 5 7 7 9 9 10 10 11 11 12 12 13 13 14 \
14 15 15 16 16 18 18 19 19 20 20 22 22 24 24 26 26 

