#    Name: 6s6t_6_FAD
#    Modification time : Fri May 22 19:33:26 2020

@<TRIPOS>MOLECULE
6s6t_6_FAD
   53    58     1     0     1
SMALL
NO_CHARGES


@<TRIPOS>ATOM
      1 PA        263.4990  179.0010  155.3090 P.3       1 FAD503      0.0000 
      2 O1A       264.6180  178.2500  155.9180 O.co2     1 FAD503      0.0000 
      3 O2A       263.3250  180.4270  155.8280 O.co2     1 FAD503      0.0000 
      4 O5B       263.6130  179.0250  153.7510 O.3       1 FAD503      0.0000 
      5 C5B       262.4390  178.9750  152.9150 C.3       1 FAD503      0.0000 
      6 C4B       262.7470  178.1330  151.7050 C.3       1 FAD503      0.0000 
      7 O4B       261.9600  178.5810  150.5860 O.3       1 FAD503      0.0000 
      8 C3B       264.1790  178.2200  151.2060 C.3       1 FAD503      0.0000 
      9 O3B       265.0170  177.3440  151.9510 O.3       1 FAD503      0.0000 
     10 C2B       264.0420  177.7780  149.7480 C.3       1 FAD503      0.0000 
     11 O2B       264.1130  176.3630  149.6250 O.3       1 FAD503      0.0000 
     12 C1B       262.6360  178.2710  149.3800 C.3       1 FAD503      0.0000 
     13 N9A       262.6220  179.4520  148.5260 N.pl3     1 FAD503      0.0000 
     14 C8A       263.0530  180.7110  148.8450 C.2       1 FAD503      0.0000 
     15 N7A       262.9230  181.5830  147.8740 N.2       1 FAD503      0.0000 
     16 C5A       262.3640  180.8440  146.8430 C.ar      1 FAD503      0.0000 
     17 C6A       261.9760  181.1840  145.5340 C.ar      1 FAD503      0.0000 
     18 N6A       262.0960  182.4100  145.0170 N.pl3     1 FAD503      0.0000 
     19 N1A       261.4520  180.2080  144.7620 N.ar      1 FAD503      0.0000 
     20 C2A       261.3290  178.9800  145.2730 C.ar      1 FAD503      0.0000 
     21 N3A       261.6600  178.5420  146.4890 N.ar      1 FAD503      0.0000 
     22 C4A       262.1750  179.5290  147.2300 C.ar      1 FAD503      0.0000 
     23 N1        268.7550  180.7090  160.0920 N.2       1 FAD503      0.0000 
     24 C2        269.6280  181.1640  159.1460 C.2       1 FAD503      0.0000 
     25 O2        269.2450  181.8110  158.1670 O.2       1 FAD503      0.0000 
     26 N3        270.9790  180.9000  159.2760 N.am      1 FAD503      0.0000 
     27 C4        271.5730  180.1970  160.2970 C.2       1 FAD503      0.0000 
     28 O4        272.7910  180.0270  160.3040 O.2       1 FAD503      0.0000 
     29 C4X       270.6380  179.7180  161.2970 C.2       1 FAD503      0.0000 
     30 N5        271.1120  179.0420  162.3020 N.2       1 FAD503      0.0000 
     31 C5X       270.2200  178.5850  163.2560 C.ar      1 FAD503      0.0000 
     32 C6        270.7100  177.8600  164.3390 C.ar      1 FAD503      0.0000 
     33 C7        269.8540  177.3790  165.3230 C.ar      1 FAD503      0.0000 
     34 C7M       270.4200  176.5980  166.4800 C.3       1 FAD503      0.0000 
     35 C8        268.4750  177.6270  165.2240 C.ar      1 FAD503      0.0000 
     36 C8M       267.5200  177.1200  166.2720 C.3       1 FAD503      0.0000 
     37 C9        267.9820  178.3510  164.1450 C.ar      1 FAD503      0.0000 
     38 C9A       268.8420  178.8300  163.1650 C.ar      1 FAD503      0.0000 
     39 N10       268.3740  179.5650  162.0570 N.pl3     1 FAD503      0.0000 
     40 C10       269.2450  180.0270  161.1060 C.2       1 FAD503      0.0000 
     41 C1'       266.9440  179.8570  161.9010 C.3       1 FAD503      0.0000 
     42 C2'       266.1900  178.7750  161.1370 C.3       1 FAD503      0.0000 
     43 O2'       267.0650  178.1150  160.2220 O.3       1 FAD503      0.0000 
     44 C3'       265.0410  179.4140  160.3570 C.3       1 FAD503      0.0000 
     45 O3'       264.0310  179.8210  161.2720 O.3       1 FAD503      0.0000 
     46 C4'       264.4120  178.4970  159.3080 C.3       1 FAD503      0.0000 
     47 O4'       265.3310  178.3090  158.2320 O.3       1 FAD503      0.0000 
     48 C5'       263.0920  179.0190  158.7820 C.3       1 FAD503      0.0000 
     49 O5'       262.4650  177.9890  157.9890 O.3       1 FAD503      0.0000 
     50 P         261.3540  178.3290  156.9260 P.3       1 FAD503      0.0000 
     51 O1P       260.2970  177.2200  156.9340 O.co2     1 FAD503      0.0000 
     52 O2P       260.8160  179.6850  157.1010 O.co2     1 FAD503      0.0000 
     53 O3P       262.1370  178.2340  155.5600 O.3       1 FAD503      0.0000 
@<TRIPOS>BOND
     1    1    2 ar   
     2    1    3 ar   
     3    1    4 1    
     4    1   53 1    
     5    4    5 1    
     6    5    6 1    
     7    6    7 1    
     8    6    8 1    
     9    7   12 1    
    10    8    9 1    
    11    8   10 1    
    12   10   11 1    
    13   10   12 1    
    14   12   13 1    
    15   13   14 1    
    16   13   22 1    
    17   14   15 2    
    18   15   16 1    
    19   16   17 ar   
    20   16   22 ar   
    21   17   18 1    
    22   17   19 ar   
    23   19   20 ar   
    24   20   21 ar   
    25   21   22 ar   
    26   23   24 1    
    27   23   40 2    
    28   24   25 2    
    29   24   26 am   
    30   26   27 am   
    31   27   28 2    
    32   27   29 1    
    33   29   30 2    
    34   29   40 1    
    35   30   31 1    
    36   31   32 ar   
    37   31   38 ar   
    38   32   33 ar   
    39   33   34 1    
    40   33   35 ar   
    41   35   36 1    
    42   35   37 ar   
    43   37   38 ar   
    44   38   39 1    
    45   39   40 1    
    46   39   41 1    
    47   41   42 1    
    48   42   43 1    
    49   42   44 1    
    50   44   45 1    
    51   44   46 1    
    52   46   47 1    
    53   46   48 1    
    54   48   49 1    
    55   49   50 1    
    56   50   51 ar   
    57   50   52 ar   
    58   50   53 1    
@<TRIPOS>SUBSTRUCTURE
     1 FAD503      1 GROUP   
@<TRIPOS>SET
ATOM$ORANGE STATIC     ATOMS   COLORGROUP SYSTEM 
54 5 5 6 6 8 8 10 10 12 12 14 14 16 16 17 17 20 \
20 22 22 24 24 27 27 29 29 31 31 32 32 33 33 34 34 35 \
35 36 36 37 37 38 38 40 40 41 41 42 42 44 44 46 46 48 \
48 

