#    Name: 6s6t_7_FAD
#    Modification time : Fri May 22 19:33:35 2020

@<TRIPOS>MOLECULE
6s6t_7_FAD
   53    58     1     0     1
SMALL
NO_CHARGES


@<TRIPOS>ATOM
      1 PA        306.4140  272.5220  256.2060 P.3       1 FAD503      0.0000 
      2 O1A       307.8460  272.2990  255.8990 O.co2     1 FAD503      0.0000 
      3 O2A       305.9150  271.8150  257.4670 O.co2     1 FAD503      0.0000 
      4 O5B       306.1220  274.0630  256.3060 O.3       1 FAD503      0.0000 
      5 C5B       306.7770  274.8850  257.2940 C.3       1 FAD503      0.0000 
      6 C4B       307.4570  276.0460  256.6150 C.3       1 FAD503      0.0000 
      7 O4B       306.8770  277.2850  257.0840 O.3       1 FAD503      0.0000 
      8 C3B       308.9580  276.1600  256.8740 C.3       1 FAD503      0.0000 
      9 O3B       309.6380  276.6450  255.7230 O.3       1 FAD503      0.0000 
     10 C2B       309.0220  277.1530  258.0350 C.3       1 FAD503      0.0000 
     11 O2B       310.2510  277.8680  258.0610 O.3       1 FAD503      0.0000 
     12 C1B       307.8770  278.0940  257.6730 C.3       1 FAD503      0.0000 
     13 N9A       307.2920  278.7950  258.8120 N.pl3     1 FAD503      0.0000 
     14 C8A       306.6210  278.2390  259.8680 C.2       1 FAD503      0.0000 
     15 N7A       306.2000  279.1110  260.7530 N.2       1 FAD503      0.0000 
     16 C5A       306.6240  280.3280  260.2410 C.ar      1 FAD503      0.0000 
     17 C6A       306.4940  281.6490  260.7070 C.ar      1 FAD503      0.0000 
     18 N6A       305.8720  281.9790  261.8420 N.pl3     1 FAD503      0.0000 
     19 N1A       307.0360  282.6340  259.9570 N.ar      1 FAD503      0.0000 
     20 C2A       307.6590  282.3100  258.8210 C.ar      1 FAD503      0.0000 
     21 N3A       307.8430  281.1030  258.2820 N.ar      1 FAD503      0.0000 
     22 C4A       307.2990  280.1480  259.0460 C.ar      1 FAD503      0.0000 
     23 N1        307.6910  264.8190  258.2550 N.2       1 FAD503      0.0000 
     24 C2        308.5670  265.3090  259.1790 C.2       1 FAD503      0.0000 
     25 O2        308.2620  266.2420  259.9300 O.2       1 FAD503      0.0000 
     26 N3        309.8310  264.7560  259.2860 N.am      1 FAD503      0.0000 
     27 C4        310.3290  263.7190  258.5290 C.2       1 FAD503      0.0000 
     28 O4        311.4740  263.3110  258.7160 O.2       1 FAD503      0.0000 
     29 C4X       309.3910  263.2060  257.5510 C.2       1 FAD503      0.0000 
     30 N5        309.7760  262.2210  256.7920 N.2       1 FAD503      0.0000 
     31 C5X       308.8800  261.7330  255.8560 C.ar      1 FAD503      0.0000 
     32 C6        309.2750  260.6800  255.0340 C.ar      1 FAD503      0.0000 
     33 C7        308.4100  260.1540  254.0810 C.ar      1 FAD503      0.0000 
     34 C7M       308.8720  259.0150  253.2110 C.3       1 FAD503      0.0000 
     35 C8        307.1190  260.6900  253.9440 C.ar      1 FAD503      0.0000 
     36 C8M       306.1580  260.1450  252.9230 C.3       1 FAD503      0.0000 
     37 C9        306.7210  261.7410  254.7640 C.ar      1 FAD503      0.0000 
     38 C9A       307.5890  262.2630  255.7140 C.ar      1 FAD503      0.0000 
     39 N10       307.2170  263.3280  256.5580 N.pl3     1 FAD503      0.0000 
     40 C10       308.0920  263.8230  257.4900 C.2       1 FAD503      0.0000 
     41 C1'       305.8810  263.9280  256.4640 C.3       1 FAD503      0.0000 
     42 C2'       305.8050  265.0610  255.4480 C.3       1 FAD503      0.0000 
     43 O2'       307.1050  265.5960  255.2010 O.3       1 FAD503      0.0000 
     44 C3'       304.8950  266.1630  255.9900 C.3       1 FAD503      0.0000 
     45 O3'       303.6480  265.5900  256.3670 O.3       1 FAD503      0.0000 
     46 C4'       304.6430  267.2930  254.9910 C.3       1 FAD503      0.0000 
     47 O4'       305.8650  267.6000  254.3200 O.3       1 FAD503      0.0000 
     48 C5'       304.0720  268.5380  255.6340 C.3       1 FAD503      0.0000 
     49 O5'       304.8780  269.6730  255.2530 O.3       1 FAD503      0.0000 
     50 P         304.2460  271.1050  255.0840 P.3       1 FAD503      0.0000 
     51 O1P       303.4560  271.4890  256.3380 O.co2     1 FAD503      0.0000 
     52 O2P       303.4650  271.1750  253.8300 O.co2     1 FAD503      0.0000 
     53 O3P       305.5200  272.0500  254.9840 O.3       1 FAD503      0.0000 
@<TRIPOS>BOND
     1    1    2 ar   
     2    1    3 ar   
     3    1    4 1    
     4    1   53 1    
     5    4    5 1    
     6    5    6 1    
     7    6    7 1    
     8    6    8 1    
     9    7   12 1    
    10    8    9 1    
    11    8   10 1    
    12   10   11 1    
    13   10   12 1    
    14   12   13 1    
    15   13   14 1    
    16   13   22 1    
    17   14   15 2    
    18   15   16 1    
    19   16   17 ar   
    20   16   22 ar   
    21   17   18 1    
    22   17   19 ar   
    23   19   20 ar   
    24   20   21 ar   
    25   21   22 ar   
    26   23   24 1    
    27   23   40 2    
    28   24   25 2    
    29   24   26 am   
    30   26   27 am   
    31   27   28 2    
    32   27   29 1    
    33   29   30 2    
    34   29   40 1    
    35   30   31 1    
    36   31   32 ar   
    37   31   38 ar   
    38   32   33 ar   
    39   33   34 1    
    40   33   35 ar   
    41   35   36 1    
    42   35   37 ar   
    43   37   38 ar   
    44   38   39 1    
    45   39   40 1    
    46   39   41 1    
    47   41   42 1    
    48   42   43 1    
    49   42   44 1    
    50   44   45 1    
    51   44   46 1    
    52   46   47 1    
    53   46   48 1    
    54   48   49 1    
    55   49   50 1    
    56   50   51 ar   
    57   50   52 ar   
    58   50   53 1    
@<TRIPOS>SUBSTRUCTURE
     1 FAD503      1 GROUP   
@<TRIPOS>SET
ATOM$ORANGE STATIC     ATOMS   COLORGROUP SYSTEM 
54 5 5 6 6 8 8 10 10 12 12 14 14 16 16 17 17 20 \
20 22 22 24 24 27 27 29 29 31 31 32 32 33 33 34 34 35 \
35 36 36 37 37 38 38 40 40 41 41 42 42 44 44 46 46 48 \
48 

