#    Name: 6s6t_3_FMN
#    Modification time : Fri May 22 19:32:54 2020

@<TRIPOS>MOLECULE
6s6t_3_FMN
   31    33     1     0     1
SMALL
NO_CHARGES


@<TRIPOS>ATOM
      1 N1        245.1720  175.8250  208.1440 N.2       1 FMN1501     0.0000 
      2 C2        245.1190  175.4690  209.4740 C.2       1 FMN1501     0.0000 
      3 O2        244.0940  175.6650  210.1200 O.2       1 FMN1501     0.0000 
      4 N3        246.2110  174.8960  210.0840 N.am      1 FMN1501     0.0000 
      5 C4        247.3630  174.6750  209.3630 C.2       1 FMN1501     0.0000 
      6 O4        248.3410  174.1640  209.9000 O.2       1 FMN1501     0.0000 
      7 C4A       247.4210  175.0300  208.0270 C.2       1 FMN1501     0.0000 
      8 N5        248.5740  174.8090  207.3090 N.2       1 FMN1501     0.0000 
      9 C5A       248.6270  175.1640  205.9810 C.ar      1 FMN1501     0.0000 
     10 C6        249.7880  174.9400  205.2590 C.ar      1 FMN1501     0.0000 
     11 C7        249.8480  175.2950  203.9210 C.ar      1 FMN1501     0.0000 
     12 C7M       251.1010  175.0580  203.1340 C.3       1 FMN1501     0.0000 
     13 C8        248.7510  175.8690  203.3080 C.ar      1 FMN1501     0.0000 
     14 C8M       248.8310  176.2490  201.8620 C.3       1 FMN1501     0.0000 
     15 C9        247.5880  176.0940  204.0290 C.ar      1 FMN1501     0.0000 
     16 C9A       247.5260  175.7410  205.3690 C.ar      1 FMN1501     0.0000 
     17 N10       246.3730  175.9610  206.0930 N.pl3     1 FMN1501     0.0000 
     18 C10       246.3190  175.6050  207.4190 C.2       1 FMN1501     0.0000 
     19 C1'       245.1740  176.5810  205.4430 C.3       1 FMN1501     0.0000 
     20 C2'       245.1980  178.0810  205.6910 C.3       1 FMN1501     0.0000 
     21 O2'       245.0420  178.3010  207.0720 O.3       1 FMN1501     0.0000 
     22 C3'       244.0730  178.7900  204.9520 C.3       1 FMN1501     0.0000 
     23 O3'       242.8430  178.2510  205.3720 O.3       1 FMN1501     0.0000 
     24 C4'       244.2060  178.6380  203.4430 C.3       1 FMN1501     0.0000 
     25 O4'       245.5640  178.5680  203.0790 O.3       1 FMN1501     0.0000 
     26 C5'       243.5770  179.8270  202.7360 C.3       1 FMN1501     0.0000 
     27 O5'       243.8390  179.7500  201.3540 O.3       1 FMN1501     0.0000 
     28 P         243.8900  181.1050  200.4910 P.3       1 FMN1501     0.0000 
     29 O1P       245.2790  181.6720  200.6140 O.co2     1 FMN1501     0.0000 
     30 O2P       243.5730  180.8270  199.0440 O.co2     1 FMN1501     0.0000 
     31 O3P       242.9030  182.0970  201.0500 O.co2     1 FMN1501     0.0000 
@<TRIPOS>BOND
     1    1    2 1    
     2    1   18 2    
     3    2    3 2    
     4    2    4 am   
     5    4    5 am   
     6    5    6 2    
     7    5    7 1    
     8    7    8 2    
     9    7   18 1    
    10    8    9 1    
    11    9   10 ar   
    12    9   16 ar   
    13   10   11 ar   
    14   11   12 1    
    15   11   13 ar   
    16   13   14 1    
    17   13   15 ar   
    18   15   16 ar   
    19   16   17 1    
    20   17   18 1    
    21   17   19 1    
    22   19   20 1    
    23   20   21 1    
    24   20   22 1    
    25   22   23 1    
    26   22   24 1    
    27   24   25 1    
    28   24   26 1    
    29   26   27 1    
    30   27   28 1    
    31   28   29 ar   
    32   28   30 ar   
    33   28   31 ar   
@<TRIPOS>SUBSTRUCTURE
     1 FMN1501     1 GROUP   
@<TRIPOS>SET
ATOM$ORANGE STATIC     ATOMS   COLORGROUP SYSTEM 
34 2 2 5 5 7 7 9 9 10 10 11 11 12 12 13 13 14 \
14 15 15 16 16 18 18 19 19 20 20 22 22 24 24 26 26 

