#    Name: 6s6t_4_FMN
#    Modification time : Fri May 22 19:33:11 2020

@<TRIPOS>MOLECULE
6s6t_4_FMN
   31    33     1     0     1
SMALL
NO_CHARGES


@<TRIPOS>ATOM
      1 N1        273.3470  238.3790  225.1000 N.2       1 FMN1501     0.0000 
      2 C2        273.1190  237.4740  224.0840 C.2       1 FMN1501     0.0000 
      3 O2        272.0590  237.5030  223.4640 O.2       1 FMN1501     0.0000 
      4 N3        274.0730  236.5340  223.7560 N.am      1 FMN1501     0.0000 
      5 C4        275.2650  236.4950  224.4440 C.2       1 FMN1501     0.0000 
      6 O4        276.1230  235.6620  224.1600 O.2       1 FMN1501     0.0000 
      7 C4A       275.4970  237.4000  225.4640 C.2       1 FMN1501     0.0000 
      8 N5        276.6880  237.3530  226.1460 N.2       1 FMN1501     0.0000 
      9 C5A       276.9250  238.2490  227.1600 C.ar      1 FMN1501     0.0000 
     10 C6        278.1290  238.1950  227.8420 C.ar      1 FMN1501     0.0000 
     11 C7        278.3810  239.0930  228.8660 C.ar      1 FMN1501     0.0000 
     12 C7M       279.6840  239.0360  229.6040 C.3       1 FMN1501     0.0000 
     13 C8        277.4310  240.0420  229.2050 C.ar      1 FMN1501     0.0000 
     14 C8M       277.7100  241.0080  230.3140 C.3       1 FMN1501     0.0000 
     15 C9        276.2250  240.0960  228.5200 C.ar      1 FMN1501     0.0000 
     16 C9A       275.9690  239.1970  227.4950 C.ar      1 FMN1501     0.0000 
     17 N10       274.7700  239.2410  226.8120 N.pl3     1 FMN1501     0.0000 
     18 C10       274.5360  238.3450  225.7930 C.2       1 FMN1501     0.0000 
     19 C1'       273.7340  240.2690  227.1610 C.3       1 FMN1501     0.0000 
     20 C2'       272.7680  239.7420  228.2120 C.3       1 FMN1501     0.0000 
     21 O2'       271.8160  238.9080  227.5940 O.3       1 FMN1501     0.0000 
     22 C3'       272.0610  240.8950  228.9120 C.3       1 FMN1501     0.0000 
     23 O3'       271.6060  241.8130  227.9490 O.3       1 FMN1501     0.0000 
     24 C4'       273.0110  241.6070  229.8630 C.3       1 FMN1501     0.0000 
     25 O4'       273.3160  240.7500  230.9380 O.3       1 FMN1501     0.0000 
     26 C5'       272.4050  242.8840  230.4280 C.3       1 FMN1501     0.0000 
     27 O5'       273.4610  243.7270  230.8310 O.3       1 FMN1501     0.0000 
     28 P         273.3350  244.6760  232.1250 P.3       1 FMN1501     0.0000 
     29 O1P       273.7030  243.8640  233.3410 O.co2     1 FMN1501     0.0000 
     30 O2P       274.2780  245.8470  231.9870 O.co2     1 FMN1501     0.0000 
     31 O3P       271.9250  245.1820  232.2810 O.co2     1 FMN1501     0.0000 
@<TRIPOS>BOND
     1    1    2 1    
     2    1   18 2    
     3    2    3 2    
     4    2    4 am   
     5    4    5 am   
     6    5    6 2    
     7    5    7 1    
     8    7    8 2    
     9    7   18 1    
    10    8    9 1    
    11    9   10 ar   
    12    9   16 ar   
    13   10   11 ar   
    14   11   12 1    
    15   11   13 ar   
    16   13   14 1    
    17   13   15 ar   
    18   15   16 ar   
    19   16   17 1    
    20   17   18 1    
    21   17   19 1    
    22   19   20 1    
    23   20   21 1    
    24   20   22 1    
    25   22   23 1    
    26   22   24 1    
    27   24   25 1    
    28   24   26 1    
    29   26   27 1    
    30   27   28 1    
    31   28   29 ar   
    32   28   30 ar   
    33   28   31 ar   
@<TRIPOS>SUBSTRUCTURE
     1 FMN1501     1 GROUP   
@<TRIPOS>SET
ATOM$ORANGE STATIC     ATOMS   COLORGROUP SYSTEM 
34 2 2 5 5 7 7 9 9 10 10 11 11 12 12 13 13 14 \
14 15 15 16 16 18 18 19 19 20 20 22 22 24 24 26 26 

