#    Name: 5wmh_2_PLP
#    Modification time : Fri May 22 19:14:42 2020

@<TRIPOS>MOLECULE
5wmh_2_PLP
   15    15     1     0     0
SMALL
NO_CHARGES


@<TRIPOS>ATOM
      1 N1         17.0120   15.8280   28.4250 N.ar      1 PLP701      0.0000 
      2 C2         16.6970   16.4330   29.5600 C.ar      1 PLP701      0.0000 
      3 C2A        17.7530   16.5650   30.6720 C.3       1 PLP701      0.0000 
      4 C3         15.4260   16.9690   29.7250 C.ar      1 PLP701      0.0000 
      5 O3         15.0590   17.6530   30.8890 O.3       1 PLP701      0.0000 
      6 C4         14.5190   16.8230   28.6940 C.ar      1 PLP701      0.0000 
      7 C4A        13.1150   17.3640   28.9220 C.2       1 PLP701      0.0000 
      8 C5         14.8810   16.1540   27.5090 C.ar      1 PLP701      0.0000 
      9 C6         16.1820   15.6770   27.4260 C.ar      1 PLP701      0.0000 
     10 C5A        13.9270   15.9200   26.3050 C.3       1 PLP701      0.0000 
     11 O4P        13.0860   17.0030   26.0790 O.3       1 PLP701      0.0000 
     12 P          11.9200   16.7840   24.9870 P.3       1 PLP701      0.0000 
     13 O1P        12.4740   17.2880   23.6680 O.co2     1 PLP701      0.0000 
     14 O2P        11.5610   15.3430   24.9820 O.co2     1 PLP701      0.0000 
     15 O3P        10.6550   17.5490   25.2360 O.co2     1 PLP701      0.0000 
@<TRIPOS>BOND
     1    1    2 ar   
     2    1    9 ar   
     3    2    3 1    
     4    2    4 ar   
     5    4    5 1    
     6    4    6 ar   
     7    6    7 1    
     8    6    8 ar   
     9    8    9 ar   
    10    8   10 1    
    11   10   11 1    
    12   11   12 1    
    13   12   13 ar   
    14   12   14 ar   
    15   12   15 ar   
@<TRIPOS>SUBSTRUCTURE
     1 PLP701      1 GROUP   
@<TRIPOS>SET

