#    Name: 5wmh_1_PLP_CAVITY_N1_4
#    Modification time : Fri May 22 19:14:32 2020

@<TRIPOS>MOLECULE
5wmh_1_PLP_CAVITY_N1_4
   26     0     5     0     0
SMALL
NO_CHARGES


@<TRIPOS>ATOM
      1 OG          1.7500    5.7900    7.0000 O.3       1 SER1        0.0000 
      2 OG          3.1700    5.8300    8.5700 O.3       1 SER1        0.0000 
      3 OG          2.0600    5.7900    9.5800 O.3       1 SER1        0.0000 
      4 OG          0.9400    5.7600   10.5800 O.3       1 SER1        0.0000 
      5 O           1.5100    3.6700    4.4100 O.2       2 ALA2        0.0000 
      6 O           2.9300    3.7000    5.9900 O.2       2 ALA2        0.0000 
      7 N           2.1900    4.7500    5.2000 N.am      2 ALA2        0.0000 
      8 OD1         0.4000    3.6300    5.4200 O.co2     3 ASP3        0.0000 
      9 OD1         1.0700    4.7100    6.2100 O.co2     3 ASP3        0.0000 
     10 OD1        -0.4100    3.6000    9.0000 O.co2     3 ASP3        0.0000 
     11 OD1        -0.4700    5.7200    9.0100 O.co2     3 ASP3        0.0000 
     12 OD1        -1.5900    5.6800   10.0100 O.co2     3 ASP3        0.0000 
     13 OD1         3.9100    4.7800    9.3600 O.co2     3 ASP3        0.0000 
     14 CZ          1.8100    3.6700    6.9900 C.ar      4 PHE5        0.0000 
     15 CZ          0.7000    3.6300    8.0000 C.ar      4 PHE5        0.0000 
     16 CZ          3.6100    4.7800    6.7800 C.ar      4 PHE5        0.0000 
     17 CZ          2.8700    5.8200    5.9900 C.ar      4 PHE5        0.0000 
     18 CZ          2.4900    4.7500    7.7800 C.ar      4 PHE5        0.0000 
     19 CZ          1.3800    4.7100    8.7900 C.ar      4 PHE5        0.0000 
     20 CZ          0.2700    4.6800    9.7900 C.ar      4 PHE5        0.0000 
     21 CA         -0.8500    4.6400   10.7900 C.3       5 GLY6        0.0000 
     22 CA          2.8000    4.7500   10.3600 C.3       5 GLY6        0.0000 
     23 CA          1.6800    4.7100   11.3700 C.3       5 GLY6        0.0000 
     24 CA         -0.1700    5.7200   11.5900 C.3       5 GLY6        0.0000 
     25 CA         -0.9100    6.7600   10.8000 C.3       5 GLY6        0.0000 
     26 CA         -2.0200    6.7300   11.8000 C.3       5 GLY6        0.0000 
@<TRIPOS>BOND
@<TRIPOS>SUBSTRUCTURE
     1 SER1        1 GROUP   
     2 ALA2        5 GROUP   
     3 ASP3        8 GROUP   
     4 PHE5       14 GROUP   
     5 GLY6       21 GROUP   
@<TRIPOS>SET

