#    Name: 5wmh_4_PLP
#    Modification time : Fri May 22 19:15:04 2020

@<TRIPOS>MOLECULE
5wmh_4_PLP
   15    15     1     0     0
SMALL
NO_CHARGES


@<TRIPOS>ATOM
      1 N1        -36.7390  -64.5980   21.9960 N.ar      1 PLP701      0.0000 
      2 C2        -36.3180  -65.1210   20.8760 C.ar      1 PLP701      0.0000 
      3 C2A       -35.7010  -66.5100   20.8890 C.3       1 PLP701      0.0000 
      4 C3        -36.4750  -64.4610   19.7000 C.ar      1 PLP701      0.0000 
      5 O3        -36.0230  -65.0820   18.5310 O.3       1 PLP701      0.0000 
      6 C4        -37.0760  -63.2220   19.7300 C.ar      1 PLP701      0.0000 
      7 C4A       -37.1620  -62.3810   18.4520 C.2       1 PLP701      0.0000 
      8 C5        -37.5030  -62.6900   20.9320 C.ar      1 PLP701      0.0000 
      9 C6        -37.3000  -63.4270   22.0680 C.ar      1 PLP701      0.0000 
     10 C5A       -38.1340  -61.2920   21.1010 C.3       1 PLP701      0.0000 
     11 O4P       -39.1600  -60.9740   20.2080 O.3       1 PLP701      0.0000 
     12 P         -39.9110  -59.5370   20.4500 P.3       1 PLP701      0.0000 
     13 O1P       -40.4440  -59.0720   19.1600 O.co2     1 PLP701      0.0000 
     14 O2P       -38.9870  -58.5270   21.0690 O.co2     1 PLP701      0.0000 
     15 O3P       -41.0840  -59.7180   21.3790 O.co2     1 PLP701      0.0000 
@<TRIPOS>BOND
     1    1    2 ar   
     2    1    9 ar   
     3    2    3 1    
     4    2    4 ar   
     5    4    5 1    
     6    4    6 ar   
     7    6    7 1    
     8    6    8 ar   
     9    8    9 ar   
    10    8   10 1    
    11   10   11 1    
    12   11   12 1    
    13   12   13 ar   
    14   12   14 ar   
    15   12   15 ar   
@<TRIPOS>SUBSTRUCTURE
     1 PLP701      1 GROUP   
@<TRIPOS>SET

