#    Name: 5wmh_4_PLP_CAVITY_N1_6
#    Modification time : Fri May 22 19:15:05 2020

@<TRIPOS>MOLECULE
5wmh_4_PLP_CAVITY_N1_6
   40     0     6     0     0
SMALL
NO_CHARGES


@<TRIPOS>ATOM
      1 OG        -35.8400  -61.1200   16.7200 O.3       1 SER1        0.0000 
      2 OG        -36.9600  -61.1600   17.7300 O.3       1 SER1        0.0000 
      3 OG        -39.1800  -61.2300   19.7400 O.3       1 SER1        0.0000 
      4 OG        -35.5300  -57.9200   14.9400 O.3       1 SER1        0.0000 
      5 OG        -37.3900  -60.1100   19.5200 O.3       1 SER1        0.0000 
      6 O         -35.0300  -61.0900   13.1400 O.2       2 ALA2        0.0000 
      7 O         -34.6700  -63.2100   15.7100 O.2       2 ALA2        0.0000 
      8 O         -35.7800  -63.2400   16.7200 O.2       2 ALA2        0.0000 
      9 N         -36.5200  -62.2000   15.9300 N.am      2 ALA2        0.0000 
     10 O         -32.8700  -62.0900   15.5000 O.2       2 ALA2        0.0000 
     11 O         -33.9900  -62.1300   16.5100 O.2       2 ALA2        0.0000 
     12 O         -31.4500  -62.0600   17.0800 O.2       2 ALA2        0.0000 
     13 O         -32.1900  -61.0100   16.2900 O.2       2 ALA2        0.0000 
     14 O         -38.5000  -60.1500   20.5300 O.2       2 ALA2        0.0000 
     15 OD1       -34.2300  -64.2500   13.9200 O.co2     3 ASP3        0.0000 
     16 OD1       -31.7000  -64.1800   14.4900 O.co2     3 ASP3        0.0000 
     17 OD1       -32.8100  -64.2100   15.5000 O.co2     3 ASP3        0.0000 
     18 OD1       -33.5500  -63.1700   14.7100 O.co2     3 ASP3        0.0000 
     19 OD1       -37.3300  -62.2300   19.5200 O.co2     3 ASP3        0.0000 
     20 OD1       -38.4400  -62.2700   20.5200 O.co2     3 ASP3        0.0000 
     21 OD1       -34.0500  -60.0100   16.5100 O.co2     3 ASP3        0.0000 
     22 OD1       -34.7900  -58.9700   15.7300 O.co2     3 ASP3        0.0000 
     23 OD1       -35.1600  -60.0400   17.5100 O.co2     3 ASP3        0.0000 
     24 OD1       -35.9000  -59.0000   16.7300 O.co2     3 ASP3        0.0000 
     25 OD1       -36.2800  -60.0800   18.5200 O.co2     3 ASP3        0.0000 
     26 CZ        -36.1500  -61.1200   14.1400 C.ar      4 PHE5        0.0000 
     27 CZ        -35.4700  -60.0400   14.9300 C.ar      4 PHE5        0.0000 
     28 CZ        -36.2100  -59.0000   14.1500 C.ar      4 PHE5        0.0000 
     29 CZ        -35.1000  -62.1600   17.5100 C.ar      4 PHE5        0.0000 
     30 CZ        -36.5800  -60.0800   15.9400 C.ar      4 PHE5        0.0000 
     31 CZ        -36.2200  -62.2000   18.5100 C.ar      4 PHE5        0.0000 
     32 CZ        -33.3100  -61.0500   17.3000 C.ar      4 PHE5        0.0000 
     33 CZ        -32.6300  -59.9700   18.0900 C.ar      4 PHE5        0.0000 
     34 CA        -35.3400  -64.2900   14.9200 C.3       5 GLY6        0.0000 
     35 CA        -34.2900  -62.1300   13.9200 C.3       5 GLY6        0.0000 
     36 CA        -35.4100  -62.1600   14.9300 C.3       5 GLY6        0.0000 
     37 DU        -33.6100  -61.0500   14.7200 H         6 CUB7        0.0000 
     38 DU        -34.3500  -60.0100   13.9300 H         6 CUB7        0.0000 
     39 DU        -34.7300  -61.0900   15.7200 H         6 CUB7        0.0000 
     40 DU        -32.9300  -59.9700   15.5100 H         6 CUB7        0.0000 
@<TRIPOS>BOND
@<TRIPOS>SUBSTRUCTURE
     1 SER1        1 GROUP   
     2 ALA2        6 GROUP   
     3 ASP3       15 GROUP   
     4 PHE5       26 GROUP   
     5 GLY6       34 GROUP   
     6 CUB7       37 GROUP   
@<TRIPOS>SET

