#    Name: 5wmh_1_PLP_CAVITY_N1_8
#    Modification time : Fri May 22 19:14:32 2020

@<TRIPOS>MOLECULE
5wmh_1_PLP_CAVITY_N1_8
   90     0     6     0     0
SMALL
NO_CHARGES


@<TRIPOS>ATOM
      1 OG          1.7500    5.7900    7.0000 O.3       1 SER1        0.0000 
      2 OG          3.1700    5.8300    8.5700 O.3       1 SER1        0.0000 
      3 OG          2.0600    5.7900    9.5800 O.3       1 SER1        0.0000 
      4 OG          0.9400    5.7600   10.5800 O.3       1 SER1        0.0000 
      5 O           4.8500    0.5800    5.7600 O.2       2 ALA2        0.0000 
      6 O           4.1000    1.6200    4.9800 O.2       2 ALA2        0.0000 
      7 O           3.3600    2.6600    4.1900 O.2       2 ALA2        0.0000 
      8 O           1.5100    3.6700    4.4100 O.2       2 ALA2        0.0000 
      9 N           0.7700    4.7100    3.6300 N.am      2 ALA2        0.0000 
     10 O           3.6800    5.8600    2.4100 O.2       2 ALA2        0.0000 
     11 O           5.5200    1.6600    6.5500 O.2       2 ALA2        0.0000 
     12 O           4.7800    2.7000    5.7700 O.2       2 ALA2        0.0000 
     13 O           4.0400    3.7400    4.9800 O.2       2 ALA2        0.0000 
     14 O           2.9300    3.7000    5.9900 O.2       2 ALA2        0.0000 
     15 N           2.1900    4.7500    5.2000 N.am      2 ALA2        0.0000 
     16 N           1.4500    5.7900    4.4200 N.am      2 ALA2        0.0000 
     17 O           3.6100    7.9800    2.4200 O.2       2 ALA2        0.0000 
     18 N           7.1300    9.1300    6.3600 N.am      2 ALA2        0.0000 
     19 OD1         4.9100    1.6500    1.3900 O.co2     3 ASP3        0.0000 
     20 OD1         4.1700    2.6900    0.6100 O.co2     3 ASP3        0.0000 
     21 OD1         3.8000    1.6200    2.4000 O.co2     3 ASP3        0.0000 
     22 OD1         2.6900    1.5800    3.4000 O.co2     3 ASP3        0.0000 
     23 OD1         1.9400    2.6200    2.6200 O.co2     3 ASP3        0.0000 
     24 OD1         4.8500    3.7700    1.4000 O.co2     3 ASP3        0.0000 
     25 OD1         3.7400    3.7400    2.4000 O.co2     3 ASP3        0.0000 
     26 OD1         0.4000    3.6300    5.4200 O.co2     3 ASP3        0.0000 
     27 OD1         1.0700    4.7100    6.2100 O.co2     3 ASP3        0.0000 
     28 OD1        -0.4100    3.6000    9.0000 O.co2     3 ASP3        0.0000 
     29 OD1         6.5800    3.8100    5.5600 O.co2     3 ASP3        0.0000 
     30 OD1         5.4600    3.7800    6.5600 O.co2     3 ASP3        0.0000 
     31 OD1        -0.4700    5.7200    9.0100 O.co2     3 ASP3        0.0000 
     32 OD1        -1.5900    5.6800   10.0100 O.co2     3 ASP3        0.0000 
     33 OD1         8.0000    3.8500    7.1300 O.co2     3 ASP3        0.0000 
     34 OD1         7.2500    4.8900    6.3500 O.co2     3 ASP3        0.0000 
     35 OD1         6.1400    4.8600    7.3500 O.co2     3 ASP3        0.0000 
     36 OD1         5.4000    5.9000    6.5700 O.co2     3 ASP3        0.0000 
     37 OD1         4.2900    5.8600    7.5700 O.co2     3 ASP3        0.0000 
     38 OD1         3.9100    4.7800    9.3600 O.co2     3 ASP3        0.0000 
     39 CZ          4.5400    0.5800    3.1800 C.ar      4 PHE5        0.0000 
     40 CZ          3.4300    0.5400    4.1900 C.ar      4 PHE5        0.0000 
     41 CZ          1.8100    3.6700    6.9900 C.ar      4 PHE5        0.0000 
     42 CZ          0.7000    3.6300    8.0000 C.ar      4 PHE5        0.0000 
     43 CZ          3.2400    6.9000    4.2000 C.ar      4 PHE5        0.0000 
     44 CZ          2.5000    7.9400    3.4200 C.ar      4 PHE5        0.0000 
     45 CZ          4.3500    3.7400    7.5600 C.ar      4 PHE5        0.0000 
     46 CZ          3.6100    4.7800    6.7800 C.ar      4 PHE5        0.0000 
     47 CZ          2.8700    5.8200    5.9900 C.ar      4 PHE5        0.0000 
     48 CZ          2.4900    4.7500    7.7800 C.ar      4 PHE5        0.0000 
     49 CZ          1.3800    4.7100    8.7900 C.ar      4 PHE5        0.0000 
     50 CZ          0.2700    4.6800    9.7900 C.ar      4 PHE5        0.0000 
     51 CZ          5.0300    8.0200    3.9900 C.ar      4 PHE5        0.0000 
     52 CZ          4.2900    9.0600    3.2100 C.ar      4 PHE5        0.0000 
     53 CZ          4.6600    6.9400    5.7800 C.ar      4 PHE5        0.0000 
     54 CZ          3.5500    6.9000    6.7800 C.ar      4 PHE5        0.0000 
     55 CZ          5.3400    8.0200    6.5700 C.ar      4 PHE5        0.0000 
     56 CZ          6.0200    9.1000    7.3600 C.ar      4 PHE5        0.0000 
     57 CA          5.2800   -0.4700    3.9700 C.3       5 GLY6        0.0000 
     58 CA          5.9600    0.6100    4.7600 C.3       5 GLY6        0.0000 
     59 CA          3.0000    4.7800    1.6200 C.3       5 GLY6        0.0000 
     60 CA          2.6200    3.7000    3.4100 C.3       5 GLY6        0.0000 
     61 CA          6.6400    1.6900    5.5500 C.3       5 GLY6        0.0000 
     62 CA          2.5600    5.8200    3.4100 C.3       5 GLY6        0.0000 
     63 CA         -0.8500    4.6400   10.7900 C.3       5 GLY6        0.0000 
     64 CA          2.8000    4.7500   10.3600 C.3       5 GLY6        0.0000 
     65 CA          1.6800    4.7100   11.3700 C.3       5 GLY6        0.0000 
     66 CA         -0.1700    5.7200   11.5900 C.3       5 GLY6        0.0000 
     67 CA         -0.9100    6.7600   10.8000 C.3       5 GLY6        0.0000 
     68 CA         -2.0200    6.7300   11.8000 C.3       5 GLY6        0.0000 
     69 CA          7.9300    5.9700    7.1400 C.3       5 GLY6        0.0000 
     70 CA          7.1900    7.0100    6.3500 C.3       5 GLY6        0.0000 
     71 CA          5.7100    9.0900    4.7800 C.3       5 GLY6        0.0000 
     72 CA          6.8200    5.9300    8.1400 C.3       5 GLY6        0.0000 
     73 CA          6.0800    6.9800    7.3600 C.3       5 GLY6        0.0000 
     74 DU          5.5900    2.7300    2.1900 H         6 CUB7        0.0000 
     75 DU          5.2200    1.6500    3.9700 H         6 CUB7        0.0000 
     76 DU          4.4800    2.7000    3.1900 H         6 CUB7        0.0000 
     77 DU          6.2700    3.8100    2.9800 H         6 CUB7        0.0000 
     78 DU          5.5300    4.8500    2.1900 H         6 CUB7        0.0000 
     79 DU          5.9000    2.7300    4.7700 H         6 CUB7        0.0000 
     80 DU          5.1600    3.7700    3.9800 H         6 CUB7        0.0000 
     81 DU          4.4200    4.8200    3.2000 H         6 CUB7        0.0000 
     82 DU          3.3000    4.7800    4.2000 H         6 CUB7        0.0000 
     83 DU          5.8400    4.8500    4.7700 H         6 CUB7        0.0000 
     84 DU          5.1000    5.8900    3.9900 H         6 CUB7        0.0000 
     85 DU          4.3500    6.9400    3.2000 H         6 CUB7        0.0000 
     86 DU          4.7200    4.8200    5.7800 H         6 CUB7        0.0000 
     87 DU          3.9800    5.8600    4.9900 H         6 CUB7        0.0000 
     88 DU          6.5100    5.9300    5.5600 H         6 CUB7        0.0000 
     89 DU          5.7700    6.9700    4.7800 H         6 CUB7        0.0000 
     90 DU          6.4500    8.0500    5.5700 H         6 CUB7        0.0000 
@<TRIPOS>BOND
@<TRIPOS>SUBSTRUCTURE
     1 SER1        1 GROUP   
     2 ALA2        5 GROUP   
     3 ASP3       19 GROUP   
     4 PHE5       39 GROUP   
     5 GLY6       57 GROUP   
     6 CUB7       74 GROUP   
@<TRIPOS>SET

