#    Name: 5wmh_3_PLP_CAVITY_N1_8
#    Modification time : Fri May 22 19:14:53 2020

@<TRIPOS>MOLECULE
5wmh_3_PLP_CAVITY_N1_8
  100     0     6     0     0
SMALL
NO_CHARGES


@<TRIPOS>ATOM
      1 OG        -42.1600  -39.0500   26.1800 O.3       1 SER1        0.0000 
      2 OG        -41.7900  -41.1700   28.7500 O.3       1 SER1        0.0000 
      3 OG        -42.5300  -40.1300   27.9700 O.3       1 SER1        0.0000 
      4 OG        -42.9100  -41.2000   29.7600 O.3       1 SER1        0.0000 
      5 OG        -44.0200  -41.2400   30.7600 O.3       1 SER1        0.0000 
      6 OG        -44.3900  -42.3100   32.5500 O.3       1 SER1        0.0000 
      7 OG        -42.9700  -39.0800   29.7600 O.3       1 SER1        0.0000 
      8 OG        -44.0800  -39.1200   30.7600 O.3       1 SER1        0.0000 
      9 OG        -39.7600  -41.1300   35.4900 O.3       1 SER1        0.0000 
     10 O         -41.0400  -39.0100   25.1700 O.2       2 ALA2        0.0000 
     11 O         -41.4200  -40.0900   26.9600 O.2       2 ALA2        0.0000 
     12 O         -39.6300  -38.9800   26.7500 O.2       2 ALA2        0.0000 
     13 N         -47.0500  -38.1500   31.9900 N.am      2 ALA2        0.0000 
     14 O         -48.1600  -38.1800   32.9900 O.2       2 ALA2        0.0000 
     15 N         -44.1400  -37.0000   30.7700 N.am      2 ALA2        0.0000 
     16 N         -45.2600  -37.0300   31.7700 N.am      2 ALA2        0.0000 
     17 O         -47.4900  -37.1000   33.7800 O.2       2 ALA2        0.0000 
     18 O         -42.3500  -35.8800   30.5600 O.2       2 ALA2        0.0000 
     19 O         -41.9800  -38.0000   33.1300 O.2       2 ALA2        0.0000 
     20 O         -43.4600  -35.9200   31.5600 O.2       2 ALA2        0.0000 
     21 O         -43.1000  -38.0400   34.1400 O.2       2 ALA2        0.0000 
     22 O         -43.8400  -36.9900   33.3500 O.2       2 ALA2        0.0000 
     23 O         -40.5600  -37.9600   34.7100 O.2       2 ALA2        0.0000 
     24 O         -42.4200  -36.9600   34.9300 O.2       2 ALA2        0.0000 
     25 O         -43.1600  -35.9200   34.1400 O.2       2 ALA2        0.0000 
     26 O         -41.7400  -35.8800   35.7200 O.2       2 ALA2        0.0000 
     27 OD1       -43.6500  -43.3600   33.3300 O.co2     3 ASP3        0.0000 
     28 OD1       -41.4800  -37.9700   26.9700 O.co2     3 ASP3        0.0000 
     29 OD1       -42.5900  -38.0000   27.9700 O.co2     3 ASP3        0.0000 
     30 OD1       -42.2300  -40.1200   30.5500 O.co2     3 ASP3        0.0000 
     31 OD1       -43.3400  -40.1600   31.5500 O.co2     3 ASP3        0.0000 
     32 OD1       -42.9700  -42.2800   34.1200 O.co2     3 ASP3        0.0000 
     33 OD1       -43.7100  -41.2400   33.3400 O.co2     3 ASP3        0.0000 
     34 OD1       -40.8000  -36.8900   27.7600 O.co2     3 ASP3        0.0000 
     35 OD1       -41.9200  -36.9300   28.7600 O.co2     3 ASP3        0.0000 
     36 OD1       -43.0300  -36.9600   29.7700 O.co2     3 ASP3        0.0000 
     37 OD1       -40.4400  -42.2000   34.7000 O.co2     3 ASP3        0.0000 
     38 OD1       -41.9200  -40.1200   33.1300 O.co2     3 ASP3        0.0000 
     39 OD1       -42.3000  -41.2000   34.9200 O.co2     3 ASP3        0.0000 
     40 OD1       -40.8600  -34.7700   27.7600 O.co2     3 ASP3        0.0000 
     41 OD1       -40.5000  -40.0800   34.7000 O.co2     3 ASP3        0.0000 
     42 OD1       -46.0700  -37.0700   35.3600 O.co2     3 ASP3        0.0000 
     43 OD1       -46.8100  -36.0200   34.5700 O.co2     3 ASP3        0.0000 
     44 OD1       -44.2700  -35.9500   35.1500 O.co2     3 ASP3        0.0000 
     45 OD1       -45.3900  -35.9900   36.1500 O.co2     3 ASP3        0.0000 
     46 OD1       -44.7100  -34.9100   36.9400 O.co2     3 ASP3        0.0000 
     47 CZ        -45.8100  -42.3500   30.9700 C.ar      4 PHE5        0.0000 
     48 CZ        -46.9300  -42.3900   31.9800 C.ar      4 PHE5        0.0000 
     49 CZ        -45.1300  -41.2700   31.7600 C.ar      4 PHE5        0.0000 
     50 CZ        -46.2500  -41.3100   32.7700 C.ar      4 PHE5        0.0000 
     51 CZ        -46.9900  -40.2700   31.9800 C.ar      4 PHE5        0.0000 
     52 CZ        -48.1000  -40.3000   32.9900 C.ar      4 PHE5        0.0000 
     53 CZ        -48.8400  -39.2600   32.2000 C.ar      4 PHE5        0.0000 
     54 CZ        -40.7400  -39.0100   27.7500 C.ar      4 PHE5        0.0000 
     55 CZ        -41.8500  -39.0500   28.7600 C.ar      4 PHE5        0.0000 
     56 CZ        -45.2000  -39.1500   31.7700 C.ar      4 PHE5        0.0000 
     57 CZ        -45.9400  -38.1100   30.9800 C.ar      4 PHE5        0.0000 
     58 CZ        -46.3100  -39.1900   32.7700 C.ar      4 PHE5        0.0000 
     59 CZ        -38.9500  -37.9000   27.5400 C.ar      4 PHE5        0.0000 
     60 CZ        -42.6600  -39.0800   32.3400 C.ar      4 PHE5        0.0000 
     61 CZ        -43.4000  -38.0400   31.5600 C.ar      4 PHE5        0.0000 
     62 CZ        -40.1200  -35.8100   28.5500 C.ar      4 PHE5        0.0000 
     63 CZ        -41.2400  -35.8500   29.5500 C.ar      4 PHE5        0.0000 
     64 CZ        -41.2400  -39.0400   33.9200 C.ar      4 PHE5        0.0000 
     65 CZ        -39.4400  -34.7300   29.3400 C.ar      4 PHE5        0.0000 
     66 CZ        -40.1800  -33.6900   28.5600 C.ar      4 PHE5        0.0000 
     67 CZ        -40.5600  -34.7700   30.3400 C.ar      4 PHE5        0.0000 
     68 CZ        -41.3000  -33.7300   29.5600 C.ar      4 PHE5        0.0000 
     69 CZ        -42.8500  -35.9100   36.7200 C.ar      4 PHE5        0.0000 
     70 CA        -45.7500  -44.4700   30.9700 C.3       5 GLY6        0.0000 
     71 CA        -47.6100  -43.4600   31.1800 C.3       5 GLY6        0.0000 
     72 CA        -45.0700  -43.3900   31.7600 C.3       5 GLY6        0.0000 
     73 CA        -40.3700  -37.9300   25.9600 C.3       5 GLY6        0.0000 
     74 CA        -39.6900  -36.8600   26.7600 C.3       5 GLY6        0.0000 
     75 CA        -46.3700  -37.0700   32.7800 C.3       5 GLY6        0.0000 
     76 CA        -41.6200  -40.1200   35.7100 C.3       5 GLY6        0.0000 
     77 CA        -44.5800  -35.9500   32.5700 C.3       5 GLY6        0.0000 
     78 CA        -45.6900  -35.9900   33.5700 C.3       5 GLY6        0.0000 
     79 CA        -41.6800  -38.0000   35.7100 C.3       5 GLY6        0.0000 
     80 CA        -41.0000  -36.9200   36.5000 C.3       5 GLY6        0.0000 
     81 CA        -42.1100  -36.9600   37.5100 C.3       5 GLY6        0.0000 
     82 DU        -45.5100  -42.3500   33.5500 H         6 CUB7        0.0000 
     83 DU        -47.3600  -41.3400   33.7700 H         6 CUB7        0.0000 
     84 DU        -44.4500  -40.1900   32.5500 H         6 CUB7        0.0000 
     85 DU        -44.8300  -41.2700   34.3400 H         6 CUB7        0.0000 
     86 DU        -45.5700  -40.2300   33.5600 H         6 CUB7        0.0000 
     87 DU        -47.4200  -39.2200   33.7800 H         6 CUB7        0.0000 
     88 DU        -43.7800  -39.1200   33.3400 H         6 CUB7        0.0000 
     89 DU        -44.5200  -38.0700   32.5600 H         6 CUB7        0.0000 
     90 DU        -43.4100  -41.2300   35.9200 H         6 CUB7        0.0000 
     91 DU        -44.1500  -40.1900   35.1300 H         6 CUB7        0.0000 
     92 DU        -45.6300  -38.1100   33.5600 H         6 CUB7        0.0000 
     93 DU        -46.7400  -38.1400   34.5700 H         6 CUB7        0.0000 
     94 DU        -42.3600  -39.0800   34.9200 H         6 CUB7        0.0000 
     95 DU        -44.2100  -38.0700   35.1400 H         6 CUB7        0.0000 
     96 DU        -44.9500  -37.0300   34.3500 H         6 CUB7        0.0000 
     97 DU        -45.3300  -38.1100   36.1400 H         6 CUB7        0.0000 
     98 DU        -42.7900  -38.0300   36.7200 H         6 CUB7        0.0000 
     99 DU        -43.5300  -36.9900   35.9300 H         6 CUB7        0.0000 
    100 DU        -44.6500  -37.0300   36.9300 H         6 CUB7        0.0000 
@<TRIPOS>BOND
@<TRIPOS>SUBSTRUCTURE
     1 SER1        1 GROUP   
     2 ALA2       10 GROUP   
     3 ASP3       27 GROUP   
     4 PHE5       47 GROUP   
     5 GLY6       70 GROUP   
     6 CUB7       82 GROUP   
@<TRIPOS>SET

