#    Name: 5wmh_4_PLP_CAVITY_N1_4
#    Modification time : Fri May 22 19:15:05 2020

@<TRIPOS>MOLECULE
5wmh_4_PLP_CAVITY_N1_4
   20     0     6     0     0
SMALL
NO_CHARGES


@<TRIPOS>ATOM
      1 OG        -35.8400  -61.1200   16.7200 O.3       1 SER1        0.0000 
      2 OG        -36.9600  -61.1600   17.7300 O.3       1 SER1        0.0000 
      3 OG        -39.1800  -61.2300   19.7400 O.3       1 SER1        0.0000 
      4 OG        -37.3900  -60.1100   19.5200 O.3       1 SER1        0.0000 
      5 O         -34.6700  -63.2100   15.7100 O.2       2 ALA2        0.0000 
      6 O         -35.7800  -63.2400   16.7200 O.2       2 ALA2        0.0000 
      7 N         -36.5200  -62.2000   15.9300 N.am      2 ALA2        0.0000 
      8 O         -33.9900  -62.1300   16.5100 O.2       2 ALA2        0.0000 
      9 O         -38.5000  -60.1500   20.5300 O.2       2 ALA2        0.0000 
     10 OD1       -37.3300  -62.2300   19.5200 O.co2     3 ASP3        0.0000 
     11 OD1       -38.4400  -62.2700   20.5200 O.co2     3 ASP3        0.0000 
     12 OD1       -35.1600  -60.0400   17.5100 O.co2     3 ASP3        0.0000 
     13 OD1       -35.9000  -59.0000   16.7300 O.co2     3 ASP3        0.0000 
     14 OD1       -36.2800  -60.0800   18.5200 O.co2     3 ASP3        0.0000 
     15 CZ        -35.1000  -62.1600   17.5100 C.ar      4 PHE5        0.0000 
     16 CZ        -36.5800  -60.0800   15.9400 C.ar      4 PHE5        0.0000 
     17 CZ        -36.2200  -62.2000   18.5100 C.ar      4 PHE5        0.0000 
     18 CA        -35.3400  -64.2900   14.9200 C.3       5 GLY6        0.0000 
     19 CA        -35.4100  -62.1600   14.9300 C.3       5 GLY6        0.0000 
     20 DU        -34.7300  -61.0900   15.7200 H         6 CUB7        0.0000 
@<TRIPOS>BOND
@<TRIPOS>SUBSTRUCTURE
     1 SER1        1 GROUP   
     2 ALA2        5 GROUP   
     3 ASP3       10 GROUP   
     4 PHE5       15 GROUP   
     5 GLY6       18 GROUP   
     6 CUB7       20 GROUP   
@<TRIPOS>SET

