#    Name: 5wmh_5_PLP
#    Modification time : Fri May 22 19:15:15 2020

@<TRIPOS>MOLECULE
5wmh_5_PLP
   15    15     1     0     0
SMALL
NO_CHARGES


@<TRIPOS>ATOM
      1 N1        -32.3540   10.1520   64.6390 N.ar      1 PLP701      0.0000 
      2 C2        -33.4480   10.0530   65.3730 C.ar      1 PLP701      0.0000 
      3 C2A       -34.5120   11.1370   65.2950 C.3       1 PLP701      0.0000 
      4 C3        -33.6290    8.9580   66.2060 C.ar      1 PLP701      0.0000 
      5 O3        -34.7770    8.8430   66.9830 O.3       1 PLP701      0.0000 
      6 C4        -32.6410    7.9770   66.2520 C.ar      1 PLP701      0.0000 
      7 C4A       -32.8120    6.7870   67.1890 C.2       1 PLP701      0.0000 
      8 C5        -31.4970    8.1120   65.4690 C.ar      1 PLP701      0.0000 
      9 C6        -31.3980    9.2370   64.6630 C.ar      1 PLP701      0.0000 
     10 C5A       -30.3720    7.0830   65.4970 C.3       1 PLP701      0.0000 
     11 O4P       -30.8290    5.8370   65.0650 O.3       1 PLP701      0.0000 
     12 P         -29.7490    4.5930   65.1630 P.3       1 PLP701      0.0000 
     13 O1P       -29.3210    4.1860   63.7660 O.co2     1 PLP701      0.0000 
     14 O2P       -28.5200    5.0440   65.9190 O.co2     1 PLP701      0.0000 
     15 O3P       -30.3940    3.4200   65.8680 O.co2     1 PLP701      0.0000 
@<TRIPOS>BOND
     1    1    2 ar   
     2    1    9 ar   
     3    2    3 1    
     4    2    4 ar   
     5    4    5 1    
     6    4    6 ar   
     7    6    7 1    
     8    6    8 ar   
     9    8    9 ar   
    10    8   10 1    
    11   10   11 1    
    12   11   12 1    
    13   12   13 ar   
    14   12   14 ar   
    15   12   15 ar   
@<TRIPOS>SUBSTRUCTURE
     1 PLP701      1 GROUP   
@<TRIPOS>SET

