#    Name: 5wmh_1_PLP
#    Modification time : Fri May 22 19:14:30 2020

@<TRIPOS>MOLECULE
5wmh_1_PLP
   15    15     1     0     0
SMALL
NO_CHARGES


@<TRIPOS>ATOM
      1 N1         -1.5130    1.3600   10.0730 N.ar      1 PLP701      0.0000 
      2 C2         -1.4560    1.3690    8.7440 C.ar      1 PLP701      0.0000 
      3 C2A        -2.0370    0.2430    7.9100 C.3       1 PLP701      0.0000 
      4 C3         -0.8670    2.4120    8.0860 C.ar      1 PLP701      0.0000 
      5 O3         -0.8420    2.3650    6.7040 O.3       1 PLP701      0.0000 
      6 C4         -0.3420    3.4510    8.8450 C.ar      1 PLP701      0.0000 
      7 C4A         0.3910    4.6240    8.2140 C.2       1 PLP701      0.0000 
      8 C5         -0.4100    3.4170   10.2200 C.ar      1 PLP701      0.0000 
      9 C6         -1.0180    2.3290   10.8180 C.ar      1 PLP701      0.0000 
     10 C5A         0.2110    4.5470   11.0570 C.3       1 PLP701      0.0000 
     11 O4P        -0.5290    5.7490   11.0230 O.3       1 PLP701      0.0000 
     12 P           0.1390    7.1100   11.6600 P.3       1 PLP701      0.0000 
     13 O1P         0.6080    7.9140   10.5430 O.co2     1 PLP701      0.0000 
     14 O2P         1.3160    6.8290   12.5290 O.co2     1 PLP701      0.0000 
     15 O3P        -0.8610    7.8750   12.4470 O.co2     1 PLP701      0.0000 
@<TRIPOS>BOND
     1    1    2 ar   
     2    1    9 ar   
     3    2    3 1    
     4    2    4 ar   
     5    4    5 1    
     6    4    6 ar   
     7    6    7 1    
     8    6    8 ar   
     9    8    9 ar   
    10    8   10 1    
    11   10   11 1    
    12   11   12 1    
    13   12   13 ar   
    14   12   14 ar   
    15   12   15 ar   
@<TRIPOS>SUBSTRUCTURE
     1 PLP701      1 GROUP   
@<TRIPOS>SET

