#    Name: 5wmh_1_PLP_CAVITY_N1_6
#    Modification time : Fri May 22 19:14:32 2020

@<TRIPOS>MOLECULE
5wmh_1_PLP_CAVITY_N1_6
   48     0     6     0     0
SMALL
NO_CHARGES


@<TRIPOS>ATOM
      1 OG          1.7500    5.7900    7.0000 O.3       1 SER1        0.0000 
      2 OG          3.1700    5.8300    8.5700 O.3       1 SER1        0.0000 
      3 OG          2.0600    5.7900    9.5800 O.3       1 SER1        0.0000 
      4 OG          0.9400    5.7600   10.5800 O.3       1 SER1        0.0000 
      5 O           4.1000    1.6200    4.9800 O.2       2 ALA2        0.0000 
      6 O           3.3600    2.6600    4.1900 O.2       2 ALA2        0.0000 
      7 O           1.5100    3.6700    4.4100 O.2       2 ALA2        0.0000 
      8 N           0.7700    4.7100    3.6300 N.am      2 ALA2        0.0000 
      9 O           4.7800    2.7000    5.7700 O.2       2 ALA2        0.0000 
     10 O           4.0400    3.7400    4.9800 O.2       2 ALA2        0.0000 
     11 O           2.9300    3.7000    5.9900 O.2       2 ALA2        0.0000 
     12 N           2.1900    4.7500    5.2000 N.am      2 ALA2        0.0000 
     13 N           1.4500    5.7900    4.4200 N.am      2 ALA2        0.0000 
     14 OD1         2.6900    1.5800    3.4000 O.co2     3 ASP3        0.0000 
     15 OD1         1.9400    2.6200    2.6200 O.co2     3 ASP3        0.0000 
     16 OD1         0.4000    3.6300    5.4200 O.co2     3 ASP3        0.0000 
     17 OD1         1.0700    4.7100    6.2100 O.co2     3 ASP3        0.0000 
     18 OD1        -0.4100    3.6000    9.0000 O.co2     3 ASP3        0.0000 
     19 OD1         5.4600    3.7800    6.5600 O.co2     3 ASP3        0.0000 
     20 OD1        -0.4700    5.7200    9.0100 O.co2     3 ASP3        0.0000 
     21 OD1        -1.5900    5.6800   10.0100 O.co2     3 ASP3        0.0000 
     22 OD1         6.1400    4.8600    7.3500 O.co2     3 ASP3        0.0000 
     23 OD1         5.4000    5.9000    6.5700 O.co2     3 ASP3        0.0000 
     24 OD1         4.2900    5.8600    7.5700 O.co2     3 ASP3        0.0000 
     25 OD1         3.9100    4.7800    9.3600 O.co2     3 ASP3        0.0000 
     26 CZ          3.4300    0.5400    4.1900 C.ar      4 PHE5        0.0000 
     27 CZ          1.8100    3.6700    6.9900 C.ar      4 PHE5        0.0000 
     28 CZ          0.7000    3.6300    8.0000 C.ar      4 PHE5        0.0000 
     29 CZ          3.2400    6.9000    4.2000 C.ar      4 PHE5        0.0000 
     30 CZ          4.3500    3.7400    7.5600 C.ar      4 PHE5        0.0000 
     31 CZ          3.6100    4.7800    6.7800 C.ar      4 PHE5        0.0000 
     32 CZ          2.8700    5.8200    5.9900 C.ar      4 PHE5        0.0000 
     33 CZ          2.4900    4.7500    7.7800 C.ar      4 PHE5        0.0000 
     34 CZ          1.3800    4.7100    8.7900 C.ar      4 PHE5        0.0000 
     35 CZ          0.2700    4.6800    9.7900 C.ar      4 PHE5        0.0000 
     36 CZ          4.6600    6.9400    5.7800 C.ar      4 PHE5        0.0000 
     37 CZ          3.5500    6.9000    6.7800 C.ar      4 PHE5        0.0000 
     38 CA          2.6200    3.7000    3.4100 C.3       5 GLY6        0.0000 
     39 CA          2.5600    5.8200    3.4100 C.3       5 GLY6        0.0000 
     40 CA         -0.8500    4.6400   10.7900 C.3       5 GLY6        0.0000 
     41 CA          2.8000    4.7500   10.3600 C.3       5 GLY6        0.0000 
     42 CA          1.6800    4.7100   11.3700 C.3       5 GLY6        0.0000 
     43 CA         -0.1700    5.7200   11.5900 C.3       5 GLY6        0.0000 
     44 CA         -0.9100    6.7600   10.8000 C.3       5 GLY6        0.0000 
     45 CA         -2.0200    6.7300   11.8000 C.3       5 GLY6        0.0000 
     46 DU          3.3000    4.7800    4.2000 H         6 CUB7        0.0000 
     47 DU          4.7200    4.8200    5.7800 H         6 CUB7        0.0000 
     48 DU          3.9800    5.8600    4.9900 H         6 CUB7        0.0000 
@<TRIPOS>BOND
@<TRIPOS>SUBSTRUCTURE
     1 SER1        1 GROUP   
     2 ALA2        5 GROUP   
     3 ASP3       14 GROUP   
     4 PHE5       26 GROUP   
     5 GLY6       38 GROUP   
     6 CUB7       46 GROUP   
@<TRIPOS>SET

