#    Name: 5wmh_3_PLP
#    Modification time : Fri May 22 19:14:52 2020

@<TRIPOS>MOLECULE
5wmh_3_PLP
   15    15     1     0     0
SMALL
NO_CHARGES


@<TRIPOS>ATOM
      1 N1        -38.9240  -35.4140   27.8700 N.ar      1 PLP701      0.0000 
      2 C2        -39.7020  -34.7810   28.7170 C.ar      1 PLP701      0.0000 
      3 C2A       -39.3060  -33.4090   29.2610 C.3       1 PLP701      0.0000 
      4 C3        -40.8990  -35.3180   29.1190 C.ar      1 PLP701      0.0000 
      5 O3        -41.7100  -34.6450   30.0270 O.3       1 PLP701      0.0000 
      6 C4        -41.2570  -36.5420   28.6400 C.ar      1 PLP701      0.0000 
      7 C4A       -42.5470  -37.2240   29.1470 C.2       1 PLP701      0.0000 
      8 C5        -40.4130  -37.1790   27.7580 C.ar      1 PLP701      0.0000 
      9 C6        -39.2360  -36.5780   27.3790 C.ar      1 PLP701      0.0000 
     10 C5A       -40.7830  -38.5620   27.2230 C.3       1 PLP701      0.0000 
     11 O4P       -41.7730  -38.3950   26.2640 O.3       1 PLP701      0.0000 
     12 P         -42.1450  -39.8010   25.5080 P.3       1 PLP701      0.0000 
     13 O1P       -41.8080  -39.6960   24.0230 O.co2     1 PLP701      0.0000 
     14 O2P       -41.2550  -40.8340   26.0700 O.co2     1 PLP701      0.0000 
     15 O3P       -43.6330  -40.0480   25.7100 O.co2     1 PLP701      0.0000 
@<TRIPOS>BOND
     1    1    2 ar   
     2    1    9 ar   
     3    2    3 1    
     4    2    4 ar   
     5    4    5 1    
     6    4    6 ar   
     7    6    7 1    
     8    6    8 ar   
     9    8    9 ar   
    10    8   10 1    
    11   10   11 1    
    12   11   12 1    
    13   12   13 ar   
    14   12   14 ar   
    15   12   15 ar   
@<TRIPOS>SUBSTRUCTURE
     1 PLP701      1 GROUP   
@<TRIPOS>SET

