#    Name: 5wmh_6_PLP
#    Modification time : Fri May 22 19:15:28 2020

@<TRIPOS>MOLECULE
5wmh_6_PLP
   15    15     1     0     0
SMALL
NO_CHARGES


@<TRIPOS>ATOM
      1 N1         -6.4450   -2.5720   70.8730 N.ar      1 PLP701      0.0000 
      2 C2         -5.4830   -2.9670   70.0600 C.ar      1 PLP701      0.0000 
      3 C2A        -4.0440   -3.0730   70.5460 C.3       1 PLP701      0.0000 
      4 C3         -5.7520   -3.2940   68.7450 C.ar      1 PLP701      0.0000 
      5 O3         -4.7090   -3.7080   67.9090 O.3       1 PLP701      0.0000 
      6 C4         -7.0590   -3.2010   68.2880 C.ar      1 PLP701      0.0000 
      7 C4A        -7.4180   -3.5650   66.8390 C.2       1 PLP701      0.0000 
      8 C5         -8.0500   -2.7900   69.1660 C.ar      1 PLP701      0.0000 
      9 C6         -7.7000   -2.4740   70.4750 C.ar      1 PLP701      0.0000 
     10 C5A        -9.4940   -2.6890   68.6730 C.3       1 PLP701      0.0000 
     11 O4P       -10.1540   -3.8320   69.1290 O.3       1 PLP701      0.0000 
     12 P         -11.6530   -4.1620   68.5590 P.3       1 PLP701      0.0000 
     13 O1P       -11.5250   -5.0420   67.3590 O.co2     1 PLP701      0.0000 
     14 O2P       -12.3620   -2.8950   68.1800 O.co2     1 PLP701      0.0000 
     15 O3P       -12.4310   -4.8610   69.6350 O.co2     1 PLP701      0.0000 
@<TRIPOS>BOND
     1    1    2 ar   
     2    1    9 ar   
     3    2    3 1    
     4    2    4 ar   
     5    4    5 1    
     6    4    6 ar   
     7    6    7 1    
     8    6    8 ar   
     9    8    9 ar   
    10    8   10 1    
    11   10   11 1    
    12   11   12 1    
    13   12   13 ar   
    14   12   14 ar   
    15   12   15 ar   
@<TRIPOS>SUBSTRUCTURE
     1 PLP701      1 GROUP   
@<TRIPOS>SET

