#    Name: 5wmh_6_PLP_CAVITY_N1_8
#    Modification time : Fri May 22 19:15:28 2020

@<TRIPOS>MOLECULE
5wmh_6_PLP_CAVITY_N1_8
  126     0     7     0     0
SMALL
NO_CHARGES


@<TRIPOS>ATOM
      1 OG        -14.2200   -5.4500   67.3200 O.3       1 SER1        0.0000 
      2 OG        -10.5700   -2.1500   62.5300 O.3       1 SER1        0.0000 
      3 OG        -11.6800   -2.1900   63.5300 O.3       1 SER1        0.0000 
      4 OG        -11.6900   -5.3800   67.9000 O.3       1 SER1        0.0000 
      5 OG        -12.4300   -4.3400   67.1100 O.3       1 SER1        0.0000 
      6 OG        -13.1700   -3.3000   66.3300 O.3       1 SER1        0.0000 
      7 OG        -12.8000   -5.4200   68.9000 O.3       1 SER1        0.0000 
      8 OG         -4.7000   -5.1700   64.4500 O.3       1 SER1        0.0000 
      9 OG         -5.8100   -5.2000   65.4600 O.3       1 SER1        0.0000 
     10 OG         -7.6700   -4.2000   65.6800 O.3       1 SER1        0.0000 
     11 OG         -8.4100   -3.1600   64.8900 O.3       1 SER1        0.0000 
     12 OG         -9.1500   -2.1100   64.1100 O.3       1 SER1        0.0000 
     13 OG         -9.8900   -1.0700   63.3200 O.3       1 SER1        0.0000 
     14 OG        -10.2600   -2.1500   65.1100 O.3       1 SER1        0.0000 
     15 OG        -11.3700   -2.1800   66.1100 O.3       1 SER1        0.0000 
     16 OG        -11.0100   -4.3000   68.6900 O.3       1 SER1        0.0000 
     17 OG        -11.7500   -3.2600   67.9000 O.3       1 SER1        0.0000 
     18 OG        -13.2300   -1.1800   66.3300 O.3       1 SER1        0.0000 
     19 O          -7.1000   -6.2900   59.5100 O.2       2 ALA2        0.0000 
     20 O          -6.4200   -5.2100   60.3000 O.2       2 ALA2        0.0000 
     21 N         -10.8700   -2.1500   59.9500 N.am      2 ALA2        0.0000 
     22 O          -3.8900   -5.1400   60.8700 O.2       2 ALA2        0.0000 
     23 O          -4.6300   -4.0900   60.0800 O.2       2 ALA2        0.0000 
     24 O          -5.0000   -5.1700   61.8700 O.2       2 ALA2        0.0000 
     25 O          -5.7400   -4.1300   61.0900 O.2       2 ALA2        0.0000 
     26 N          -6.1200   -5.2100   62.8800 N.am      2 ALA2        0.0000 
     27 N         -13.9100   -2.2600   65.5400 N.am      2 ALA2        0.0000 
     28 N         -15.0200   -2.2900   66.5400 N.am      2 ALA2        0.0000 
     29 N          -2.1000   -4.0200   60.6600 N.am      2 ALA2        0.0000 
     30 O          -3.2100   -4.0600   61.6600 O.2       2 ALA2        0.0000 
     31 O          -5.4400   -4.1300   63.6700 O.2       2 ALA2        0.0000 
     32 O          -6.1800   -3.0900   62.8800 O.2       2 ALA2        0.0000 
     33 O         -12.4900   -2.2200   67.1200 O.2       2 ALA2        0.0000 
     34 O         -12.1200   -4.3400   69.6900 O.2       2 ALA2        0.0000 
     35 O          -2.9000   -4.0500   64.2400 O.2       2 ALA2        0.0000 
     36 O          -3.6400   -3.0100   63.4500 O.2       2 ALA2        0.0000 
     37 O          -4.3800   -1.9700   62.6700 O.2       2 ALA2        0.0000 
     38 O          -4.0200   -4.0900   65.2400 O.2       2 ALA2        0.0000 
     39 O          -5.5000   -2.0100   63.6700 O.2       2 ALA2        0.0000 
     40 O          -6.2400   -0.9600   62.8900 O.2       2 ALA2        0.0000 
     41 O          -5.1300   -4.1300   66.2500 O.2       2 ALA2        0.0000 
     42 O         -11.0700   -2.1800   68.6900 O.2       2 ALA2        0.0000 
     43 O         -11.8100   -1.1400   67.9100 O.2       2 ALA2        0.0000 
     44 O          -3.7100   -0.8900   63.4600 O.2       2 ALA2        0.0000 
     45 O          -5.5600    0.1100   63.6800 O.2       2 ALA2        0.0000 
     46 N          -7.0400    2.2000   62.1100 N.am      2 ALA2        0.0000 
     47 O          -3.7100   -4.0900   67.8200 O.2       2 ALA2        0.0000 
     48 OD1        -2.4700   -5.1000   62.4400 O.co2     3 ASP3        0.0000 
     49 OD1        -8.7700   -1.0400   62.3200 O.co2     3 ASP3        0.0000 
     50 OD1        -9.5100    0.0000   61.5300 O.co2     3 ASP3        0.0000 
     51 OD1        -1.7900   -4.0200   63.2400 O.co2     3 ASP3        0.0000 
     52 OD1        -2.5300   -2.9800   62.4500 O.co2     3 ASP3        0.0000 
     53 OD1        -8.8300    1.0800   62.3200 O.co2     3 ASP3        0.0000 
     54 OD1        -6.2500   -4.1600   67.2500 O.co2     3 ASP3        0.0000 
     55 OD1        -9.2100   -3.1900   68.4700 O.co2     3 ASP3        0.0000 
     56 OD1        -8.1600    2.1600   63.1100 O.co2     3 ASP3        0.0000 
     57 OD1        -4.8300   -4.1200   68.8300 O.co2     3 ASP3        0.0000 
     58 OD1        -6.6800   -3.1200   69.0500 O.co2     3 ASP3        0.0000 
     59 OD1        -7.8000   -3.1500   70.0500 O.co2     3 ASP3        0.0000 
     60 NZ         -5.2600   -3.0800   70.6200 N.4       4 LYS4        0.0000 
     61 CZ         -8.9500   -5.2800   59.7200 C.ar      5 PHE5        0.0000 
     62 CZ         -7.5400   -5.2400   61.3000 C.ar      5 PHE5        0.0000 
     63 CZ         -8.2800   -4.2000   60.5200 C.ar      5 PHE5        0.0000 
     64 CZ         -9.0200   -3.1600   59.7300 C.ar      5 PHE5        0.0000 
     65 CZ        -10.1300   -3.1900   60.7300 C.ar      5 PHE5        0.0000 
     66 CZ        -11.2400   -3.2300   61.7400 C.ar      5 PHE5        0.0000 
     67 CZ        -13.1100   -5.4200   66.3200 C.ar      5 PHE5        0.0000 
     68 CZ        -13.8500   -4.3800   65.5300 C.ar      5 PHE5        0.0000 
     69 CZ         -6.8600   -4.1600   62.0900 C.ar      5 PHE5        0.0000 
     70 CZ         -7.6000   -3.1200   61.3100 C.ar      5 PHE5        0.0000 
     71 CZ         -7.2300   -5.2400   63.8800 C.ar      5 PHE5        0.0000 
     72 CZ         -8.7100   -3.1600   62.3100 C.ar      5 PHE5        0.0000 
     73 CZ         -9.4500   -2.1200   61.5200 C.ar      5 PHE5        0.0000 
     74 CZ         -6.5500   -4.1600   64.6700 C.ar      5 PHE5        0.0000 
     75 CZ         -7.2900   -3.1200   63.8900 C.ar      5 PHE5        0.0000 
     76 CZ         -8.0300   -2.0800   63.1000 C.ar      5 PHE5        0.0000 
     77 CZ         -1.4200   -2.9400   61.4500 C.ar      5 PHE5        0.0000 
     78 CZ         -7.3500   -1.0000   63.8900 C.ar      5 PHE5        0.0000 
     79 CZ         -6.9900   -3.1200   66.4700 C.ar      5 PHE5        0.0000 
     80 CZ         -8.1000   -3.1500   67.4700 C.ar      5 PHE5        0.0000 
     81 CZ         -8.8400   -2.1100   66.6900 C.ar      5 PHE5        0.0000 
     82 CZ         -9.9500   -2.1500   67.6900 C.ar      5 PHE5        0.0000 
     83 CZ         -1.4800   -0.8200   61.4500 C.ar      5 PHE5        0.0000 
     84 CZ         -1.8500   -1.9000   63.2400 C.ar      5 PHE5        0.0000 
     85 CZ         -2.5900   -0.8600   62.4600 C.ar      5 PHE5        0.0000 
     86 CZ         -5.5700   -3.0800   68.0400 C.ar      5 PHE5        0.0000 
     87 CZ         -8.5400   -2.1100   69.2700 C.ar      5 PHE5        0.0000 
     88 CZ         -4.1500   -3.0400   69.6200 C.ar      5 PHE5        0.0000 
     89 CZ         -6.0000   -2.0400   69.8400 C.ar      5 PHE5        0.0000 
     90 CA        -11.9800   -2.1900   60.9500 C.3       6 GLY6        0.0000 
     91 CA        -14.9600   -4.4100   66.5400 C.3       6 GLY6        0.0000 
     92 CA         -5.3800   -6.2500   63.6600 C.3       6 GLY6        0.0000 
     93 CA        -10.1900   -1.0700   60.7400 C.3       6 GLY6        0.0000 
     94 CA        -11.3100   -1.1100   61.7400 C.3       6 GLY6        0.0000 
     95 CA        -13.5400   -4.3800   68.1100 C.3       6 GLY6        0.0000 
     96 CA        -14.2800   -3.3300   67.3300 C.3       6 GLY6        0.0000 
     97 CA         -4.6900   -1.9700   60.0900 C.3       6 GLY6        0.0000 
     98 CA         -3.5800   -5.1300   63.4500 C.3       6 GLY6        0.0000 
     99 CA        -13.6000   -2.2500   68.1200 C.3       6 GLY6        0.0000 
    100 CA         -2.1600   -1.9000   60.6600 C.3       6 GLY6        0.0000 
    101 CA         -3.2700   -1.9400   61.6700 C.3       6 GLY6        0.0000 
    102 CA         -4.0100   -0.8900   60.8800 C.3       6 GLY6        0.0000 
    103 CA         -8.0900    0.0400   63.1100 C.3       6 GLY6        0.0000 
    104 CA        -10.7000   -1.1100   66.9000 C.3       6 GLY6        0.0000 
    105 CA         -3.3300    0.1800   61.6700 C.3       6 GLY6        0.0000 
    106 CA         -4.4500    0.1500   62.6800 C.3       6 GLY6        0.0000 
    107 CA         -5.1900    1.1900   61.8900 C.3       6 GLY6        0.0000 
    108 CA         -6.3000    1.1600   62.8900 C.3       6 GLY6        0.0000 
    109 CA         -7.4200    1.1200   63.9000 C.3       6 GLY6        0.0000 
    110 CA         -6.3600    3.2800   62.9000 C.3       6 GLY6        0.0000 
    111 DU         -7.1600   -4.1700   59.5100 H         7 CUB7        0.0000 
    112 DU         -5.3700   -3.0500   59.3000 H         7 CUB7        0.0000 
    113 DU         -6.4800   -3.0900   60.3000 H         7 CUB7        0.0000 
    114 DU         -8.3400   -2.0800   60.5200 H         7 CUB7        0.0000 
    115 DU         -3.9500   -3.0100   60.8700 H         7 CUB7        0.0000 
    116 DU         -4.3200   -4.0900   62.6600 H         7 CUB7        0.0000 
    117 DU         -5.0600   -3.0500   61.8800 H         7 CUB7        0.0000 
    118 DU         -5.8000   -2.0100   61.0900 H         7 CUB7        0.0000 
    119 DU         -6.5400   -0.9700   60.3100 H         7 CUB7        0.0000 
    120 DU         -6.9200   -2.0400   62.1000 H         7 CUB7        0.0000 
    121 DU         -7.6600   -1.0000   61.3100 H         7 CUB7        0.0000 
    122 DU         -8.4000    0.0400   60.5300 H         7 CUB7        0.0000 
    123 DU         -5.1300   -0.9300   61.8800 H         7 CUB7        0.0000 
    124 DU         -5.8700    0.1100   61.1000 H         7 CUB7        0.0000 
    125 DU         -6.9800    0.0800   62.1000 H         7 CUB7        0.0000 
    126 DU         -7.7200    1.1200   61.3200 H         7 CUB7        0.0000 
@<TRIPOS>BOND
@<TRIPOS>SUBSTRUCTURE
     1 SER1        1 GROUP   
     2 ALA2       19 GROUP   
     3 ASP3       48 GROUP   
     4 LYS4       60 GROUP   
     5 PHE5       61 GROUP   
     6 GLY6       90 GROUP   
     7 CUB7      111 GROUP   
@<TRIPOS>SET

