#    Name: 5wmh_4_PLP_CAVITY_N1_8
#    Modification time : Fri May 22 19:15:05 2020

@<TRIPOS>MOLECULE
5wmh_4_PLP_CAVITY_N1_8
   77     0     6     0     0
SMALL
NO_CHARGES


@<TRIPOS>ATOM
      1 OG        -30.6500  -62.0200   13.4900 O.3       1 SER1        0.0000 
      2 OG        -35.8400  -61.1200   16.7200 O.3       1 SER1        0.0000 
      3 OG        -36.9600  -61.1600   17.7300 O.3       1 SER1        0.0000 
      4 OG        -39.1800  -61.2300   19.7400 O.3       1 SER1        0.0000 
      5 OG        -35.5300  -57.9200   14.9400 O.3       1 SER1        0.0000 
      6 OG        -37.3900  -60.1100   19.5200 O.3       1 SER1        0.0000 
      7 OG        -33.0000  -57.8500   15.5100 O.3       1 SER1        0.0000 
      8 OG        -33.7400  -56.8100   14.7300 O.3       1 SER1        0.0000 
      9 OG        -30.1000  -59.9000   18.6600 O.3       1 SER1        0.0000 
     10 OG        -30.8400  -58.8600   17.8700 O.3       1 SER1        0.0000 
     11 OG        -32.3200  -56.7700   16.3000 O.3       1 SER1        0.0000 
     12 OG        -31.9500  -58.8900   18.8800 O.3       1 SER1        0.0000 
     13 O         -33.8600  -63.1700   12.1300 O.2       2 ALA2        0.0000 
     14 O         -33.1800  -62.0900   12.9200 O.2       2 ALA2        0.0000 
     15 O         -33.9200  -61.0500   12.1400 O.2       2 ALA2        0.0000 
     16 O         -34.6600  -60.0100   11.3500 O.2       2 ALA2        0.0000 
     17 O         -35.0300  -61.0900   13.1400 O.2       2 ALA2        0.0000 
     18 O         -34.6700  -63.2100   15.7100 O.2       2 ALA2        0.0000 
     19 O         -35.7800  -63.2400   16.7200 O.2       2 ALA2        0.0000 
     20 N         -36.5200  -62.2000   15.9300 N.am      2 ALA2        0.0000 
     21 O         -31.0200  -63.1000   15.2800 O.2       2 ALA2        0.0000 
     22 O         -32.8700  -62.0900   15.5000 O.2       2 ALA2        0.0000 
     23 O         -33.9900  -62.1300   16.5100 O.2       2 ALA2        0.0000 
     24 O         -31.4500  -62.0600   17.0800 O.2       2 ALA2        0.0000 
     25 O         -32.1900  -61.0100   16.2900 O.2       2 ALA2        0.0000 
     26 O         -38.5000  -60.1500   20.5300 O.2       2 ALA2        0.0000 
     27 O         -30.7800  -60.9800   17.8700 O.2       2 ALA2        0.0000 
     28 N         -36.3300  -54.7600   14.1600 N.am      2 ALA2        0.0000 
     29 OD1       -34.2300  -64.2500   13.9200 O.co2     3 ASP3        0.0000 
     30 OD1       -30.5800  -64.1400   13.4900 O.co2     3 ASP3        0.0000 
     31 OD1       -31.3200  -63.1000   12.7000 O.co2     3 ASP3        0.0000 
     32 OD1       -31.7000  -64.1800   14.4900 O.co2     3 ASP3        0.0000 
     33 OD1       -32.4400  -63.1400   13.7100 O.co2     3 ASP3        0.0000 
     34 OD1       -32.8100  -64.2100   15.5000 O.co2     3 ASP3        0.0000 
     35 OD1       -33.5500  -63.1700   14.7100 O.co2     3 ASP3        0.0000 
     36 OD1       -37.3300  -62.2300   19.5200 O.co2     3 ASP3        0.0000 
     37 OD1       -38.4400  -62.2700   20.5200 O.co2     3 ASP3        0.0000 
     38 OD1       -34.0500  -60.0100   16.5100 O.co2     3 ASP3        0.0000 
     39 OD1       -34.7900  -58.9700   15.7300 O.co2     3 ASP3        0.0000 
     40 OD1       -35.1600  -60.0400   17.5100 O.co2     3 ASP3        0.0000 
     41 OD1       -35.9000  -59.0000   16.7300 O.co2     3 ASP3        0.0000 
     42 OD1       -36.2800  -60.0800   18.5200 O.co2     3 ASP3        0.0000 
     43 OD1       -32.2600  -58.8900   16.3000 O.co2     3 ASP3        0.0000 
     44 OD1       -31.5800  -57.8100   17.0900 O.co2     3 ASP3        0.0000 
     45 CZ        -35.7700  -60.0500   12.3500 C.ar      4 PHE5        0.0000 
     46 CZ        -36.5100  -59.0000   11.5700 C.ar      4 PHE5        0.0000 
     47 CZ        -36.1500  -61.1200   14.1400 C.ar      4 PHE5        0.0000 
     48 CZ        -35.0900  -58.9700   13.1500 C.ar      4 PHE5        0.0000 
     49 CZ        -35.8400  -57.9300   12.3600 C.ar      4 PHE5        0.0000 
     50 CZ        -35.4700  -60.0400   14.9300 C.ar      4 PHE5        0.0000 
     51 CZ        -36.2100  -59.0000   14.1500 C.ar      4 PHE5        0.0000 
     52 CZ        -35.1000  -62.1600   17.5100 C.ar      4 PHE5        0.0000 
     53 CZ        -36.5800  -60.0800   15.9400 C.ar      4 PHE5        0.0000 
     54 CZ        -36.2200  -62.2000   18.5100 C.ar      4 PHE5        0.0000 
     55 CZ        -35.1600  -56.8500   13.1500 C.ar      4 PHE5        0.0000 
     56 CZ        -33.3100  -61.0500   17.3000 C.ar      4 PHE5        0.0000 
     57 CZ        -36.2700  -56.8800   14.1600 C.ar      4 PHE5        0.0000 
     58 CZ        -32.6300  -59.9700   18.0900 C.ar      4 PHE5        0.0000 
     59 CA        -35.3400  -64.2900   14.9200 C.3       5 GLY6        0.0000 
     60 CA        -34.2900  -62.1300   13.9200 C.3       5 GLY6        0.0000 
     61 CA        -35.4100  -62.1600   14.9300 C.3       5 GLY6        0.0000 
     62 CA        -29.9000  -63.0600   14.2800 C.3       5 GLY6        0.0000 
     63 CA        -30.3400  -62.0200   16.0700 C.3       5 GLY6        0.0000 
     64 CA        -29.6600  -60.9400   16.8600 C.3       5 GLY6        0.0000 
     65 DU        -31.7600  -62.0600   14.5000 H         6 CUB7        0.0000 
     66 DU        -33.2400  -59.9700   12.9300 H         6 CUB7        0.0000 
     67 DU        -33.9800  -58.9300   12.1400 H         6 CUB7        0.0000 
     68 DU        -33.6100  -61.0500   14.7200 H         6 CUB7        0.0000 
     69 DU        -34.3500  -60.0100   13.9300 H         6 CUB7        0.0000 
     70 DU        -34.7300  -61.0900   15.7200 H         6 CUB7        0.0000 
     71 DU        -31.0800  -60.9800   15.2900 H         6 CUB7        0.0000 
     72 DU        -32.9300  -59.9700   15.5100 H         6 CUB7        0.0000 
     73 DU        -33.6800  -58.9300   14.7200 H         6 CUB7        0.0000 
     74 DU        -34.4200  -57.8900   13.9400 H         6 CUB7        0.0000 
     75 DU        -30.4000  -59.9000   16.0800 H         6 CUB7        0.0000 
     76 DU        -31.1400  -58.8600   15.2900 H         6 CUB7        0.0000 
     77 DU        -31.5200  -59.9400   17.0800 H         6 CUB7        0.0000 
@<TRIPOS>BOND
@<TRIPOS>SUBSTRUCTURE
     1 SER1        1 GROUP   
     2 ALA2       13 GROUP   
     3 ASP3       29 GROUP   
     4 PHE5       45 GROUP   
     5 GLY6       59 GROUP   
     6 CUB7       65 GROUP   
@<TRIPOS>SET

