#    Name: 5wmh_2_PLP_CAVITY_N1_8
#    Modification time : Fri May 22 19:14:43 2020

@<TRIPOS>MOLECULE
5wmh_2_PLP_CAVITY_N1_8
   93     0     7     0     0
SMALL
NO_CHARGES


@<TRIPOS>ATOM
      1 OG          6.1100   13.2800   30.0200 O.3       1 SER1        0.0000 
      2 OG          5.3700   14.3200   29.2400 O.3       1 SER1        0.0000 
      3 OG          7.9000   14.3900   29.8100 O.3       1 SER1        0.0000 
      4 OG          7.1600   15.4400   29.0300 O.3       1 SER1        0.0000 
      5 OG          6.7900   14.3600   30.8100 O.3       1 SER1        0.0000 
      6 OG          6.0500   15.4000   30.0300 O.3       1 SER1        0.0000 
      7 OG         12.3000   16.6600   25.8000 O.3       1 SER1        0.0000 
      8 OG          9.6900   15.5100   29.6000 O.3       1 SER1        0.0000 
      9 OG         12.9700   17.7300   26.5900 O.3       1 SER1        0.0000 
     10 OG         12.6000   16.6600   28.3800 O.3       1 SER1        0.0000 
     11 OG         11.4900   16.6200   29.3800 O.3       1 SER1        0.0000 
     12 OG         10.3700   16.5900   30.3900 O.3       1 SER1        0.0000 
     13 OG         11.0500   17.6700   31.1800 O.3       1 SER1        0.0000 
     14 OG         14.7000   17.7700   30.7500 O.3       1 SER1        0.0000 
     15 O          14.8900   14.6100   26.3700 O.2       2 ALA2        0.0000 
     16 O          12.6700   17.7300   24.0100 O.2       2 ALA2        0.0000 
     17 O          11.4800   13.4300   33.7500 O.2       2 ALA2        0.0000 
     18 O          10.7400   14.4700   32.9600 O.2       2 ALA2        0.0000 
     19 O          12.9100   16.6600   30.9600 O.2       2 ALA2        0.0000 
     20 O          11.7900   16.6200   31.9600 O.2       2 ALA2        0.0000 
     21 O          12.1600   14.5000   34.5400 O.2       2 ALA2        0.0000 
     22 O          11.4200   15.5500   33.7500 O.2       2 ALA2        0.0000 
     23 O           8.8200   17.5900   33.1900 O.2       2 ALA2        0.0000 
     24 O           8.0800   18.6400   32.4000 O.2       2 ALA2        0.0000 
     25 O           7.7100   17.5600   34.1900 O.2       2 ALA2        0.0000 
     26 O           6.9700   18.6000   33.4100 O.2       2 ALA2        0.0000 
     27 O          12.4700   17.7000   32.7600 O.2       2 ALA2        0.0000 
     28 N          11.7300   18.7400   31.9700 N.am      2 ALA2        0.0000 
     29 OD1        11.6200   15.5800   25.0100 O.co2     3 ASP3        0.0000 
     30 OD1        10.1200   11.2700   32.1700 O.co2     3 ASP3        0.0000 
     31 OD1         8.6400   13.3500   30.6000 O.co2     3 ASP3        0.0000 
     32 OD1         8.2700   12.2800   32.3800 O.co2     3 ASP3        0.0000 
     33 OD1         7.5300   13.3200   31.6000 O.co2     3 ASP3        0.0000 
     34 OD1        10.4300   14.4700   30.3800 O.co2     3 ASP3        0.0000 
     35 OD1        10.8000   12.3500   32.9600 O.co2     3 ASP3        0.0000 
     36 OD1        10.0600   13.3900   32.1700 O.co2     3 ASP3        0.0000 
     37 OD1         9.3200   14.4300   31.3900 O.co2     3 ASP3        0.0000 
     38 OD1        14.3900   17.7700   28.1700 O.co2     3 ASP3        0.0000 
     39 OD1        12.1700   17.7000   30.1800 O.co2     3 ASP3        0.0000 
     40 OD1        12.1000   16.6300   34.5400 O.co2     3 ASP3        0.0000 
     41 OD1        11.7200   15.5500   36.3300 O.co2     3 ASP3        0.0000 
     42 OD1        10.9800   16.5900   35.5500 O.co2     3 ASP3        0.0000 
     43 OD1        10.2400   17.6300   34.7600 O.co2     3 ASP3        0.0000 
     44 OD1         9.8700   16.5500   36.5500 O.co2     3 ASP3        0.0000 
     45 OD1         9.1300   17.6000   35.7700 O.co2     3 ASP3        0.0000 
     46 NZ         16.6800   15.7200   26.1500 N.4       4 LYS4        0.0000 
     47 NZ         16.9900   15.7200   28.7300 N.4       4 LYS4        0.0000 
     48 CZ         13.0400   15.6100   26.5900 C.ar      5 PHE5        0.0000 
     49 CZ         11.9200   15.5800   27.5900 C.ar      5 PHE5        0.0000 
     50 CZ         11.1700   13.4200   31.1700 C.ar      5 PHE5        0.0000 
     51 CZ          8.5800   15.4700   30.6000 C.ar      5 PHE5        0.0000 
     52 CZ          7.8400   16.5100   29.8200 C.ar      5 PHE5        0.0000 
     53 CZ          6.7300   16.4800   30.8200 C.ar      5 PHE5        0.0000 
     54 CZ         16.3100   14.6400   27.9400 C.ar      5 PHE5        0.0000 
     55 CZ         15.5700   15.6900   27.1600 C.ar      5 PHE5        0.0000 
     56 CZ         14.4500   15.6500   28.1600 C.ar      5 PHE5        0.0000 
     57 CZ         13.7100   16.6900   27.3800 C.ar      5 PHE5        0.0000 
     58 CZ         11.1100   15.5400   31.1700 C.ar      5 PHE5        0.0000 
     59 CZ          9.2600   16.5500   31.3900 C.ar      5 PHE5        0.0000 
     60 CZ          7.4000   17.5600   31.6100 C.ar      5 PHE5        0.0000 
     61 CZ          6.2900   17.5200   32.6200 C.ar      5 PHE5        0.0000 
     62 CZ         15.8700   15.6900   29.7400 C.ar      5 PHE5        0.0000 
     63 CZ         15.1300   16.7300   28.9500 C.ar      5 PHE5        0.0000 
     64 CZ         14.0200   16.6900   29.9600 C.ar      5 PHE5        0.0000 
     65 CZ         16.5500   16.7700   30.5300 C.ar      5 PHE5        0.0000 
     66 CZ         15.8100   17.8100   29.7400 C.ar      5 PHE5        0.0000 
     67 CA          9.0100   14.4300   28.8100 C.3       6 GLY6        0.0000 
     68 CA         13.4100   16.6900   24.8000 C.3       6 GLY6        0.0000 
     69 CA         11.5400   11.3100   33.7400 C.3       6 GLY6        0.0000 
     70 CA         14.8300   16.7300   26.3700 C.3       6 GLY6        0.0000 
     71 CA         14.0900   17.7700   25.5900 C.3       6 GLY6        0.0000 
     72 CA         10.3700   13.3900   34.7500 C.3       6 GLY6        0.0000 
     73 CA         16.2500   16.7600   27.9500 C.3       6 GLY6        0.0000 
     74 CA         15.5100   17.8100   27.1600 C.3       6 GLY6        0.0000 
     75 CA          9.9400   17.6300   32.1800 C.3       6 GLY6        0.0000 
     76 CA         11.7900   13.4300   36.3300 C.3       6 GLY6        0.0000 
     77 CA         11.0400   14.4700   35.5400 C.3       6 GLY6        0.0000 
     78 CA         17.6700   16.8000   29.5300 C.3       6 GLY6        0.0000 
     79 CA         11.3600   17.6700   33.7600 C.3       6 GLY6        0.0000 
     80 DU          9.6900   12.3100   33.9600 H         7 CUB7        0.0000 
     81 DU          8.9500   13.3500   33.1800 H         7 CUB7        0.0000 
     82 DU          8.2100   14.4000   32.3900 H         7 CUB7        0.0000 
     83 DU          7.4700   15.4400   31.6100 H         7 CUB7        0.0000 
     84 DU          6.3500   15.4000   32.6100 H         7 CUB7        0.0000 
     85 DU         10.0000   15.5100   32.1800 H         7 CUB7        0.0000 
     86 DU          9.6300   14.4300   33.9700 H         7 CUB7        0.0000 
     87 DU          8.1400   16.5200   32.4000 H         7 CUB7        0.0000 
     88 DU          7.0300   16.4800   33.4000 H         7 CUB7        0.0000 
     89 DU         10.6800   16.5900   32.9700 H         7 CUB7        0.0000 
     90 DU         10.3000   15.5100   34.7600 H         7 CUB7        0.0000 
     91 DU          9.5600   16.5500   33.9700 H         7 CUB7        0.0000 
     92 DU          9.1900   15.4800   35.7600 H         7 CUB7        0.0000 
     93 DU          8.4500   16.5200   34.9800 H         7 CUB7        0.0000 
@<TRIPOS>BOND
@<TRIPOS>SUBSTRUCTURE
     1 SER1        1 GROUP   
     2 ALA2       15 GROUP   
     3 ASP3       29 GROUP   
     4 LYS4       46 GROUP   
     5 PHE5       48 GROUP   
     6 GLY6       67 GROUP   
     7 CUB7       80 GROUP   
@<TRIPOS>SET

