#    Name: 5wmh_6_PLP_CAVITY_N1_4
#    Modification time : Fri May 22 19:15:28 2020

@<TRIPOS>MOLECULE
5wmh_6_PLP_CAVITY_N1_4
   50     0     6     0     0
SMALL
NO_CHARGES


@<TRIPOS>ATOM
      1 OG        -14.2200   -5.4500   67.3200 O.3       1 SER1        0.0000 
      2 OG        -11.6900   -5.3800   67.9000 O.3       1 SER1        0.0000 
      3 OG        -12.4300   -4.3400   67.1100 O.3       1 SER1        0.0000 
      4 OG        -13.1700   -3.3000   66.3300 O.3       1 SER1        0.0000 
      5 OG        -12.8000   -5.4200   68.9000 O.3       1 SER1        0.0000 
      6 OG         -4.7000   -5.1700   64.4500 O.3       1 SER1        0.0000 
      7 OG         -5.8100   -5.2000   65.4600 O.3       1 SER1        0.0000 
      8 OG         -7.6700   -4.2000   65.6800 O.3       1 SER1        0.0000 
      9 OG         -8.4100   -3.1600   64.8900 O.3       1 SER1        0.0000 
     10 OG         -9.1500   -2.1100   64.1100 O.3       1 SER1        0.0000 
     11 OG        -10.2600   -2.1500   65.1100 O.3       1 SER1        0.0000 
     12 OG        -11.3700   -2.1800   66.1100 O.3       1 SER1        0.0000 
     13 OG        -11.0100   -4.3000   68.6900 O.3       1 SER1        0.0000 
     14 OG        -11.7500   -3.2600   67.9000 O.3       1 SER1        0.0000 
     15 OG        -13.2300   -1.1800   66.3300 O.3       1 SER1        0.0000 
     16 N         -13.9100   -2.2600   65.5400 N.am      2 ALA2        0.0000 
     17 N         -15.0200   -2.2900   66.5400 N.am      2 ALA2        0.0000 
     18 O          -5.4400   -4.1300   63.6700 O.2       2 ALA2        0.0000 
     19 O         -12.4900   -2.2200   67.1200 O.2       2 ALA2        0.0000 
     20 O         -12.1200   -4.3400   69.6900 O.2       2 ALA2        0.0000 
     21 O          -4.0200   -4.0900   65.2400 O.2       2 ALA2        0.0000 
     22 O          -5.1300   -4.1300   66.2500 O.2       2 ALA2        0.0000 
     23 O         -11.0700   -2.1800   68.6900 O.2       2 ALA2        0.0000 
     24 O         -11.8100   -1.1400   67.9100 O.2       2 ALA2        0.0000 
     25 O          -3.7100   -4.0900   67.8200 O.2       2 ALA2        0.0000 
     26 OD1        -6.2500   -4.1600   67.2500 O.co2     3 ASP3        0.0000 
     27 OD1        -9.2100   -3.1900   68.4700 O.co2     3 ASP3        0.0000 
     28 OD1        -4.8300   -4.1200   68.8300 O.co2     3 ASP3        0.0000 
     29 OD1        -6.6800   -3.1200   69.0500 O.co2     3 ASP3        0.0000 
     30 OD1        -7.8000   -3.1500   70.0500 O.co2     3 ASP3        0.0000 
     31 NZ         -5.2600   -3.0800   70.6200 N.4       4 LYS4        0.0000 
     32 CZ        -13.1100   -5.4200   66.3200 C.ar      5 PHE5        0.0000 
     33 CZ        -13.8500   -4.3800   65.5300 C.ar      5 PHE5        0.0000 
     34 CZ         -7.2300   -5.2400   63.8800 C.ar      5 PHE5        0.0000 
     35 CZ         -6.5500   -4.1600   64.6700 C.ar      5 PHE5        0.0000 
     36 CZ         -7.2900   -3.1200   63.8900 C.ar      5 PHE5        0.0000 
     37 CZ         -7.3500   -1.0000   63.8900 C.ar      5 PHE5        0.0000 
     38 CZ         -6.9900   -3.1200   66.4700 C.ar      5 PHE5        0.0000 
     39 CZ         -8.1000   -3.1500   67.4700 C.ar      5 PHE5        0.0000 
     40 CZ         -8.8400   -2.1100   66.6900 C.ar      5 PHE5        0.0000 
     41 CZ         -9.9500   -2.1500   67.6900 C.ar      5 PHE5        0.0000 
     42 CZ         -5.5700   -3.0800   68.0400 C.ar      5 PHE5        0.0000 
     43 CZ         -8.5400   -2.1100   69.2700 C.ar      5 PHE5        0.0000 
     44 CZ         -4.1500   -3.0400   69.6200 C.ar      5 PHE5        0.0000 
     45 CZ         -6.0000   -2.0400   69.8400 C.ar      5 PHE5        0.0000 
     46 CA        -14.9600   -4.4100   66.5400 C.3       6 GLY6        0.0000 
     47 CA        -13.5400   -4.3800   68.1100 C.3       6 GLY6        0.0000 
     48 CA        -14.2800   -3.3300   67.3300 C.3       6 GLY6        0.0000 
     49 CA        -13.6000   -2.2500   68.1200 C.3       6 GLY6        0.0000 
     50 CA        -10.7000   -1.1100   66.9000 C.3       6 GLY6        0.0000 
@<TRIPOS>BOND
@<TRIPOS>SUBSTRUCTURE
     1 SER1        1 GROUP   
     2 ALA2       16 GROUP   
     3 ASP3       26 GROUP   
     4 LYS4       31 GROUP   
     5 PHE5       32 GROUP   
     6 GLY6       46 GROUP   
@<TRIPOS>SET

