#    Name: 5wmh_3_PLP_CAVITY_N1_4
#    Modification time : Fri May 22 19:14:53 2020

@<TRIPOS>MOLECULE
5wmh_3_PLP_CAVITY_N1_4
   34     0     5     0     0
SMALL
NO_CHARGES


@<TRIPOS>ATOM
      1 OG        -42.1600  -39.0500   26.1800 O.3       1 SER1        0.0000 
      2 OG        -41.7900  -41.1700   28.7500 O.3       1 SER1        0.0000 
      3 OG        -42.5300  -40.1300   27.9700 O.3       1 SER1        0.0000 
      4 OG        -42.9700  -39.0800   29.7600 O.3       1 SER1        0.0000 
      5 OG        -44.0800  -39.1200   30.7600 O.3       1 SER1        0.0000 
      6 O         -41.0400  -39.0100   25.1700 O.2       2 ALA2        0.0000 
      7 O         -41.4200  -40.0900   26.9600 O.2       2 ALA2        0.0000 
      8 O         -39.6300  -38.9800   26.7500 O.2       2 ALA2        0.0000 
      9 N         -44.1400  -37.0000   30.7700 N.am      2 ALA2        0.0000 
     10 N         -45.2600  -37.0300   31.7700 N.am      2 ALA2        0.0000 
     11 O         -42.3500  -35.8800   30.5600 O.2       2 ALA2        0.0000 
     12 O         -43.4600  -35.9200   31.5600 O.2       2 ALA2        0.0000 
     13 OD1       -41.4800  -37.9700   26.9700 O.co2     3 ASP3        0.0000 
     14 OD1       -42.5900  -38.0000   27.9700 O.co2     3 ASP3        0.0000 
     15 OD1       -42.2300  -40.1200   30.5500 O.co2     3 ASP3        0.0000 
     16 OD1       -43.3400  -40.1600   31.5500 O.co2     3 ASP3        0.0000 
     17 OD1       -40.8000  -36.8900   27.7600 O.co2     3 ASP3        0.0000 
     18 OD1       -41.9200  -36.9300   28.7600 O.co2     3 ASP3        0.0000 
     19 OD1       -43.0300  -36.9600   29.7700 O.co2     3 ASP3        0.0000 
     20 OD1       -40.8600  -34.7700   27.7600 O.co2     3 ASP3        0.0000 
     21 CZ        -40.7400  -39.0100   27.7500 C.ar      4 PHE5        0.0000 
     22 CZ        -41.8500  -39.0500   28.7600 C.ar      4 PHE5        0.0000 
     23 CZ        -45.9400  -38.1100   30.9800 C.ar      4 PHE5        0.0000 
     24 CZ        -38.9500  -37.9000   27.5400 C.ar      4 PHE5        0.0000 
     25 CZ        -42.6600  -39.0800   32.3400 C.ar      4 PHE5        0.0000 
     26 CZ        -43.4000  -38.0400   31.5600 C.ar      4 PHE5        0.0000 
     27 CZ        -40.1200  -35.8100   28.5500 C.ar      4 PHE5        0.0000 
     28 CZ        -41.2400  -35.8500   29.5500 C.ar      4 PHE5        0.0000 
     29 CZ        -39.4400  -34.7300   29.3400 C.ar      4 PHE5        0.0000 
     30 CZ        -40.1800  -33.6900   28.5600 C.ar      4 PHE5        0.0000 
     31 CZ        -40.5600  -34.7700   30.3400 C.ar      4 PHE5        0.0000 
     32 CZ        -41.3000  -33.7300   29.5600 C.ar      4 PHE5        0.0000 
     33 CA        -40.3700  -37.9300   25.9600 C.3       5 GLY6        0.0000 
     34 CA        -39.6900  -36.8600   26.7600 C.3       5 GLY6        0.0000 
@<TRIPOS>BOND
@<TRIPOS>SUBSTRUCTURE
     1 SER1        1 GROUP   
     2 ALA2        6 GROUP   
     3 ASP3       13 GROUP   
     4 PHE5       21 GROUP   
     5 GLY6       33 GROUP   
@<TRIPOS>SET

