#    Name: 5wmh_2_PLP_CAVITY_N1_6
#    Modification time : Fri May 22 19:14:43 2020

@<TRIPOS>MOLECULE
5wmh_2_PLP_CAVITY_N1_6
   54     0     7     0     0
SMALL
NO_CHARGES


@<TRIPOS>ATOM
      1 OG          7.1600   15.4400   29.0300 O.3       1 SER1        0.0000 
      2 OG         12.3000   16.6600   25.8000 O.3       1 SER1        0.0000 
      3 OG          9.6900   15.5100   29.6000 O.3       1 SER1        0.0000 
      4 OG         12.9700   17.7300   26.5900 O.3       1 SER1        0.0000 
      5 OG         12.6000   16.6600   28.3800 O.3       1 SER1        0.0000 
      6 OG         11.4900   16.6200   29.3800 O.3       1 SER1        0.0000 
      7 OG         10.3700   16.5900   30.3900 O.3       1 SER1        0.0000 
      8 OG         11.0500   17.6700   31.1800 O.3       1 SER1        0.0000 
      9 OG         14.7000   17.7700   30.7500 O.3       1 SER1        0.0000 
     10 O          14.8900   14.6100   26.3700 O.2       2 ALA2        0.0000 
     11 O          12.6700   17.7300   24.0100 O.2       2 ALA2        0.0000 
     12 O          10.7400   14.4700   32.9600 O.2       2 ALA2        0.0000 
     13 O          12.9100   16.6600   30.9600 O.2       2 ALA2        0.0000 
     14 O          11.7900   16.6200   31.9600 O.2       2 ALA2        0.0000 
     15 O          12.1600   14.5000   34.5400 O.2       2 ALA2        0.0000 
     16 O          11.4200   15.5500   33.7500 O.2       2 ALA2        0.0000 
     17 O          12.4700   17.7000   32.7600 O.2       2 ALA2        0.0000 
     18 N          11.7300   18.7400   31.9700 N.am      2 ALA2        0.0000 
     19 OD1        11.6200   15.5800   25.0100 O.co2     3 ASP3        0.0000 
     20 OD1        10.4300   14.4700   30.3800 O.co2     3 ASP3        0.0000 
     21 OD1        10.0600   13.3900   32.1700 O.co2     3 ASP3        0.0000 
     22 OD1         9.3200   14.4300   31.3900 O.co2     3 ASP3        0.0000 
     23 OD1        14.3900   17.7700   28.1700 O.co2     3 ASP3        0.0000 
     24 OD1        12.1700   17.7000   30.1800 O.co2     3 ASP3        0.0000 
     25 OD1        12.1000   16.6300   34.5400 O.co2     3 ASP3        0.0000 
     26 NZ         16.6800   15.7200   26.1500 N.4       4 LYS4        0.0000 
     27 NZ         16.9900   15.7200   28.7300 N.4       4 LYS4        0.0000 
     28 CZ         13.0400   15.6100   26.5900 C.ar      5 PHE5        0.0000 
     29 CZ         11.9200   15.5800   27.5900 C.ar      5 PHE5        0.0000 
     30 CZ         11.1700   13.4200   31.1700 C.ar      5 PHE5        0.0000 
     31 CZ          8.5800   15.4700   30.6000 C.ar      5 PHE5        0.0000 
     32 CZ          7.8400   16.5100   29.8200 C.ar      5 PHE5        0.0000 
     33 CZ         16.3100   14.6400   27.9400 C.ar      5 PHE5        0.0000 
     34 CZ         15.5700   15.6900   27.1600 C.ar      5 PHE5        0.0000 
     35 CZ         14.4500   15.6500   28.1600 C.ar      5 PHE5        0.0000 
     36 CZ         13.7100   16.6900   27.3800 C.ar      5 PHE5        0.0000 
     37 CZ         11.1100   15.5400   31.1700 C.ar      5 PHE5        0.0000 
     38 CZ          9.2600   16.5500   31.3900 C.ar      5 PHE5        0.0000 
     39 CZ         15.8700   15.6900   29.7400 C.ar      5 PHE5        0.0000 
     40 CZ         15.1300   16.7300   28.9500 C.ar      5 PHE5        0.0000 
     41 CZ         14.0200   16.6900   29.9600 C.ar      5 PHE5        0.0000 
     42 CZ         16.5500   16.7700   30.5300 C.ar      5 PHE5        0.0000 
     43 CZ         15.8100   17.8100   29.7400 C.ar      5 PHE5        0.0000 
     44 CA          9.0100   14.4300   28.8100 C.3       6 GLY6        0.0000 
     45 CA         13.4100   16.6900   24.8000 C.3       6 GLY6        0.0000 
     46 CA         14.8300   16.7300   26.3700 C.3       6 GLY6        0.0000 
     47 CA         14.0900   17.7700   25.5900 C.3       6 GLY6        0.0000 
     48 CA         16.2500   16.7600   27.9500 C.3       6 GLY6        0.0000 
     49 CA         15.5100   17.8100   27.1600 C.3       6 GLY6        0.0000 
     50 CA          9.9400   17.6300   32.1800 C.3       6 GLY6        0.0000 
     51 CA         17.6700   16.8000   29.5300 C.3       6 GLY6        0.0000 
     52 CA         11.3600   17.6700   33.7600 C.3       6 GLY6        0.0000 
     53 DU         10.0000   15.5100   32.1800 H         7 CUB7        0.0000 
     54 DU         10.6800   16.5900   32.9700 H         7 CUB7        0.0000 
@<TRIPOS>BOND
@<TRIPOS>SUBSTRUCTURE
     1 SER1        1 GROUP   
     2 ALA2       10 GROUP   
     3 ASP3       19 GROUP   
     4 LYS4       26 GROUP   
     5 PHE5       28 GROUP   
     6 GLY6       44 GROUP   
     7 CUB7       53 GROUP   
@<TRIPOS>SET

