#    Name: 5wmh_5_PLP_CAVITY_N1_8
#    Modification time : Fri May 22 19:15:16 2020

@<TRIPOS>MOLECULE
5wmh_5_PLP_CAVITY_N1_8
  106     0     7     0     0
SMALL
NO_CHARGES


@<TRIPOS>ATOM
      1 OG        -30.1600    5.7600   65.7100 O.3       1 SER1        0.0000 
      2 OG        -31.2800    5.7200   66.7200 O.3       1 SER1        0.0000 
      3 OG        -33.5000    5.6500   68.7300 O.3       1 SER1        0.0000 
      4 OG        -29.8600    5.7600   68.2900 O.3       1 SER1        0.0000 
      5 OG        -30.2300    4.6800   70.0800 O.3       1 SER1        0.0000 
      6 OG        -30.9700    5.7300   69.3000 O.3       1 SER1        0.0000 
      7 OG        -31.7100    6.7700   68.5100 O.3       1 SER1        0.0000 
      8 OG        -32.0900    5.6900   70.3000 O.3       1 SER1        0.0000 
      9 OG        -32.8300    6.7300   69.5200 O.3       1 SER1        0.0000 
     10 OG        -29.9300    4.6900   72.6600 O.3       1 SER1        0.0000 
     11 OG        -30.6700    5.7300   71.8800 O.3       1 SER1        0.0000 
     12 OG        -29.2500    5.7600   73.4500 O.3       1 SER1        0.0000 
     13 OG        -29.9900    6.8100   72.6700 O.3       1 SER1        0.0000 
     14 N         -34.6200    5.6200   69.7300 N.am      2 ALA2        0.0000 
     15 N         -35.3600    6.6600   68.9400 N.am      2 ALA2        0.0000 
     16 O         -35.3700    3.4600   73.3100 O.2       2 ALA2        0.0000 
     17 O         -33.9300    9.8900   66.1600 O.2       2 ALA2        0.0000 
     18 O         -34.3100    8.8200   67.9500 O.2       2 ALA2        0.0000 
     19 N         -33.9400    6.7000   70.5200 N.am      2 ALA2        0.0000 
     20 O         -34.6800    7.7400   69.7400 O.2       2 ALA2        0.0000 
     21 O         -35.4300    5.5800   73.3100 O.2       2 ALA2        0.0000 
     22 N         -31.0400    4.6500   73.6700 N.am      2 ALA2        0.0000 
     23 O         -33.2600    7.7800   71.3100 O.2       2 ALA2        0.0000 
     24 O         -34.0000    8.8200   70.5300 O.2       2 ALA2        0.0000 
     25 O         -34.7400    9.8600   69.7400 O.2       2 ALA2        0.0000 
     26 O         -30.3600    5.7300   74.4600 O.2       2 ALA2        0.0000 
     27 O         -32.5800    8.8500   72.1000 O.2       2 ALA2        0.0000 
     28 O         -34.4400    9.8600   72.3200 O.2       2 ALA2        0.0000 
     29 O         -30.7900    9.9700   71.8900 O.2       2 ALA2        0.0000 
     30 O         -30.4200    7.8500   74.4600 O.2       2 ALA2        0.0000 
     31 O         -31.9000    9.9300   72.8900 O.2       2 ALA2        0.0000 
     32 O         -33.0200    9.9000   73.9000 O.2       2 ALA2        0.0000 
     33 O         -33.7600   10.9400   73.1100 O.2       2 ALA2        0.0000 
     34 OD1       -32.7000    5.6900   65.1400 O.co2     3 ASP3        0.0000 
     35 OD1       -32.0200    6.7700   65.9300 O.co2     3 ASP3        0.0000 
     36 OD1       -30.2900    6.8000   70.0900 O.co2     3 ASP3        0.0000 
     37 OD1       -31.4100    6.7700   71.0900 O.co2     3 ASP3        0.0000 
     38 OD1       -35.1200    8.7800   71.5300 O.co2     3 ASP3        0.0000 
     39 OD1       -35.8600    9.8200   70.7500 O.co2     3 ASP3        0.0000 
     40 OD1       -35.4900    7.7000   73.3200 O.co2     3 ASP3        0.0000 
     41 OD1       -36.6000    7.6700   74.3200 O.co2     3 ASP3        0.0000 
     42 OD1       -30.7300    7.8500   71.8800 O.co2     3 ASP3        0.0000 
     43 OD1       -35.5500    9.8300   73.3300 O.co2     3 ASP3        0.0000 
     44 OD1       -36.2900   10.8700   72.5400 O.co2     3 ASP3        0.0000 
     45 OD1       -36.6600    9.7900   74.3300 O.co2     3 ASP3        0.0000 
     46 OD1       -29.3100    7.8800   73.4600 O.co2     3 ASP3        0.0000 
     47 OD1       -30.0500    8.9300   72.6800 O.co2     3 ASP3        0.0000 
     48 OD1       -29.3700   10.0000   73.4700 O.co2     3 ASP3        0.0000 
     49 NZ        -33.5600   10.9700   64.3700 N.4       4 LYS4        0.0000 
     50 CZ        -34.6100    8.8100   65.3700 C.ar      5 PHE5        0.0000 
     51 CZ        -30.2200    7.8800   65.7200 C.ar      5 PHE5        0.0000 
     52 CZ        -30.9600    8.9200   64.9400 C.ar      5 PHE5        0.0000 
     53 CZ        -30.6000    6.8000   67.5100 C.ar      5 PHE5        0.0000 
     54 CZ        -31.3400    7.8400   66.7200 C.ar      5 PHE5        0.0000 
     55 CZ        -32.0800    8.8900   65.9400 C.ar      5 PHE5        0.0000 
     56 CZ        -32.8200    9.9300   65.1500 C.ar      5 PHE5        0.0000 
     57 CZ        -32.4500    7.8100   67.7300 C.ar      5 PHE5        0.0000 
     58 CZ        -33.1900    8.8500   66.9400 C.ar      5 PHE5        0.0000 
     59 CZ        -34.6700   10.9300   65.3700 C.ar      5 PHE5        0.0000 
     60 CZ        -30.6000    3.6100   71.8700 C.ar      5 PHE5        0.0000 
     61 CZ        -31.3400    4.6500   71.0900 C.ar      5 PHE5        0.0000 
     62 CZ        -33.5700    7.7700   68.7300 C.ar      5 PHE5        0.0000 
     63 CZ        -31.7200    3.5700   72.8800 C.ar      5 PHE5        0.0000 
     64 CZ        -32.4600    4.6100   72.0900 C.ar      5 PHE5        0.0000 
     65 CZ        -33.2000    5.6500   71.3100 C.ar      5 PHE5        0.0000 
     66 CZ        -32.8300    3.5400   73.8800 C.ar      5 PHE5        0.0000 
     67 CZ        -33.5700    4.5800   73.1000 C.ar      5 PHE5        0.0000 
     68 CZ        -32.1500    7.8100   70.3100 C.ar      5 PHE5        0.0000 
     69 CZ        -32.8900    8.8500   69.5200 C.ar      5 PHE5        0.0000 
     70 CZ        -31.4700    8.8900   71.1000 C.ar      5 PHE5        0.0000 
     71 CZ        -35.1800   10.9000   71.5400 C.ar      5 PHE5        0.0000 
     72 CZ        -34.5000   11.9800   72.3300 C.ar      5 PHE5        0.0000 
     73 CZ        -34.8700   10.9000   74.1200 C.ar      5 PHE5        0.0000 
     74 CA        -30.8400    4.6800   64.9200 C.3       6 GLY6        0.0000 
     75 CA        -31.5800    5.7200   64.1400 C.3       6 GLY6        0.0000 
     76 CA        -33.4400    6.7300   64.3600 C.3       6 GLY6        0.0000 
     77 CA        -30.9000    6.8000   64.9300 C.3       6 GLY6        0.0000 
     78 CA        -31.6400    7.8400   64.1400 C.3       6 GLY6        0.0000 
     79 CA        -32.7600    7.8100   65.1500 C.3       6 GLY6        0.0000 
     80 CA        -33.5000    8.8500   64.3600 C.3       6 GLY6        0.0000 
     81 CA        -33.1300    6.7300   66.9400 C.3       6 GLY6        0.0000 
     82 CA        -33.8700    7.7700   66.1500 C.3       6 GLY6        0.0000 
     83 CA        -34.2400    6.6900   67.9400 C.3       6 GLY6        0.0000 
     84 CA        -29.4800    6.8400   66.5100 C.3       6 GLY6        0.0000 
     85 CA        -30.9800    2.5300   73.6600 C.3       6 GLY6        0.0000 
     86 CA        -34.3100    5.6200   72.3100 C.3       6 GLY6        0.0000 
     87 CA        -35.0500    6.6600   71.5200 C.3       6 GLY6        0.0000 
     88 CA        -35.7900    7.7000   70.7400 C.3       6 GLY6        0.0000 
     89 CA        -36.1700    6.6300   72.5300 C.3       6 GLY6        0.0000 
     90 CA        -33.0800   12.0200   73.9000 C.3       6 GLY6        0.0000 
     91 DU        -34.6900    4.5400   74.1000 H         7 CUB7        0.0000 
     92 DU        -31.7800    5.6900   72.8800 H         7 CUB7        0.0000 
     93 DU        -32.5200    6.7300   72.1000 H         7 CUB7        0.0000 
     94 DU        -32.1500    4.6100   74.6700 H         7 CUB7        0.0000 
     95 DU        -32.8900    5.6600   73.8900 H         7 CUB7        0.0000 
     96 DU        -33.6300    6.7000   73.1000 H         7 CUB7        0.0000 
     97 DU        -34.3700    7.7400   72.3200 H         7 CUB7        0.0000 
     98 DU        -34.7500    6.6600   74.1000 H         7 CUB7        0.0000 
     99 DU        -31.1000    6.7700   73.6700 H         7 CUB7        0.0000 
    100 DU        -31.8400    7.8100   72.8900 H         7 CUB7        0.0000 
    101 DU        -32.2200    6.7400   74.6800 H         7 CUB7        0.0000 
    102 DU        -33.7000    8.8200   73.1100 H         7 CUB7        0.0000 
    103 DU        -34.0700    7.7400   74.9000 H         7 CUB7        0.0000 
    104 DU        -34.8100    8.7800   74.1100 H         7 CUB7        0.0000 
    105 DU        -31.1600    8.8900   73.6800 H         7 CUB7        0.0000 
    106 DU        -32.2800    8.8600   74.6800 H         7 CUB7        0.0000 
@<TRIPOS>BOND
@<TRIPOS>SUBSTRUCTURE
     1 SER1        1 GROUP   
     2 ALA2       14 GROUP   
     3 ASP3       34 GROUP   
     4 LYS4       49 GROUP   
     5 PHE5       50 GROUP   
     6 GLY6       74 GROUP   
     7 CUB7       91 GROUP   
@<TRIPOS>SET

