#    Name: 5wmh_5_PLP_CAVITY_N1_4
#    Modification time : Fri May 22 19:15:16 2020

@<TRIPOS>MOLECULE
5wmh_5_PLP_CAVITY_N1_4
   44     0     6     0     0
SMALL
NO_CHARGES


@<TRIPOS>ATOM
      1 OG        -30.1600    5.7600   65.7100 O.3       1 SER1        0.0000 
      2 OG        -31.2800    5.7200   66.7200 O.3       1 SER1        0.0000 
      3 OG        -33.5000    5.6500   68.7300 O.3       1 SER1        0.0000 
      4 OG        -29.8600    5.7600   68.2900 O.3       1 SER1        0.0000 
      5 OG        -30.9700    5.7300   69.3000 O.3       1 SER1        0.0000 
      6 OG        -31.7100    6.7700   68.5100 O.3       1 SER1        0.0000 
      7 OG        -32.0900    5.6900   70.3000 O.3       1 SER1        0.0000 
      8 OG        -32.8300    6.7300   69.5200 O.3       1 SER1        0.0000 
      9 N         -34.6200    5.6200   69.7300 N.am      2 ALA2        0.0000 
     10 N         -35.3600    6.6600   68.9400 N.am      2 ALA2        0.0000 
     11 O         -33.9300    9.8900   66.1600 O.2       2 ALA2        0.0000 
     12 O         -34.3100    8.8200   67.9500 O.2       2 ALA2        0.0000 
     13 N         -33.9400    6.7000   70.5200 N.am      2 ALA2        0.0000 
     14 O         -34.6800    7.7400   69.7400 O.2       2 ALA2        0.0000 
     15 O         -34.0000    8.8200   70.5300 O.2       2 ALA2        0.0000 
     16 O         -34.7400    9.8600   69.7400 O.2       2 ALA2        0.0000 
     17 OD1       -32.7000    5.6900   65.1400 O.co2     3 ASP3        0.0000 
     18 OD1       -32.0200    6.7700   65.9300 O.co2     3 ASP3        0.0000 
     19 OD1       -30.2900    6.8000   70.0900 O.co2     3 ASP3        0.0000 
     20 NZ        -33.5600   10.9700   64.3700 N.4       4 LYS4        0.0000 
     21 CZ        -34.6100    8.8100   65.3700 C.ar      5 PHE5        0.0000 
     22 CZ        -30.2200    7.8800   65.7200 C.ar      5 PHE5        0.0000 
     23 CZ        -30.9600    8.9200   64.9400 C.ar      5 PHE5        0.0000 
     24 CZ        -30.6000    6.8000   67.5100 C.ar      5 PHE5        0.0000 
     25 CZ        -31.3400    7.8400   66.7200 C.ar      5 PHE5        0.0000 
     26 CZ        -32.0800    8.8900   65.9400 C.ar      5 PHE5        0.0000 
     27 CZ        -32.8200    9.9300   65.1500 C.ar      5 PHE5        0.0000 
     28 CZ        -32.4500    7.8100   67.7300 C.ar      5 PHE5        0.0000 
     29 CZ        -33.1900    8.8500   66.9400 C.ar      5 PHE5        0.0000 
     30 CZ        -34.6700   10.9300   65.3700 C.ar      5 PHE5        0.0000 
     31 CZ        -33.5700    7.7700   68.7300 C.ar      5 PHE5        0.0000 
     32 CZ        -32.1500    7.8100   70.3100 C.ar      5 PHE5        0.0000 
     33 CZ        -32.8900    8.8500   69.5200 C.ar      5 PHE5        0.0000 
     34 CA        -30.8400    4.6800   64.9200 C.3       6 GLY6        0.0000 
     35 CA        -31.5800    5.7200   64.1400 C.3       6 GLY6        0.0000 
     36 CA        -33.4400    6.7300   64.3600 C.3       6 GLY6        0.0000 
     37 CA        -30.9000    6.8000   64.9300 C.3       6 GLY6        0.0000 
     38 CA        -31.6400    7.8400   64.1400 C.3       6 GLY6        0.0000 
     39 CA        -32.7600    7.8100   65.1500 C.3       6 GLY6        0.0000 
     40 CA        -33.5000    8.8500   64.3600 C.3       6 GLY6        0.0000 
     41 CA        -33.1300    6.7300   66.9400 C.3       6 GLY6        0.0000 
     42 CA        -33.8700    7.7700   66.1500 C.3       6 GLY6        0.0000 
     43 CA        -34.2400    6.6900   67.9400 C.3       6 GLY6        0.0000 
     44 CA        -29.4800    6.8400   66.5100 C.3       6 GLY6        0.0000 
@<TRIPOS>BOND
@<TRIPOS>SUBSTRUCTURE
     1 SER1        1 GROUP   
     2 ALA2        9 GROUP   
     3 ASP3       17 GROUP   
     4 LYS4       20 GROUP   
     5 PHE5       21 GROUP   
     6 GLY6       34 GROUP   
@<TRIPOS>SET

