#    Name: 5wmh_3_PLP_CAVITY_N1_6
#    Modification time : Fri May 22 19:14:53 2020

@<TRIPOS>MOLECULE
5wmh_3_PLP_CAVITY_N1_6
   59     0     6     0     0
SMALL
NO_CHARGES


@<TRIPOS>ATOM
      1 OG        -42.1600  -39.0500   26.1800 O.3       1 SER1        0.0000 
      2 OG        -41.7900  -41.1700   28.7500 O.3       1 SER1        0.0000 
      3 OG        -42.5300  -40.1300   27.9700 O.3       1 SER1        0.0000 
      4 OG        -42.9100  -41.2000   29.7600 O.3       1 SER1        0.0000 
      5 OG        -44.0200  -41.2400   30.7600 O.3       1 SER1        0.0000 
      6 OG        -42.9700  -39.0800   29.7600 O.3       1 SER1        0.0000 
      7 OG        -44.0800  -39.1200   30.7600 O.3       1 SER1        0.0000 
      8 O         -41.0400  -39.0100   25.1700 O.2       2 ALA2        0.0000 
      9 O         -41.4200  -40.0900   26.9600 O.2       2 ALA2        0.0000 
     10 O         -39.6300  -38.9800   26.7500 O.2       2 ALA2        0.0000 
     11 N         -47.0500  -38.1500   31.9900 N.am      2 ALA2        0.0000 
     12 N         -44.1400  -37.0000   30.7700 N.am      2 ALA2        0.0000 
     13 N         -45.2600  -37.0300   31.7700 N.am      2 ALA2        0.0000 
     14 O         -42.3500  -35.8800   30.5600 O.2       2 ALA2        0.0000 
     15 O         -41.9800  -38.0000   33.1300 O.2       2 ALA2        0.0000 
     16 O         -43.4600  -35.9200   31.5600 O.2       2 ALA2        0.0000 
     17 O         -43.1000  -38.0400   34.1400 O.2       2 ALA2        0.0000 
     18 O         -43.8400  -36.9900   33.3500 O.2       2 ALA2        0.0000 
     19 O         -40.5600  -37.9600   34.7100 O.2       2 ALA2        0.0000 
     20 O         -42.4200  -36.9600   34.9300 O.2       2 ALA2        0.0000 
     21 O         -43.1600  -35.9200   34.1400 O.2       2 ALA2        0.0000 
     22 O         -41.7400  -35.8800   35.7200 O.2       2 ALA2        0.0000 
     23 OD1       -41.4800  -37.9700   26.9700 O.co2     3 ASP3        0.0000 
     24 OD1       -42.5900  -38.0000   27.9700 O.co2     3 ASP3        0.0000 
     25 OD1       -42.2300  -40.1200   30.5500 O.co2     3 ASP3        0.0000 
     26 OD1       -43.3400  -40.1600   31.5500 O.co2     3 ASP3        0.0000 
     27 OD1       -43.7100  -41.2400   33.3400 O.co2     3 ASP3        0.0000 
     28 OD1       -40.8000  -36.8900   27.7600 O.co2     3 ASP3        0.0000 
     29 OD1       -41.9200  -36.9300   28.7600 O.co2     3 ASP3        0.0000 
     30 OD1       -43.0300  -36.9600   29.7700 O.co2     3 ASP3        0.0000 
     31 OD1       -41.9200  -40.1200   33.1300 O.co2     3 ASP3        0.0000 
     32 OD1       -40.8600  -34.7700   27.7600 O.co2     3 ASP3        0.0000 
     33 OD1       -44.2700  -35.9500   35.1500 O.co2     3 ASP3        0.0000 
     34 CZ        -45.1300  -41.2700   31.7600 C.ar      4 PHE5        0.0000 
     35 CZ        -40.7400  -39.0100   27.7500 C.ar      4 PHE5        0.0000 
     36 CZ        -41.8500  -39.0500   28.7600 C.ar      4 PHE5        0.0000 
     37 CZ        -45.2000  -39.1500   31.7700 C.ar      4 PHE5        0.0000 
     38 CZ        -45.9400  -38.1100   30.9800 C.ar      4 PHE5        0.0000 
     39 CZ        -46.3100  -39.1900   32.7700 C.ar      4 PHE5        0.0000 
     40 CZ        -38.9500  -37.9000   27.5400 C.ar      4 PHE5        0.0000 
     41 CZ        -42.6600  -39.0800   32.3400 C.ar      4 PHE5        0.0000 
     42 CZ        -43.4000  -38.0400   31.5600 C.ar      4 PHE5        0.0000 
     43 CZ        -40.1200  -35.8100   28.5500 C.ar      4 PHE5        0.0000 
     44 CZ        -41.2400  -35.8500   29.5500 C.ar      4 PHE5        0.0000 
     45 CZ        -41.2400  -39.0400   33.9200 C.ar      4 PHE5        0.0000 
     46 CZ        -39.4400  -34.7300   29.3400 C.ar      4 PHE5        0.0000 
     47 CZ        -40.1800  -33.6900   28.5600 C.ar      4 PHE5        0.0000 
     48 CZ        -40.5600  -34.7700   30.3400 C.ar      4 PHE5        0.0000 
     49 CZ        -41.3000  -33.7300   29.5600 C.ar      4 PHE5        0.0000 
     50 CA        -40.3700  -37.9300   25.9600 C.3       5 GLY6        0.0000 
     51 CA        -39.6900  -36.8600   26.7600 C.3       5 GLY6        0.0000 
     52 CA        -46.3700  -37.0700   32.7800 C.3       5 GLY6        0.0000 
     53 CA        -44.5800  -35.9500   32.5700 C.3       5 GLY6        0.0000 
     54 CA        -45.6900  -35.9900   33.5700 C.3       5 GLY6        0.0000 
     55 DU        -44.4500  -40.1900   32.5500 H         6 CUB7        0.0000 
     56 DU        -43.7800  -39.1200   33.3400 H         6 CUB7        0.0000 
     57 DU        -44.5200  -38.0700   32.5600 H         6 CUB7        0.0000 
     58 DU        -45.6300  -38.1100   33.5600 H         6 CUB7        0.0000 
     59 DU        -44.9500  -37.0300   34.3500 H         6 CUB7        0.0000 
@<TRIPOS>BOND
@<TRIPOS>SUBSTRUCTURE
     1 SER1        1 GROUP   
     2 ALA2        8 GROUP   
     3 ASP3       23 GROUP   
     4 PHE5       34 GROUP   
     5 GLY6       50 GROUP   
     6 CUB7       55 GROUP   
@<TRIPOS>SET

