#    Name: 6d36_2_AR6
#    Modification time : Fri May 22 19:24:32 2020

@<TRIPOS>MOLECULE
6d36_2_AR6
   36    39     1     0     0
SMALL
NO_CHARGES


@<TRIPOS>ATOM
      1 N1        -14.0220  -15.0730   22.7140 N.ar      1 AR6401      0.0000 
      2 C2        -15.0250  -15.5720   21.9730 C.ar      1 AR6401      0.0000 
      3 N3        -14.8640  -16.5160   21.0320 N.ar      1 AR6401      0.0000 
      4 C4        -13.6390  -17.0250   20.7680 C.ar      1 AR6401      0.0000 
      5 C5        -12.4890  -16.5330   21.5400 C.ar      1 AR6401      0.0000 
      6 C6        -12.7460  -15.4910   22.5630 C.ar      1 AR6401      0.0000 
      7 N6        -11.7480  -14.9750   23.3240 N.pl3     1 AR6401      0.0000 
      8 N7        -11.4130  -17.1990   21.0810 N.2       1 AR6401      0.0000 
      9 C8        -11.8400  -18.0420   20.1040 C.2       1 AR6401      0.0000 
     10 N9        -13.1700  -17.9410   19.9160 N.pl3     1 AR6401      0.0000 
     11 PA         -9.7230  -18.6010   15.9480 P.3       1 AR6401      0.0000 
     12 PB         -8.2450  -21.0830   15.4400 P.3       1 AR6401      0.0000 
     13 C1'       -13.9780  -18.7100   18.9340 C.3       1 AR6401      0.0000 
     14 O1A        -8.6700  -17.9410   16.8070 O.co2     1 AR6401      0.0000 
     15 O1B        -7.0350  -21.0770   14.5490 O.co2     1 AR6401      0.0000 
     16 C1D       -11.4410  -24.1770   12.8540 C.3       1 AR6401      0.0000 
     17 O1D       -12.0140  -25.4870   12.7990 O.3       1 AR6401      0.0000 
     18 C2'       -14.4560  -17.8020   17.8140 C.3       1 AR6401      0.0000 
     19 O2'       -15.7850  -18.2000   17.4780 O.3       1 AR6401      0.0000 
     20 O2A       -10.4620  -17.7520   14.9360 O.co2     1 AR6401      0.0000 
     21 O2B        -8.0760  -21.2050   16.9300 O.co2     1 AR6401      0.0000 
     22 C2D        -9.9410  -24.3020   12.7000 C.3       1 AR6401      0.0000 
     23 O2D        -9.5860  -25.2910   11.7370 O.3       1 AR6401      0.0000 
     24 C3'       -13.5340  -18.1180   16.6530 C.3       1 AR6401      0.0000 
     25 O3'       -14.1660  -17.9230   15.3800 O.3       1 AR6401      0.0000 
     26 O3A        -9.1270  -19.7940   15.0410 O.3       1 AR6401      0.0000 
     27 C3D        -9.4970  -24.7260   14.0860 C.3       1 AR6401      0.0000 
     28 O3D        -9.5110  -26.1520   14.1810 O.3       1 AR6401      0.0000 
     29 C4'       -13.2100  -19.5820   16.8970 C.3       1 AR6401      0.0000 
     30 O4'       -13.1800  -19.7300   18.3170 O.3       1 AR6401      0.0000 
     31 C4D       -10.5640  -24.1630   15.0080 C.3       1 AR6401      0.0000 
     32 O4D       -11.6220  -23.6760   14.1800 O.3       1 AR6401      0.0000 
     33 C5'       -11.8890  -20.0100   16.2720 C.3       1 AR6401      0.0000 
     34 O5'       -10.7980  -19.3370   16.8830 O.3       1 AR6401      0.0000 
     35 C5D        -9.9960  -23.0040   15.7980 C.3       1 AR6401      0.0000 
     36 O5D        -9.2010  -22.2480   14.8910 O.3       1 AR6401      0.0000 
@<TRIPOS>BOND
     1    1    2 ar   
     2    1    6 ar   
     3    2    3 ar   
     4    3    4 ar   
     5    4    5 ar   
     6    4   10 1    
     7    5    6 ar   
     8    5    8 1    
     9    6    7 1    
    10    8    9 2    
    11    9   10 1    
    12   10   13 1    
    13   11   14 ar   
    14   11   20 ar   
    15   11   26 1    
    16   11   34 1    
    17   12   15 ar   
    18   12   21 ar   
    19   12   26 1    
    20   12   36 1    
    21   13   18 1    
    22   13   30 1    
    23   16   17 1    
    24   16   22 1    
    25   16   32 1    
    26   18   19 1    
    27   18   24 1    
    28   22   23 1    
    29   22   27 1    
    30   24   25 1    
    31   24   29 1    
    32   27   28 1    
    33   27   31 1    
    34   29   30 1    
    35   29   33 1    
    36   31   32 1    
    37   31   35 1    
    38   33   34 1    
    39   35   36 1    
@<TRIPOS>SUBSTRUCTURE
     1 AR6401      1 GROUP   
@<TRIPOS>SET

