#    Name: 6d36_2_AR6_CAVITY_N1_4
#    Modification time : Fri May 22 19:24:34 2020

@<TRIPOS>MOLECULE
6d36_2_AR6_CAVITY_N1_4
   84     0     7     0     0
SMALL
NO_CHARGES


@<TRIPOS>ATOM
      1 OG         -7.4900  -20.3700   15.9500 O.3       1 SER1        0.0000 
      2 OG         -8.7400  -20.9400   16.5400 O.3       1 SER1        0.0000 
      3 OG        -10.0300  -17.8600   16.8100 O.3       1 SER1        0.0000 
      4 OG        -11.2800  -18.4300   17.4000 O.3       1 SER1        0.0000 
      5 OG         -8.0000  -18.4600   16.7200 O.3       1 SER1        0.0000 
      6 OG         -9.2500  -19.0300   17.3200 O.3       1 SER1        0.0000 
      7 OG        -10.5000  -19.6100   17.9100 O.3       1 SER1        0.0000 
      8 OG        -11.0100  -17.7000   18.6800 O.3       1 SER1        0.0000 
      9 OG        -13.7500  -16.2100   21.9300 O.3       1 SER1        0.0000 
     10 N         -13.3900  -24.5600   10.8100 N.am      2 ALA2        0.0000 
     11 N         -11.8600  -23.2600   11.5000 N.am      2 ALA2        0.0000 
     12 N         -11.0800  -24.4400   12.0100 N.am      2 ALA2        0.0000 
     13 O          -9.5600  -23.1300   12.6900 O.2       2 ALA2        0.0000 
     14 O         -10.8100  -23.7100   13.2900 O.2       2 ALA2        0.0000 
     15 O          -9.2900  -22.4000   13.9800 O.2       2 ALA2        0.0000 
     16 N          -8.5100  -23.5800   14.4800 N.am      2 ALA2        0.0000 
     17 N          -9.7600  -24.1500   15.0700 N.am      2 ALA2        0.0000 
     18 O         -13.8600  -19.2900   14.9300 O.2       2 ALA2        0.0000 
     19 O          -8.2300  -22.8500   15.7600 O.2       2 ALA2        0.0000 
     20 N          -9.4900  -23.4200   16.3600 N.am      2 ALA2        0.0000 
     21 N         -10.7400  -24.0000   16.9500 N.am      2 ALA2        0.0000 
     22 O         -12.3300  -17.9800   15.6200 O.2       2 ALA2        0.0000 
     23 O          -9.0500  -18.0100   14.9300 O.2       2 ALA2        0.0000 
     24 O         -10.3000  -18.5900   15.5300 O.2       2 ALA2        0.0000 
     25 N         -11.2500  -22.0900   17.7300 N.am      2 ALA2        0.0000 
     26 O          -8.7800  -17.2800   16.2200 O.2       2 ALA2        0.0000 
     27 O         -11.4800  -19.4500   19.7800 O.2       2 ALA2        0.0000 
     28 O         -11.2100  -18.7200   21.0600 O.2       2 ALA2        0.0000 
     29 O         -11.7200  -16.8100   21.8400 O.2       2 ALA2        0.0000 
     30 OD1       -12.3300  -25.0100   12.6000 O.co2     3 ASP3        0.0000 
     31 OD1       -10.0300  -24.8800   13.7900 O.co2     3 ASP3        0.0000 
     32 OD1       -11.2800  -25.4600   14.3900 O.co2     3 ASP3        0.0000 
     33 NZ         -8.7800  -24.3100   13.2000 N.4       4 LYS4        0.0000 
     34 CZ        -12.0600  -17.2500   16.9000 C.ar      5 PHE5        0.0000 
     35 CZ        -13.3100  -17.8300   17.4900 C.ar      5 PHE5        0.0000 
     36 CZ        -13.0400  -17.1000   18.7700 C.ar      5 PHE5        0.0000 
     37 CZ        -14.2900  -17.6700   19.3700 C.ar      5 PHE5        0.0000 
     38 CZ        -12.2600  -18.2700   19.2800 C.ar      5 PHE5        0.0000 
     39 CZ        -13.5100  -18.8500   19.8700 C.ar      5 PHE5        0.0000 
     40 CZ        -12.7300  -20.0300   20.3800 C.ar      5 PHE5        0.0000 
     41 CZ        -13.9800  -20.6000   20.9700 C.ar      5 PHE5        0.0000 
     42 CZ        -15.2400  -21.1800   21.5600 C.ar      5 PHE5        0.0000 
     43 CZ        -13.2100  -21.7800   21.4800 C.ar      5 PHE5        0.0000 
     44 CZ        -12.7700  -16.3700   20.0500 C.ar      5 PHE5        0.0000 
     45 CZ        -14.0200  -16.9400   20.6500 C.ar      5 PHE5        0.0000 
     46 CZ        -11.9900  -17.5400   20.5600 C.ar      5 PHE5        0.0000 
     47 CZ        -13.2400  -18.1200   21.1500 C.ar      5 PHE5        0.0000 
     48 CZ        -12.5000  -15.6400   21.3400 C.ar      5 PHE5        0.0000 
     49 CZ        -13.4800  -15.4800   23.2100 C.ar      5 PHE5        0.0000 
     50 CA        -11.5900  -22.5300   12.7800 C.3       6 GLY6        0.0000 
     51 CA        -12.8400  -23.1000   13.3700 C.3       6 GLY6        0.0000 
     52 CA        -14.0900  -23.6800   13.9700 C.3       6 GLY6        0.0000 
     53 CA        -12.0600  -24.2800   13.8800 C.3       6 GLY6        0.0000 
     54 CA        -13.3500  -21.2000   14.1500 C.3       6 GLY6        0.0000 
     55 CA        -11.3200  -21.8000   14.0600 C.3       6 GLY6        0.0000 
     56 CA        -12.5700  -22.3700   14.6600 C.3       6 GLY6        0.0000 
     57 CA        -10.5400  -22.9800   14.5700 C.3       6 GLY6        0.0000 
     58 CA        -11.7900  -23.5500   15.1600 C.3       6 GLY6        0.0000 
     59 CA        -11.0100  -24.7300   15.6700 C.3       6 GLY6        0.0000 
     60 CA        -11.8200  -19.8900   14.8400 C.3       6 GLY6        0.0000 
     61 CA         -8.5400  -19.9200   14.1600 C.3       6 GLY6        0.0000 
     62 CA         -9.7900  -20.4900   14.7500 C.3       6 GLY6        0.0000 
     63 CA        -11.0400  -21.0700   15.3500 C.3       6 GLY6        0.0000 
     64 CA        -12.3000  -21.6400   15.9400 C.3       6 GLY6        0.0000 
     65 CA         -7.7600  -21.1000   14.6600 C.3       6 GLY6        0.0000 
     66 CA        -11.5200  -22.8200   16.4400 C.3       6 GLY6        0.0000 
     67 CA        -12.8000  -19.7300   16.7100 C.3       6 GLY6        0.0000 
     68 CA         -8.2700  -19.1900   15.4400 C.3       6 GLY6        0.0000 
     69 CA        -10.7700  -20.3400   16.6300 C.3       6 GLY6        0.0000 
     70 CA        -12.0200  -20.9100   17.2200 C.3       6 GLY6        0.0000 
     71 CA         -9.9900  -21.5200   17.1300 C.3       6 GLY6        0.0000 
     72 CA        -10.8100  -16.6800   16.3000 C.3       6 GLY6        0.0000 
     73 CA        -13.7800  -19.5800   18.5900 C.3       6 GLY6        0.0000 
     74 CA        -11.7500  -20.1800   18.5000 C.3       6 GLY6        0.0000 
     75 CA        -13.0000  -20.7600   19.0900 C.3       6 GLY6        0.0000 
     76 CA        -14.2600  -21.3300   19.6900 C.3       6 GLY6        0.0000 
     77 CA        -12.2300  -21.9300   19.6000 C.3       6 GLY6        0.0000 
     78 CA        -11.9500  -21.2000   20.8800 C.3       6 GLY6        0.0000 
     79 DU        -13.1100  -23.8300   12.0900 H         7 CUB7        0.0000 
     80 DU         -9.0100  -21.6700   15.2600 H         7 CUB7        0.0000 
     81 DU        -10.2700  -22.2500   15.8500 H         7 CUB7        0.0000 
     82 DU        -11.5500  -19.1600   16.1200 H         7 CUB7        0.0000 
     83 DU         -9.5200  -19.7600   16.0300 H         7 CUB7        0.0000 
     84 DU        -12.5300  -19.0000   18.0000 H         7 CUB7        0.0000 
@<TRIPOS>BOND
@<TRIPOS>SUBSTRUCTURE
     1 SER1        1 GROUP   
     2 ALA2       10 GROUP   
     3 ASP3       30 GROUP   
     4 LYS4       33 GROUP   
     5 PHE5       34 GROUP   
     6 GLY6       50 GROUP   
     7 CUB7       79 GROUP   
@<TRIPOS>SET

