#    Name: 6d36_3_AR6
#    Modification time : Fri May 22 19:24:37 2020

@<TRIPOS>MOLECULE
6d36_3_AR6
   36    39     1     0     0
SMALL
NO_CHARGES


@<TRIPOS>ATOM
      1 N1         19.4790   35.5400  -21.3330 N.ar      1 AR6401      0.0000 
      2 C2         19.9380   34.5700  -20.5160 C.ar      1 AR6401      0.0000 
      3 N3         19.2000   33.9810  -19.5560 N.ar      1 AR6401      0.0000 
      4 C4         17.9010   34.3530  -19.3840 C.ar      1 AR6401      0.0000 
      5 C5         17.3220   35.4000  -20.2400 C.ar      1 AR6401      0.0000 
      6 C6         18.2050   36.0020  -21.2620 C.ar      1 AR6401      0.0000 
      7 N6         17.7450   36.9710  -22.0940 N.pl3     1 AR6401      0.0000 
      8 N7         16.0420   35.5650  -19.8440 N.2       1 AR6401      0.0000 
      9 C8         15.8210   34.7030  -18.8200 C.2       1 AR6401      0.0000 
     10 N9         16.9290   33.9750  -18.5620 N.pl3     1 AR6401      0.0000 
     11 PA         13.4380   35.7440  -14.9240 P.3       1 AR6401      0.0000 
     12 PB         10.7690   34.5560  -14.6460 P.3       1 AR6401      0.0000 
     13 C1'        17.0780   32.9470  -17.5080 C.3       1 AR6401      0.0000 
     14 O1A        13.0230   36.8970  -15.7750 O.co2     1 AR6401      0.0000 
     15 O1B         9.6690   35.2000  -13.8380 O.co2     1 AR6401      0.0000 
     16 C1D        11.3640   30.0720  -12.1280 C.3       1 AR6401      0.0000 
     17 O1D        10.9610   28.6980  -12.1330 O.3       1 AR6401      0.0000 
     18 C2'        17.8210   33.6050  -16.3510 C.3       1 AR6401      0.0000 
     19 O2'        18.7800   32.6930  -15.8010 O.3       1 AR6401      0.0000 
     20 O2A        14.3600   35.9730  -13.7580 O.co2     1 AR6401      0.0000 
     21 O2B        10.6050   34.4500  -16.1520 O.co2     1 AR6401      0.0000 
     22 C2D        10.1450   30.9510  -11.9600 C.3       1 AR6401      0.0000 
     23 O2D         9.2010   30.3670  -11.0730 O.3       1 AR6401      0.0000 
     24 C3'        16.7230   33.9110  -15.3490 C.3       1 AR6401      0.0000 
     25 O3'        17.1890   33.9070  -13.9890 O.3       1 AR6401      0.0000 
     26 O3A        12.1480   35.2520  -14.1120 O.3       1 AR6401      0.0000 
     27 C3D         9.5490   30.9690  -13.3520 C.3       1 AR6401      0.0000 
     28 O3D         8.6490   29.8570  -13.4610 O.3       1 AR6401      0.0000 
     29 C4'        15.6760   32.8400  -15.6240 C.3       1 AR6401      0.0000 
     30 O4'        15.7780   32.5870  -17.0330 O.3       1 AR6401      0.0000 
     31 C4D        10.7270   30.7300  -14.2650 C.3       1 AR6401      0.0000 
     32 O4D        11.8340   30.3630  -13.4330 O.3       1 AR6401      0.0000 
     33 C5'        14.2560   33.2870  -15.2700 C.3       1 AR6401      0.0000 
     34 O5'        13.9060   34.5360  -15.8780 O.3       1 AR6401      0.0000 
     35 C5D        11.0540   32.0090  -15.0220 C.3       1 AR6401      0.0000 
     36 O5D        11.0150   33.0820  -14.0840 O.3       1 AR6401      0.0000 
@<TRIPOS>BOND
     1    1    2 ar   
     2    1    6 ar   
     3    2    3 ar   
     4    3    4 ar   
     5    4    5 ar   
     6    4   10 1    
     7    5    6 ar   
     8    5    8 1    
     9    6    7 1    
    10    8    9 2    
    11    9   10 1    
    12   10   13 1    
    13   11   14 ar   
    14   11   20 ar   
    15   11   26 1    
    16   11   34 1    
    17   12   15 ar   
    18   12   21 ar   
    19   12   26 1    
    20   12   36 1    
    21   13   18 1    
    22   13   30 1    
    23   16   17 1    
    24   16   22 1    
    25   16   32 1    
    26   18   19 1    
    27   18   24 1    
    28   22   23 1    
    29   22   27 1    
    30   24   25 1    
    31   24   29 1    
    32   27   28 1    
    33   27   31 1    
    34   29   30 1    
    35   29   33 1    
    36   31   32 1    
    37   31   35 1    
    38   33   34 1    
    39   35   36 1    
@<TRIPOS>SUBSTRUCTURE
     1 AR6401      1 GROUP   
@<TRIPOS>SET

