#    Name: 6d36_1_AR6
#    Modification time : Fri May 22 19:24:27 2020

@<TRIPOS>MOLECULE
6d36_1_AR6
   36    39     1     0     0
SMALL
NO_CHARGES


@<TRIPOS>ATOM
      1 N1         35.7680    6.8420   33.6740 N.ar      1 AR6401      0.0000 
      2 C2         36.2890    5.8190   34.3770 C.ar      1 AR6401      0.0000 
      3 N3         35.6200    5.1610   35.3350 N.ar      1 AR6401      0.0000 
      4 C4         34.3420    5.5020   35.6520 C.ar      1 AR6401      0.0000 
      5 C5         33.7040    6.6180   34.9360 C.ar      1 AR6401      0.0000 
      6 C6         34.5090    7.2980   33.8930 C.ar      1 AR6401      0.0000 
      7 N6         34.0050    8.3400   33.1890 N.pl3     1 AR6401      0.0000 
      8 N7         32.4590    6.7430   35.4400 N.2       1 AR6401      0.0000 
      9 C8         32.3170    5.7950   36.4040 C.2       1 AR6401      0.0000 
     10 N9         33.4350    5.0500   36.5280 N.pl3     1 AR6401      0.0000 
     11 PA         30.5680    6.6520   40.7930 P.3       1 AR6401      0.0000 
     12 PB         27.9590    5.4120   41.4060 P.3       1 AR6401      0.0000 
     13 C1'        33.6430    3.9270   37.4840 C.3       1 AR6401      0.0000 
     14 O1A        30.0670    7.8750   40.0760 O.co2     1 AR6401      0.0000 
     15 O1B        26.9910    6.0740   42.3550 O.co2     1 AR6401      0.0000 
     16 C1D        29.0250    1.0550   43.7760 C.3       1 AR6401      0.0000 
     17 O1D        28.7970   -0.3520   43.9280 O.3       1 AR6401      0.0000 
     18 C2'        34.5790    4.3890   38.5850 C.3       1 AR6401      0.0000 
     19 O2'        35.4170    3.2890   38.9500 O.3       1 AR6401      0.0000 
     20 O2A        31.6950    6.7480   41.8050 O.co2     1 AR6401      0.0000 
     21 O2B        27.6260    5.3950   39.9410 O.co2     1 AR6401      0.0000 
     22 C2D        27.7290    1.7810   44.0540 C.3       1 AR6401      0.0000 
     23 O2D        27.0260    1.1340   45.1080 O.3       1 AR6401      0.0000 
     24 C3'        33.6630    4.7260   39.7460 C.3       1 AR6401      0.0000 
     25 O3'        34.3320    4.6320   41.0150 O.3       1 AR6401      0.0000 
     26 O3A        29.3890    6.0870   41.7590 O.3       1 AR6401      0.0000 
     27 C3D        26.9700    1.6700   42.7390 C.3       1 AR6401      0.0000 
     28 O3D        26.2050    0.4650   42.6580 O.3       1 AR6401      0.0000 
     29 C4'        32.5410    3.7150   39.5610 C.3       1 AR6401      0.0000 
     30 O4'        32.4100    3.5760   38.1330 O.3       1 AR6401      0.0000 
     31 C4D        28.0650    1.5610   41.7100 C.3       1 AR6401      0.0000 
     32 O4D        29.2980    1.3300   42.4050 O.3       1 AR6401      0.0000 
     33 C5'        31.2420    4.1860   40.1950 C.3       1 AR6401      0.0000 
     34 O5'        30.9170    5.4990   39.7450 O.3       1 AR6401      0.0000 
     35 C5D        28.1430    2.8700   40.9440 C.3       1 AR6401      0.0000 
     36 O5D        28.2010    3.9180   41.9040 O.3       1 AR6401      0.0000 
@<TRIPOS>BOND
     1    1    2 ar   
     2    1    6 ar   
     3    2    3 ar   
     4    3    4 ar   
     5    4    5 ar   
     6    4   10 1    
     7    5    6 ar   
     8    5    8 1    
     9    6    7 1    
    10    8    9 2    
    11    9   10 1    
    12   10   13 1    
    13   11   14 ar   
    14   11   20 ar   
    15   11   26 1    
    16   11   34 1    
    17   12   15 ar   
    18   12   21 ar   
    19   12   26 1    
    20   12   36 1    
    21   13   18 1    
    22   13   30 1    
    23   16   17 1    
    24   16   22 1    
    25   16   32 1    
    26   18   19 1    
    27   18   24 1    
    28   22   23 1    
    29   22   27 1    
    30   24   25 1    
    31   24   29 1    
    32   27   28 1    
    33   27   31 1    
    34   29   30 1    
    35   29   33 1    
    36   31   32 1    
    37   31   35 1    
    38   33   34 1    
    39   35   36 1    
@<TRIPOS>SUBSTRUCTURE
     1 AR6401      1 GROUP   
@<TRIPOS>SET

