#    Name: 5whe_1_GNP
#    Modification time : Fri May 22 19:12:43 2020

@<TRIPOS>MOLECULE
5whe_1_GNP
   32    34     1     0     1
SMALL
NO_CHARGES


@<TRIPOS>ATOM
      1 PG         85.6100   -0.4150   60.3150 P.3       1 GNP801      0.0000 
      2 O1G        85.9770    0.9840   59.9170 O.co2     1 GNP801      0.0000 
      3 O2G        84.2080   -0.8540   59.9550 O.co2     1 GNP801      0.0000 
      4 O3G        85.7250   -0.6840   61.7920 O.co2     1 GNP801      0.0000 
      5 N3B        86.6810   -1.3890   59.6460 N.3       1 GNP801      0.0000 
      6 PB         87.0810   -1.4400   58.1010 P.3       1 GNP801      0.0000 
      7 O1B        85.9830   -2.0180   57.2820 O.co2     1 GNP801      0.0000 
      8 O2B        87.5470   -0.0940   57.7000 O.co2     1 GNP801      0.0000 
      9 O3A        88.2300   -2.4490   57.9600 O.3       1 GNP801      0.0000 
     10 PA         89.7410   -2.2230   58.1590 P.3       1 GNP801      0.0000 
     11 O1A        90.3200   -1.6300   56.9470 O.co2     1 GNP801      0.0000 
     12 O2A        90.0170   -1.5850   59.4610 O.co2     1 GNP801      0.0000 
     13 O5'        90.3860   -3.6630   58.2380 O.3       1 GNP801      0.0000 
     14 C5'        89.9170   -4.5710   59.2390 C.3       1 GNP801      0.0000 
     15 C4'        90.9720   -5.6100   59.5890 C.3       1 GNP801      0.0000 
     16 O4'        91.0660   -6.5870   58.5210 O.3       1 GNP801      0.0000 
     17 C3'        92.3810   -5.0640   59.7820 C.3       1 GNP801      0.0000 
     18 O3'        93.0740   -5.8590   60.7180 O.3       1 GNP801      0.0000 
     19 C2'        93.0020   -5.2220   58.3970 C.3       1 GNP801      0.0000 
     20 O2'        94.4010   -5.3830   58.4690 O.3       1 GNP801      0.0000 
     21 C1'        92.3450   -6.5090   57.9040 C.3       1 GNP801      0.0000 
     22 N9         92.1650   -6.5610   56.4530 N.pl3     1 GNP801      0.0000 
     23 C8         91.5620   -5.6130   55.6530 C.2       1 GNP801      0.0000 
     24 N7         91.5500   -5.9360   54.3890 N.2       1 GNP801      0.0000 
     25 C5         92.1700   -7.1850   54.3450 C.2       1 GNP801      0.0000 
     26 C6         92.4410   -8.0330   53.2410 C.2       1 GNP801      0.0000 
     27 O6         92.1760   -7.8510   52.0420 O.2       1 GNP801      0.0000 
     28 N1         93.0940   -9.2020   53.6380 N.am      1 GNP801      0.0000 
     29 C2         93.4440   -9.5140   54.9330 C.2       1 GNP801      0.0000 
     30 N2         94.0730  -10.6900   55.1120 N.pl3     1 GNP801      0.0000 
     31 N3         93.1930   -8.7240   55.9790 N.2       1 GNP801      0.0000 
     32 C4         92.5600   -7.5780   55.6080 C.2       1 GNP801      0.0000 
@<TRIPOS>BOND
     1    1    2 ar   
     2    1    3 ar   
     3    1    4 ar   
     4    1    5 1    
     5    5    6 1    
     6    6    7 ar   
     7    6    8 ar   
     8    6    9 1    
     9    9   10 1    
    10   10   11 ar   
    11   10   12 ar   
    12   10   13 1    
    13   13   14 1    
    14   14   15 1    
    15   15   16 1    
    16   15   17 1    
    17   16   21 1    
    18   17   18 1    
    19   17   19 1    
    20   19   20 1    
    21   19   21 1    
    22   21   22 1    
    23   22   23 1    
    24   22   32 1    
    25   23   24 2    
    26   24   25 1    
    27   25   26 1    
    28   25   32 2    
    29   26   27 2    
    30   26   28 am   
    31   28   29 1    
    32   29   30 1    
    33   29   31 2    
    34   31   32 1    
@<TRIPOS>SUBSTRUCTURE
     1 GNP801      1 GROUP   
@<TRIPOS>SET
ATOM$ORANGE STATIC     ATOMS   COLORGROUP SYSTEM 
20 14 14 15 15 17 17 19 19 21 21 23 23 25 25 26 26 29 \
29 32 32 

