#    Name: 5whe_1_GNP_CAVITY_N1_12
#    Modification time : Fri May 22 19:12:45 2020

@<TRIPOS>MOLECULE
5whe_1_GNP_CAVITY_N1_12
   99     0     6     0     0
SMALL
NO_CHARGES


@<TRIPOS>ATOM
      1 N          99.3200  -10.6500   58.7700 N.am      1 ALA2        0.0000 
      2 N          97.8800  -10.5400   59.1900 N.am      1 ALA2        0.0000 
      3 O          91.9000   -6.7000   53.8900 O.2       1 ALA2        0.0000 
      4 O          90.7600   -6.7300   60.6700 O.2       1 ALA2        0.0000 
      5 O          92.5700   -7.2500   61.6300 O.2       1 ALA2        0.0000 
      6 N          90.2100   -4.4600   58.2600 N.am      1 ALA2        0.0000 
      7 N          88.7800   -4.3500   58.6900 N.am      1 ALA2        0.0000 
      8 N          89.1600   -4.7700   60.0700 N.am      1 ALA2        0.0000 
      9 O          90.9700   -5.3000   61.0400 O.2       1 ALA2        0.0000 
     10 O          89.5300   -5.1900   61.4600 O.2       1 ALA2        0.0000 
     11 O          97.0900   -6.1300   60.7400 O.2       1 ALA2        0.0000 
     12 O          92.7800   -5.8200   62.0100 O.2       1 ALA2        0.0000 
     13 O          87.1800   -2.3900   58.0900 O.2       1 ALA2        0.0000 
     14 O          86.3300   -1.2700   60.2800 O.2       1 ALA2        0.0000 
     15 O          84.9000   -1.1700   60.7100 O.2       1 ALA2        0.0000 
     16 O          86.7100   -1.6900   61.6700 O.2       1 ALA2        0.0000 
     17 O          85.1100    0.2700   61.0800 O.2       1 ALA2        0.0000 
     18 OD1        91.4300   -6.0000   57.4600 O.co2     2 ASP3        0.0000 
     19 OD1        90.0000   -5.8900   57.8900 O.co2     2 ASP3        0.0000 
     20 OD1        91.8100   -6.4200   58.8500 O.co2     2 ASP3        0.0000 
     21 OD1        90.3800   -6.3100   59.2800 O.co2     2 ASP3        0.0000 
     22 OD1        88.8300   -1.0600   58.0500 O.co2     2 ASP3        0.0000 
     23 OD1        87.3900   -0.9600   58.4700 O.co2     2 ASP3        0.0000 
     24 OD1        85.9600   -0.8500   58.8900 O.co2     2 ASP3        0.0000 
     25 OD1        89.2100   -1.4800   59.4400 O.co2     2 ASP3        0.0000 
     26 OD1        87.7700   -1.3800   59.8600 O.co2     2 ASP3        0.0000 
     27 OD1        86.5500    0.1600   60.6600 O.co2     2 ASP3        0.0000 
     28 NZ         93.2800  -10.0900   54.1000 N.4       3 LYS4        0.0000 
     29 NZ         95.1000  -10.6200   55.0700 N.4       3 LYS4        0.0000 
     30 NZ         93.6600  -10.5100   55.4900 N.4       3 LYS4        0.0000 
     31 NZ         95.8500  -11.4600   57.8500 N.4       3 LYS4        0.0000 
     32 NZ         93.5000   -8.6600   54.4800 N.4       3 LYS4        0.0000 
     33 NZ         96.0700  -10.0200   58.2200 N.4       3 LYS4        0.0000 
     34 NZ         94.6300   -9.9200   58.6500 N.4       3 LYS4        0.0000 
     35 NZ         96.4500  -10.4400   59.6100 N.4       3 LYS4        0.0000 
     36 NZ         94.2200   -5.9200   61.5800 N.4       3 LYS4        0.0000 
     37 NZ         95.8700   -4.5900   61.5400 N.4       3 LYS4        0.0000 
     38 NZ         94.4300   -4.4900   61.9600 N.4       3 LYS4        0.0000 
     39 CZ         95.3100   -9.1800   55.4400 C.ar      4 PHE5        0.0000 
     40 CZ         93.8700   -9.0800   55.8700 C.ar      4 PHE5        0.0000 
     41 CZ         95.6900   -9.6000   56.8300 C.ar      4 PHE5        0.0000 
     42 CZ         93.7100   -7.2200   54.8500 C.ar      4 PHE5        0.0000 
     43 CZ         94.0900   -7.6400   56.2400 C.ar      4 PHE5        0.0000 
     44 CZ         92.6500   -7.5400   56.6700 C.ar      4 PHE5        0.0000 
     45 CZ         94.4700   -8.0600   57.6300 C.ar      4 PHE5        0.0000 
     46 CZ         97.7200   -8.6900   58.1800 C.ar      4 PHE5        0.0000 
     47 CZ         96.2800   -8.5800   58.6000 C.ar      4 PHE5        0.0000 
     48 CZ         92.4900   -5.6800   55.6500 C.ar      4 PHE5        0.0000 
     49 CZ         92.8700   -6.1000   57.0400 C.ar      4 PHE5        0.0000 
     50 CZ         94.6800   -6.6200   58.0100 C.ar      4 PHE5        0.0000 
     51 CZ         93.2500   -6.5200   58.4300 C.ar      4 PHE5        0.0000 
     52 CZ         96.5000   -7.1500   58.9700 C.ar      4 PHE5        0.0000 
     53 CZ         95.0600   -7.0400   59.4000 C.ar      4 PHE5        0.0000 
     54 CZ         93.0800   -4.6600   57.4200 C.ar      4 PHE5        0.0000 
     55 CZ         94.9000   -5.1900   58.3800 C.ar      4 PHE5        0.0000 
     56 CZ         96.7100   -5.7100   59.3500 C.ar      4 PHE5        0.0000 
     57 CA         95.4700  -11.0400   56.4600 C.3       5 GLY6        0.0000 
     58 CA         94.0400  -10.9300   56.8800 C.3       5 GLY6        0.0000 
     59 CA         98.7200  -11.6600   57.0000 C.3       5 GLY6        0.0000 
     60 CA         97.2900  -11.5600   57.4200 C.3       5 GLY6        0.0000 
     61 CA         99.1000  -12.0800   58.3900 C.3       5 GLY6        0.0000 
     62 CA         92.0600   -8.5500   54.9000 C.3       5 GLY6        0.0000 
     63 CA         97.1200   -9.7000   56.4100 C.3       5 GLY6        0.0000 
     64 CA        100.3700  -10.3300   56.9500 C.3       5 GLY6        0.0000 
     65 CA         98.9400  -10.2300   57.3800 C.3       5 GLY6        0.0000 
     66 CA         97.5000  -10.1200   57.8000 C.3       5 GLY6        0.0000 
     67 CA         92.2700   -7.1200   55.2800 C.3       5 GLY6        0.0000 
     68 CA         90.8400   -7.0100   55.7000 C.3       5 GLY6        0.0000 
     69 CA         91.2200   -7.4300   57.0900 C.3       5 GLY6        0.0000 
     70 CA         91.0500   -5.5800   56.0700 C.3       5 GLY6        0.0000 
     71 CA         89.6200   -5.4700   56.5000 C.3       5 GLY6        0.0000 
     72 CA         91.2700   -4.1400   56.4500 C.3       5 GLY6        0.0000 
     73 CA         90.0500   -2.6000   57.2500 C.3       5 GLY6        0.0000 
     74 CA         88.6100   -2.5000   57.6700 C.3       5 GLY6        0.0000 
     75 CA         91.8600   -3.1200   58.2100 C.3       5 GLY6        0.0000 
     76 CA         88.9900   -2.9200   59.0600 C.3       5 GLY6        0.0000 
     77 CA         87.5600   -2.8100   59.4800 C.3       5 GLY6        0.0000 
     78 CA         89.3700   -3.3400   60.4500 C.3       5 GLY6        0.0000 
     79 CA         87.9300   -3.2300   60.8700 C.3       5 GLY6        0.0000 
     80 CA         88.3100   -3.6500   62.2600 C.3       5 GLY6        0.0000 
     81 CA         97.3100   -4.6900   61.1100 C.3       5 GLY6        0.0000 
     82 CA         85.2800   -1.5900   62.0900 C.3       5 GLY6        0.0000 
     83 DU         94.2500   -9.5000   57.2600 H         6 CUB7        0.0000 
     84 DU         94.8500   -8.4800   59.0200 H         6 CUB7        0.0000 
     85 DU         93.6300   -6.9400   59.8200 H         6 CUB7        0.0000 
     86 DU         92.1900   -6.8400   60.2400 H         6 CUB7        0.0000 
     87 DU         91.6500   -4.5600   57.8400 H         6 CUB7        0.0000 
     88 DU         93.4600   -5.0800   58.8100 H         6 CUB7        0.0000 
     89 DU         92.0300   -4.9800   59.2300 H         6 CUB7        0.0000 
     90 DU         90.5900   -4.8800   59.6500 H         6 CUB7        0.0000 
     91 DU         95.2800   -5.6100   59.7700 H         6 CUB7        0.0000 
     92 DU         93.8400   -5.5000   60.2000 H         6 CUB7        0.0000 
     93 DU         92.4100   -5.4000   60.6200 H         6 CUB7        0.0000 
     94 DU         90.4300   -3.0200   58.6400 H         6 CUB7        0.0000 
     95 DU         93.6800   -3.6500   59.1800 H         6 CUB7        0.0000 
     96 DU         95.4900   -4.1700   60.1500 H         6 CUB7        0.0000 
     97 DU         94.0600   -4.0700   60.5700 H         6 CUB7        0.0000 
     98 DU         92.6200   -3.9600   60.9900 H         6 CUB7        0.0000 
     99 DU         90.6400   -1.5800   59.0100 H         6 CUB7        0.0000 
@<TRIPOS>BOND
@<TRIPOS>SUBSTRUCTURE
     1 ALA2        1 GROUP   
     2 ASP3       18 GROUP   
     3 LYS4       28 GROUP   
     4 PHE5       39 GROUP   
     5 GLY6       57 GROUP   
     6 CUB7       83 GROUP   
@<TRIPOS>SET

