#    Name: 6no3_2_ADP
#    Modification time : Fri May 22 19:33:04 2020

@<TRIPOS>MOLECULE
6no3_2_ADP
   42    44     1     0     1
SMALL
NO_CHARGES


@<TRIPOS>ATOM
      1 PB         -2.7860   28.3200    0.4310 P.3       1 ADP301      0.0000 
      2 O1B        -1.3470   28.5020    0.8110 O.co2     1 ADP301      0.0000 
      3 O2B        -2.9890   28.1290   -1.0780 O.co2     1 ADP301      0.0000 
      4 O3B        -3.6620   29.5020    0.8680 O.co2     1 ADP301      0.0000 
      5 PA         -3.2780   26.3510    2.5620 P.3       1 ADP301      0.0000 
      6 O1A        -3.2410   24.8780    2.4760 O.co2     1 ADP301      0.0000 
      7 O2A        -2.0920   27.0240    3.2690 O.co2     1 ADP301      0.0000 
      8 O3A        -3.3820   27.0070    1.1140 O.3       1 ADP301      0.0000 
      9 O5'        -4.5930   26.8290    3.3550 O.3       1 ADP301      0.0000 
     10 C5'        -4.8200   28.1540    3.8800 C.3       1 ADP301      0.0000 
     11 C4'        -4.9320   28.0750    5.3810 C.3       1 ADP301      0.0000 
     12 O4'        -5.9990   27.1790    5.7510 O.3       1 ADP301      0.0000 
     13 C3'        -3.7160   27.5200    6.1060 C.3       1 ADP301      0.0000 
     14 O3'        -2.7310   28.5300    6.2840 O.3       1 ADP301      0.0000 
     15 C2'        -4.3130   27.0650    7.4420 C.3       1 ADP301      0.0000 
     16 O2'        -4.3130   28.1270    8.3910 O.3       1 ADP301      0.0000 
     17 C1'        -5.7550   26.6830    7.0580 C.3       1 ADP301      0.0000 
     18 N9         -6.0240   25.2460    7.0660 N.pl3     1 ADP301      0.0000 
     19 C8         -5.4840   24.2930    6.2420 C.2       1 ADP301      0.0000 
     20 N7         -5.9300   23.0800    6.4620 N.2       1 ADP301      0.0000 
     21 C5         -6.8290   23.2450    7.5060 C.ar      1 ADP301      0.0000 
     22 C6         -7.6550   22.3390    8.2010 C.ar      1 ADP301      0.0000 
     23 N6         -7.7440   21.0380    7.9090 N.pl3     1 ADP301      0.0000 
     24 N1         -8.4270   22.8310    9.1970 N.ar      1 ADP301      0.0000 
     25 C2         -8.3770   24.1390    9.4620 C.ar      1 ADP301      0.0000 
     26 N3         -7.6460   25.0860    8.8690 N.ar      1 ADP301      0.0000 
     27 C4         -6.8910   24.5730    7.8930 C.ar      1 ADP301      0.0000 
     28 HOB2       -2.2930   28.4720   -1.6970 H         1 ADP301      0.0000 
     29 HOB3       -3.4590   30.4740    0.8510 H         1 ADP301      0.0000 
     30 HOA2       -1.2070   26.6160    3.4580 H         1 ADP301      0.0000 
     31 H5'1       -3.9860   28.8030    3.6170 H         1 ADP301      0.0000 
     32 H5'2       -5.7460   28.5580    3.4720 H         1 ADP301      0.0000 
     33 H4'        -5.2380   29.0430    5.7750 H         1 ADP301      0.0000 
     34 H3'        -3.2510   26.6960    5.5670 H         1 ADP301      0.0000 
     35 HO3'       -1.9520   28.0890    6.7140 H         1 ADP301      0.0000 
     36 H2'        -3.7820   26.1960    7.8260 H         1 ADP301      0.0000 
     37 HO2'       -4.2040   27.6760    9.2690 H         1 ADP301      0.0000 
     38 H1'        -6.4830   27.1570    7.7150 H         1 ADP301      0.0000 
     39 H8         -4.7490   24.5210    5.4710 H         1 ADP301      0.0000 
     40 HN61       -8.3580   20.4340    8.4460 H         1 ADP301      0.0000 
     41 HN62       -7.1980   20.6460    7.1480 H         1 ADP301      0.0000 
     42 H2         -9.0250   24.4630   10.2750 H         1 ADP301      0.0000 
@<TRIPOS>BOND
     1    1    2 ar   
     2    1    3 ar   
     3    1    4 ar   
     4    1    8 1    
     5    3   28 1    
     6    4   29 1    
     7    5    6 ar   
     8    5    7 ar   
     9    5    8 1    
    10    5    9 1    
    11    7   30 1    
    12    9   10 1    
    13   10   11 1    
    14   10   31 1    
    15   10   32 1    
    16   11   12 1    
    17   11   13 1    
    18   11   33 1    
    19   12   17 1    
    20   13   14 1    
    21   13   15 1    
    22   13   34 1    
    23   14   35 1    
    24   15   16 1    
    25   15   17 1    
    26   15   36 1    
    27   16   37 1    
    28   17   18 1    
    29   17   38 1    
    30   18   19 1    
    31   18   27 1    
    32   19   20 2    
    33   19   39 1    
    34   20   21 1    
    35   21   22 ar   
    36   21   27 ar   
    37   22   23 1    
    38   22   24 ar   
    39   23   40 1    
    40   23   41 1    
    41   24   25 ar   
    42   25   26 ar   
    43   25   42 1    
    44   26   27 ar   
@<TRIPOS>SUBSTRUCTURE
     1 ADP301      1 GROUP   
@<TRIPOS>SET
ATOM$ORANGE STATIC     ATOMS   COLORGROUP SYSTEM 
20 10 10 11 11 13 13 15 15 17 17 19 19 21 21 22 22 25 \
25 27 27 

