#    Name: 6no3_1_ADP
#    Modification time : Fri May 22 19:32:58 2020

@<TRIPOS>MOLECULE
6no3_1_ADP
   42    44     1     0     1
SMALL
NO_CHARGES


@<TRIPOS>ATOM
      1 PB        -20.7960   -2.3770   25.8220 P.3       1 ADP301      0.0000 
      2 O1B       -21.4180   -3.5210   25.0930 O.co2     1 ADP301      0.0000 
      3 O2B       -19.7120   -2.8250   26.8060 O.co2     1 ADP301      0.0000 
      4 O3B       -21.8210   -1.5410   26.6020 O.co2     1 ADP301      0.0000 
      5 PA        -20.0970    0.1960   24.5920 P.3       1 ADP301      0.0000 
      6 O1A       -20.4180    0.5640   23.1960 O.co2     1 ADP301      0.0000 
      7 O2A       -21.0480    0.7780   25.6390 O.co2     1 ADP301      0.0000 
      8 O3A       -20.0850   -1.3840   24.7960 O.3       1 ADP301      0.0000 
      9 O5'       -18.6100    0.6500   24.9980 O.3       1 ADP301      0.0000 
     10 C5'       -18.0400    0.6540   26.3240 C.3       1 ADP301      0.0000 
     11 C4'       -17.6730    2.0770   26.6580 C.3       1 ADP301      0.0000 
     12 O4'       -16.7890    2.5810   25.6420 O.3       1 ADP301      0.0000 
     13 C3'       -18.8560    3.0410   26.7050 C.3       1 ADP301      0.0000 
     14 O3'       -19.2990    3.2180   28.0460 O.3       1 ADP301      0.0000 
     15 C2'       -18.3040    4.3550   26.1230 C.3       1 ADP301      0.0000 
     16 O2'       -18.1620    5.3570   27.1240 O.3       1 ADP301      0.0000 
     17 C1'       -16.9250    3.9830   25.5560 C.3       1 ADP301      0.0000 
     18 N9        -16.7420    4.3650   24.1600 N.pl3     1 ADP301      0.0000 
     19 C8        -17.5130    3.9820   23.0940 C.2       1 ADP301      0.0000 
     20 N7        -17.1150    4.4670   21.9430 N.2       1 ADP301      0.0000 
     21 C5        -16.0000    5.2220   22.2740 C.ar      1 ADP301      0.0000 
     22 C6        -15.1110    5.9920   21.4990 C.ar      1 ADP301      0.0000 
     23 N6        -15.2020    6.1170   20.1720 N.pl3     1 ADP301      0.0000 
     24 N1        -14.1010    6.6190   22.1400 N.ar      1 ADP301      0.0000 
     25 C2        -13.9920    6.4770   23.4640 C.ar      1 ADP301      0.0000 
     26 N3        -14.7670    5.7770   24.2970 N.ar      1 ADP301      0.0000 
     27 C4        -15.7580    5.1700   23.6370 C.ar      1 ADP301      0.0000 
     28 HOB2      -19.9450   -2.8960   27.7680 H         1 ADP301      0.0000 
     29 HOB3      -22.5490   -1.8430   27.2070 H         1 ADP301      0.0000 
     30 HOA2      -21.8660    1.3120   25.4630 H         1 ADP301      0.0000 
     31 H5'1      -18.7680    0.2870   27.0460 H         1 ADP301      0.0000 
     32 H5'2      -17.1470    0.0310   26.3500 H         1 ADP301      0.0000 
     33 H4'       -17.0760    2.1360   27.5670 H         1 ADP301      0.0000 
     34 H3'       -19.6860    2.6710   26.1040 H         1 ADP301      0.0000 
     35 HO3'      -20.2910    3.1920   28.0190 H         1 ADP301      0.0000 
     36 H2'       -18.9560    4.6820   25.3140 H         1 ADP301      0.0000 
     37 HO2'      -18.6400    6.1460   26.7560 H         1 ADP301      0.0000 
     38 H1'       -16.1180    4.4190   26.1430 H         1 ADP301      0.0000 
     39 H8        -18.3820    3.3320   23.1920 H         1 ADP301      0.0000 
     40 HN61      -14.5320    6.6860   19.6640 H         1 ADP301      0.0000 
     41 HN62      -15.9420    5.6440   19.6620 H         1 ADP301      0.0000 
     42 H2        -13.1530    7.0080   23.9120 H         1 ADP301      0.0000 
@<TRIPOS>BOND
     1    1    2 ar   
     2    1    3 ar   
     3    1    4 ar   
     4    1    8 1    
     5    3   28 1    
     6    4   29 1    
     7    5    6 ar   
     8    5    7 ar   
     9    5    8 1    
    10    5    9 1    
    11    7   30 1    
    12    9   10 1    
    13   10   11 1    
    14   10   31 1    
    15   10   32 1    
    16   11   12 1    
    17   11   13 1    
    18   11   33 1    
    19   12   17 1    
    20   13   14 1    
    21   13   15 1    
    22   13   34 1    
    23   14   35 1    
    24   15   16 1    
    25   15   17 1    
    26   15   36 1    
    27   16   37 1    
    28   17   18 1    
    29   17   38 1    
    30   18   19 1    
    31   18   27 1    
    32   19   20 2    
    33   19   39 1    
    34   20   21 1    
    35   21   22 ar   
    36   21   27 ar   
    37   22   23 1    
    38   22   24 ar   
    39   23   40 1    
    40   23   41 1    
    41   24   25 ar   
    42   25   26 ar   
    43   25   42 1    
    44   26   27 ar   
@<TRIPOS>SUBSTRUCTURE
     1 ADP301      1 GROUP   
@<TRIPOS>SET
ATOM$ORANGE STATIC     ATOMS   COLORGROUP SYSTEM 
20 10 10 11 11 13 13 15 15 17 17 19 19 21 21 22 22 25 \
25 27 27 

