#    Name: 5mm4_4_ANP
#    Modification time : Fri May 22 19:18:38 2020

@<TRIPOS>MOLECULE
5mm4_4_ANP
   31    33     1     0     1
SMALL
NO_CHARGES


@<TRIPOS>ATOM
      1 PG         78.0690   57.2700   67.8490 P.3       1 ANP402      0.0000 
      2 O1G        79.5130   56.6980   68.0080 O.co2     1 ANP402      0.0000 
      3 O2G        77.0630   56.1370   68.2290 O.co2     1 ANP402      0.0000 
      4 O3G        77.9010   58.4220   68.7210 O.co2     1 ANP402      0.0000 
      5 PB         78.6780   58.6280   65.3450 P.3       1 ANP402      0.0000 
      6 O1B        77.8120   59.5270   64.5990 O.co2     1 ANP402      0.0000 
      7 O2B        79.5510   59.4790   66.3180 O.co2     1 ANP402      0.0000 
      8 N3B        77.8610   57.5930   66.2760 N.3       1 ANP402      0.0000 
      9 PA         81.1490   58.1620   63.9340 P.3       1 ANP402      0.0000 
     10 O1A        81.8990   56.9050   63.9000 O.co2     1 ANP402      0.0000 
     11 O2A        81.7980   59.0900   64.9350 O.co2     1 ANP402      0.0000 
     12 O3A        79.6610   57.8470   64.4050 O.3       1 ANP402      0.0000 
     13 O5'        81.1890   58.9150   62.5270 O.3       1 ANP402      0.0000 
     14 C5'        82.0480   58.4530   61.4640 C.3       1 ANP402      0.0000 
     15 C4'        83.1610   59.4400   61.2160 C.3       1 ANP402      0.0000 
     16 O4'        82.6150   60.7260   60.8760 O.3       1 ANP402      0.0000 
     17 C3'        84.1060   59.6960   62.3930 C.3       1 ANP402      0.0000 
     18 O3'        85.3230   58.9760   62.2370 O.3       1 ANP402      0.0000 
     19 C2'        84.3660   61.2130   62.3480 C.3       1 ANP402      0.0000 
     20 O2'        85.7550   61.5130   62.2720 O.3       1 ANP402      0.0000 
     21 C1'        83.6430   61.6660   61.0810 C.3       1 ANP402      0.0000 
     22 N9         83.0250   62.9960   61.1720 N.pl3     1 ANP402      0.0000 
     23 C8         81.6960   63.2480   61.0640 C.2       1 ANP402      0.0000 
     24 N7         81.3830   64.5270   61.1650 N.2       1 ANP402      0.0000 
     25 C5         82.6080   65.1390   61.3380 C.ar      1 ANP402      0.0000 
     26 C6         82.9760   66.4980   61.4680 C.ar      1 ANP402      0.0000 
     27 N6         82.1040   67.5070   61.4200 N.pl3     1 ANP402      0.0000 
     28 N1         84.2880   66.7830   61.6120 N.ar      1 ANP402      0.0000 
     29 C2         85.1690   65.7770   61.6170 C.ar      1 ANP402      0.0000 
     30 N3         84.9440   64.4650   61.4940 N.ar      1 ANP402      0.0000 
     31 C4         83.6430   64.2120   61.3550 C.ar      1 ANP402      0.0000 
@<TRIPOS>BOND
     1    1    2 ar   
     2    1    3 ar   
     3    1    4 ar   
     4    1    8 1    
     5    5    6 ar   
     6    5    7 ar   
     7    5    8 1    
     8    5   12 1    
     9    9   10 ar   
    10    9   11 ar   
    11    9   12 1    
    12    9   13 1    
    13   13   14 1    
    14   14   15 1    
    15   15   16 1    
    16   15   17 1    
    17   16   21 1    
    18   17   18 1    
    19   17   19 1    
    20   19   20 1    
    21   19   21 1    
    22   21   22 1    
    23   22   23 1    
    24   22   31 1    
    25   23   24 2    
    26   24   25 1    
    27   25   26 ar   
    28   25   31 ar   
    29   26   27 1    
    30   26   28 ar   
    31   28   29 ar   
    32   29   30 ar   
    33   30   31 ar   
@<TRIPOS>SUBSTRUCTURE
     1 ANP402      1 GROUP   
@<TRIPOS>SET
ATOM$ORANGE STATIC     ATOMS   COLORGROUP SYSTEM 
20 14 14 15 15 17 17 19 19 21 21 23 23 25 25 26 26 29 \
29 31 31 

