#    Name: 5mm4_4_ANP_CAVITY_N1_4
#    Modification time : Fri May 22 19:18:40 2020

@<TRIPOS>MOLECULE
5mm4_4_ANP_CAVITY_N1_4
  104     0     7     0     0
SMALL
NO_CHARGES


@<TRIPOS>ATOM
      1 OG         84.7400   64.9800   60.8700 O.3       1 SER1        0.0000 
      2 OG         83.4900   65.0400   61.6900 O.3       1 SER1        0.0000 
      3 OG         85.0600   63.6300   61.4500 O.3       1 SER1        0.0000 
      4 OG         83.8000   63.6900   62.2700 O.3       1 SER1        0.0000 
      5 OG         85.3700   62.2800   62.0300 O.3       1 SER1        0.0000 
      6 OG         85.6900   60.9400   62.6100 O.3       1 SER1        0.0000 
      7 OG         85.5000   65.6400   61.9800 O.3       1 SER1        0.0000 
      8 OG         84.2500   65.7000   62.8100 O.3       1 SER1        0.0000 
      9 OG         83.0000   65.7600   63.6300 O.3       1 SER1        0.0000 
     10 O          81.7000   57.0200   59.5700 O.2       2 ALA2        0.0000 
     11 N          83.2700   55.6100   59.3300 N.am      2 ALA2        0.0000 
     12 N          81.8300   60.3700   59.5200 N.am      2 ALA2        0.0000 
     13 N          80.5800   60.4300   60.3500 N.am      2 ALA2        0.0000 
     14 N          82.1500   59.0200   60.1000 N.am      2 ALA2        0.0000 
     15 N          84.9700   57.5600   59.0300 N.am      2 ALA2        0.0000 
     16 N          83.7200   57.6200   59.8600 N.am      2 ALA2        0.0000 
     17 N          82.4700   57.6800   60.6800 N.am      2 ALA2        0.0000 
     18 N          85.2900   56.2100   59.6100 N.am      2 ALA2        0.0000 
     19 N          81.0300   62.4300   60.8800 N.am      2 ALA2        0.0000 
     20 N          84.1700   59.6200   60.3900 N.am      2 ALA2        0.0000 
     21 N          85.7300   58.2100   60.1400 N.am      2 ALA2        0.0000 
     22 N          83.2300   58.3300   61.7900 N.am      2 ALA2        0.0000 
     23 O          81.9800   58.3900   62.6200 O.2       2 ALA2        0.0000 
     24 O          80.7300   58.4500   63.4400 O.2       2 ALA2        0.0000 
     25 O          82.3000   57.0500   63.2000 O.2       2 ALA2        0.0000 
     26 O          81.0400   57.1100   64.0200 O.2       2 ALA2        0.0000 
     27 O          83.6600   65.6600   59.1800 O.2       2 ALA2        0.0000 
     28 N          81.4700   64.4400   61.4100 N.am      2 ALA2        0.0000 
     29 N          86.5000   58.8700   61.2600 N.am      2 ALA2        0.0000 
     30 N          85.2500   58.9300   62.0800 N.am      2 ALA2        0.0000 
     31 N          83.9900   58.9900   62.9000 N.am      2 ALA2        0.0000 
     32 O          83.0600   57.7100   64.3100 O.2       2 ALA2        0.0000 
     33 N          84.1000   67.6700   59.7100 N.am      2 ALA2        0.0000 
     34 N          82.8500   67.7300   60.5300 N.am      2 ALA2        0.0000 
     35 N          84.4200   66.3200   60.2900 N.am      2 ALA2        0.0000 
     36 N          83.1700   66.3800   61.1100 N.am      2 ALA2        0.0000 
     37 N          81.9200   66.4400   61.9400 N.am      2 ALA2        0.0000 
     38 N          80.6700   66.5000   62.7600 N.am      2 ALA2        0.0000 
     39 N          85.9900   64.9200   60.0500 N.am      2 ALA2        0.0000 
     40 N          82.2400   65.1000   62.5200 N.am      2 ALA2        0.0000 
     41 N          80.9800   65.1600   63.3400 N.am      2 ALA2        0.0000 
     42 O          86.0100   59.5900   63.1900 O.2       2 ALA2        0.0000 
     43 O          84.7600   59.6500   64.0100 O.2       2 ALA2        0.0000 
     44 O          83.8200   58.3600   65.4200 O.2       2 ALA2        0.0000 
     45 N          86.4400   66.9200   60.5800 N.am      2 ALA2        0.0000 
     46 N          86.7500   65.5700   61.1600 N.am      2 ALA2        0.0000 
     47 N          88.3200   64.1700   60.9100 N.am      2 ALA2        0.0000 
     48 O          88.0200   60.1900   63.4800 O.2       2 ALA2        0.0000 
     49 O          86.7700   60.2500   64.3000 O.2       2 ALA2        0.0000 
     50 N          88.4500   67.5200   60.8600 N.am      2 ALA2        0.0000 
     51 N          88.7700   66.1700   61.4400 N.am      2 ALA2        0.0000 
     52 N          87.0300   66.9500   64.2000 N.am      2 ALA2        0.0000 
     53 OD1        82.7400   59.0500   63.7300 O.co2     3 ASP3        0.0000 
     54 OD1        81.8100   57.7700   65.1300 O.co2     3 ASP3        0.0000 
     55 OD1        83.5100   59.7100   64.8400 O.co2     3 ASP3        0.0000 
     56 OD1        86.1200   68.2700   60.0000 O.co2     3 ASP3        0.0000 
     57 OD1        85.1800   66.9800   61.4000 O.co2     3 ASP3        0.0000 
     58 OD1        83.9300   67.0400   62.2300 O.co2     3 ASP3        0.0000 
     59 OD1        82.6800   67.1000   63.0500 O.co2     3 ASP3        0.0000 
     60 OD1        86.8800   68.9300   61.1100 O.co2     3 ASP3        0.0000 
     61 OD1        87.2000   67.5800   61.6900 O.co2     3 ASP3        0.0000 
     62 OD1        87.9600   68.2400   62.8000 O.co2     3 ASP3        0.0000 
     63 NZ         82.3200   59.6500   57.5900 N.4       4 LYS4        0.0000 
     64 NZ         83.0800   60.3100   58.7000 N.4       4 LYS4        0.0000 
     65 NZ         83.2100   63.6600   58.6500 N.4       4 LYS4        0.0000 
     66 CZ         88.6400   62.8200   61.4900 C.ar      5 PHE5        0.0000 
     67 CZ         87.5200   66.2300   62.2700 C.ar      5 PHE5        0.0000 
     68 CZ         86.2700   66.2900   63.0900 C.ar      5 PHE5        0.0000 
     69 CZ         88.2800   66.8900   63.3800 C.ar      5 PHE5        0.0000 
     70 CA         81.5200   61.7100   58.9400 C.3       6 GLY6        0.0000 
     71 CA         84.3400   60.2500   57.8700 C.3       6 GLY6        0.0000 
     72 CA         83.5300   62.3100   59.2300 C.3       6 GLY6        0.0000 
     73 CA         82.2800   62.3700   60.0500 C.3       6 GLY6        0.0000 
     74 CA         83.8500   60.9700   59.8100 C.3       6 GLY6        0.0000 
     75 CA         81.3400   61.0900   61.4600 C.3       6 GLY6        0.0000 
     76 CA         86.6700   59.5000   58.7400 C.3       6 GLY6        0.0000 
     77 CA         85.4200   59.5600   59.5600 C.3       6 GLY6        0.0000 
     78 CA         81.6600   59.7400   62.0400 C.3       6 GLY6        0.0000 
     79 CA         79.7900   57.1700   64.8500 C.3       6 GLY6        0.0000 
     80 CA         82.4100   65.7200   60.0000 C.3       6 GLY6        0.0000 
     81 CA         81.1600   65.7800   60.8300 C.3       6 GLY6        0.0000 
     82 CA         83.9800   64.3200   59.7600 C.3       6 GLY6        0.0000 
     83 CA         82.7200   64.3800   60.5800 C.3       6 GLY6        0.0000 
     84 CA         84.2900   62.9700   60.3400 C.3       6 GLY6        0.0000 
     85 CA         81.7900   63.0900   61.9900 C.3       6 GLY6        0.0000 
     86 CA         84.6100   61.6300   60.9200 C.3       6 GLY6        0.0000 
     87 CA         83.3600   61.6900   61.7400 C.3       6 GLY6        0.0000 
     88 CA         86.1800   60.2200   60.6800 C.3       6 GLY6        0.0000 
     89 CA         84.9300   60.2800   61.5000 C.3       6 GLY6        0.0000 
     90 CA         82.4200   60.4000   63.1500 C.3       6 GLY6        0.0000 
     91 CA         86.6300   62.2200   61.2100 C.3       6 GLY6        0.0000 
     92 CA         86.9400   60.8800   61.7900 C.3       6 GLY6        0.0000 
     93 CA         84.4400   61.0000   63.4300 C.3       6 GLY6        0.0000 
     94 CA         85.5200   60.3100   65.1300 C.3       6 GLY6        0.0000 
     95 CA         84.5900   59.0200   66.5300 C.3       6 GLY6        0.0000 
     96 DU         82.6400   58.3000   58.1700 H         7 CUB7        0.0000 
     97 DU         82.9600   56.9600   58.7500 H         7 CUB7        0.0000 
     98 DU         84.6500   58.9000   58.4500 H         7 CUB7        0.0000 
     99 DU         83.4000   58.9600   59.2800 H         7 CUB7        0.0000 
    100 DU         82.6000   61.0300   60.6300 H         7 CUB7        0.0000 
    101 DU         82.9100   59.6800   61.2100 H         7 CUB7        0.0000 
    102 DU         86.9900   58.1500   59.3200 H         7 CUB7        0.0000 
    103 DU         83.0400   63.0300   61.1600 H         7 CUB7        0.0000 
    104 DU         83.6800   60.3400   62.3200 H         7 CUB7        0.0000 
@<TRIPOS>BOND
@<TRIPOS>SUBSTRUCTURE
     1 SER1        1 GROUP   
     2 ALA2       10 GROUP   
     3 ASP3       53 GROUP   
     4 LYS4       63 GROUP   
     5 PHE5       66 GROUP   
     6 GLY6       70 GROUP   
     7 CUB7       96 GROUP   
@<TRIPOS>SET

