#    Name: 5mm4_3_GDP
#    Modification time : Fri May 22 19:18:32 2020

@<TRIPOS>MOLECULE
5mm4_3_GDP
   28    30     1     0     1
SMALL
NO_CHARGES


@<TRIPOS>ATOM
      1 PB         48.4000   39.0550   99.9910 P.3       1 GDP502      0.0000 
      2 O1B        48.8720   39.6410   98.6770 O.co2     1 GDP502      0.0000 
      3 O2B        48.4690   37.5590   99.8750 O.co2     1 GDP502      0.0000 
      4 O3B        49.1610   39.5920  101.1290 O.co2     1 GDP502      0.0000 
      5 O3A        46.8570   39.4170  100.1350 O.3       1 GDP502      0.0000 
      6 PA         45.6160   39.3510   99.1410 P.3       1 GDP502      0.0000 
      7 O1A        45.9830   38.4900   97.9520 O.co2     1 GDP502      0.0000 
      8 O2A        44.4600   38.7650   99.8360 O.co2     1 GDP502      0.0000 
      9 O5'        45.1930   40.7930   98.6630 O.3       1 GDP502      0.0000 
     10 C5'        44.0540   41.4500   99.2520 C.3       1 GDP502      0.0000 
     11 C4'        43.1870   42.0400   98.1740 C.3       1 GDP502      0.0000 
     12 O4'        42.6550   40.9810   97.3490 O.3       1 GDP502      0.0000 
     13 C3'        41.9770   42.8090   98.6830 C.3       1 GDP502      0.0000 
     14 O3'        41.6170   43.8330   97.7680 O.3       1 GDP502      0.0000 
     15 C2'        40.9050   41.7300   98.7310 C.3       1 GDP502      0.0000 
     16 O2'        39.6010   42.2700   98.5790 O.3       1 GDP502      0.0000 
     17 C1'        41.2500   40.9190   97.4910 C.3       1 GDP502      0.0000 
     18 N9         40.8800   39.5270   97.6590 N.pl3     1 GDP502      0.0000 
     19 C8         41.2310   38.7250   98.7030 C.2       1 GDP502      0.0000 
     20 N7         40.7370   37.5200   98.6070 N.2       1 GDP502      0.0000 
     21 C5         40.0210   37.5390   97.4240 C.2       1 GDP502      0.0000 
     22 C6         39.2880   36.5290   96.7860 C.2       1 GDP502      0.0000 
     23 O6         39.1660   35.3680   97.1520 O.2       1 GDP502      0.0000 
     24 N1         38.7210   36.9560   95.6090 N.am      1 GDP502      0.0000 
     25 C2         38.8560   38.2080   95.0890 C.2       1 GDP502      0.0000 
     26 N2         38.2590   38.4480   93.9230 N.pl3     1 GDP502      0.0000 
     27 N3         39.5540   39.1700   95.6820 N.2       1 GDP502      0.0000 
     28 C4         40.1010   38.7680   96.8360 C.2       1 GDP502      0.0000 
@<TRIPOS>BOND
     1    1    2 ar   
     2    1    3 ar   
     3    1    4 ar   
     4    1    5 1    
     5    5    6 1    
     6    6    7 ar   
     7    6    8 ar   
     8    6    9 1    
     9    9   10 1    
    10   10   11 1    
    11   11   12 1    
    12   11   13 1    
    13   12   17 1    
    14   13   14 1    
    15   13   15 1    
    16   15   16 1    
    17   15   17 1    
    18   17   18 1    
    19   18   19 1    
    20   18   28 1    
    21   19   20 2    
    22   20   21 1    
    23   21   22 1    
    24   21   28 2    
    25   22   23 2    
    26   22   24 am   
    27   24   25 1    
    28   25   26 1    
    29   25   27 2    
    30   27   28 1    
@<TRIPOS>SUBSTRUCTURE
     1 GDP502      1 GROUP   
@<TRIPOS>SET
ATOM$ORANGE STATIC     ATOMS   COLORGROUP SYSTEM 
20 10 10 11 11 13 13 15 15 17 17 19 19 21 21 22 22 25 \
25 28 28 

