#    Name: 5mm4_2_GTP
#    Modification time : Fri May 22 19:18:27 2020

@<TRIPOS>MOLECULE
5mm4_2_GTP
   32    34     1     0     1
SMALL
NO_CHARGES


@<TRIPOS>ATOM
      1 PG         49.3120   39.8590   60.1100 P.3       1 GTP501      0.0000 
      2 O1G        48.4280   41.0390   60.3670 O.co2     1 GTP501      0.0000 
      3 O2G        50.6290   40.0740   60.7860 O.co2     1 GTP501      0.0000 
      4 O3G        48.6400   38.6080   60.5790 O.co2     1 GTP501      0.0000 
      5 O3B        49.5820   39.7030   58.5550 O.3       1 GTP501      0.0000 
      6 PB         48.5320   38.9190   57.6480 P.3       1 GTP501      0.0000 
      7 O1B        48.8650   39.3720   56.2590 O.co2     1 GTP501      0.0000 
      8 O2B        48.6360   37.4290   57.7950 O.co2     1 GTP501      0.0000 
      9 O3A        47.0710   39.3500   58.1390 O.3       1 GTP501      0.0000 
     10 PA         45.8640   39.2620   57.0770 P.3       1 GTP501      0.0000 
     11 O1A        46.2330   38.4250   55.8840 O.co2     1 GTP501      0.0000 
     12 O2A        44.6560   38.6760   57.7520 O.co2     1 GTP501      0.0000 
     13 O5'        45.5630   40.7840   56.6550 O.3       1 GTP501      0.0000 
     14 C5'        44.6620   41.5560   57.4050 C.3       1 GTP501      0.0000 
     15 C4'        43.6310   42.1110   56.4530 C.3       1 GTP501      0.0000 
     16 O4'        43.2700   41.0940   55.5600 O.3       1 GTP501      0.0000 
     17 C3'        42.3750   42.5340   57.1710 C.3       1 GTP501      0.0000 
     18 O3'        42.2660   43.9280   57.0810 O.3       1 GTP501      0.0000 
     19 C2'        41.2430   41.9010   56.4060 C.3       1 GTP501      0.0000 
     20 O2'        40.3690   42.8820   55.9180 O.3       1 GTP501      0.0000 
     21 C1'        41.9050   41.1930   55.2540 C.3       1 GTP501      0.0000 
     22 N9         41.3590   39.8530   55.2330 N.pl3     1 GTP501      0.0000 
     23 C8         41.6680   38.8420   56.0780 C.2       1 GTP501      0.0000 
     24 N7         40.9480   37.7620   55.7260 N.2       1 GTP501      0.0000 
     25 C5         40.2080   38.0870   54.6630 C.2       1 GTP501      0.0000 
     26 C6         39.3170   37.3680   53.9230 C.2       1 GTP501      0.0000 
     27 O6         39.1130   36.2010   54.1890 O.2       1 GTP501      0.0000 
     28 N1         38.6890   37.9500   52.8660 N.am      1 GTP501      0.0000 
     29 C2         38.9510   39.2560   52.5620 C.2       1 GTP501      0.0000 
     30 N2         38.3350   39.8170   51.5340 N.pl3     1 GTP501      0.0000 
     31 N3         39.8450   39.9820   53.3050 N.2       1 GTP501      0.0000 
     32 C4         40.4550   39.3940   54.3410 C.2       1 GTP501      0.0000 
@<TRIPOS>BOND
     1    1    2 ar   
     2    1    3 ar   
     3    1    4 ar   
     4    1    5 1    
     5    5    6 1    
     6    6    7 ar   
     7    6    8 ar   
     8    6    9 1    
     9    9   10 1    
    10   10   11 ar   
    11   10   12 ar   
    12   10   13 1    
    13   13   14 1    
    14   14   15 1    
    15   15   16 1    
    16   15   17 1    
    17   16   21 1    
    18   17   18 1    
    19   17   19 1    
    20   19   20 1    
    21   19   21 1    
    22   21   22 1    
    23   22   23 1    
    24   22   32 1    
    25   23   24 2    
    26   24   25 1    
    27   25   26 1    
    28   25   32 2    
    29   26   27 2    
    30   26   28 am   
    31   28   29 1    
    32   29   30 1    
    33   29   31 2    
    34   31   32 1    
@<TRIPOS>SUBSTRUCTURE
     1 GTP501      1 GROUP   
@<TRIPOS>SET
ATOM$ORANGE STATIC     ATOMS   COLORGROUP SYSTEM 
20 14 14 15 15 17 17 19 19 21 21 23 23 25 25 26 26 29 \
29 32 32 

