#    Name: 5mm4_1_TA1
#    Modification time : Fri May 22 19:18:16 2020

@<TRIPOS>MOLECULE
5mm4_1_TA1
   62    68     1     0     0
SMALL
NO_CHARGES


@<TRIPOS>ATOM
      1 O01        27.4190   27.9310   84.8360 O.3       1 TA1501      0.0000 
      2 C01        26.9390   28.2030   83.5150 C.3       1 TA1501      0.0000 
      3 C02        26.3800   29.6770   83.5030 C.3       1 TA1501      0.0000 
      4 O02        27.3120   30.3920   84.3440 O.3       1 TA1501      0.0000 
      5 C03        26.8700   30.8530   85.5240 C.2       1 TA1501      0.0000 
      6 O03        25.8300   30.5210   86.0210 O.2       1 TA1501      0.0000 
      7 C04        27.8040   31.8380   86.1140 C.ar      1 TA1501      0.0000 
      8 C05        28.9730   32.1900   85.4500 C.ar      1 TA1501      0.0000 
      9 C06        29.8390   33.1180   86.0030 C.ar      1 TA1501      0.0000 
     10 C07        29.5490   33.7020   87.2160 C.ar      1 TA1501      0.0000 
     11 C08        28.3900   33.3600   87.8810 C.ar      1 TA1501      0.0000 
     12 C09        27.5200   32.4320   87.3370 C.ar      1 TA1501      0.0000 
     13 C10        26.2450   30.3890   82.1020 C.3       1 TA1501      0.0000 
     14 C11        26.8470   31.9000   82.0480 C.3       1 TA1501      0.0000 
     15 O04        28.2960   31.8570   82.1450 O.3       1 TA1501      0.0000 
     16 C12        29.1320   31.2920   81.2280 C.2       1 TA1501      0.0000 
     17 O05        28.7910   30.7390   80.2230 O.2       1 TA1501      0.0000 
     18 C13        30.5410   31.4650   81.6740 C.3       1 TA1501      0.0000 
     19 C14        26.3250   33.0640   82.9270 C.3       1 TA1501      0.0000 
     20 O06        26.3450   33.9610   81.8290 O.3       1 TA1501      0.0000 
     21 C15        26.4140   32.8330   80.9170 C.3       1 TA1501      0.0000 
     22 C16        25.1110   32.5220   80.2430 C.3       1 TA1501      0.0000 
     23 C17        25.0580   31.0240   80.0030 C.3       1 TA1501      0.0000 
     24 O07        24.0230   30.7450   79.0600 O.3       1 TA1501      0.0000 
     25 C18        24.8870   30.2390   81.3160 C.3       1 TA1501      0.0000 
     26 C19        23.6490   30.6980   82.0950 C.3       1 TA1501      0.0000 
     27 C20        24.3990   28.8850   80.7640 C.2       1 TA1501      0.0000 
     28 O08        23.3350   28.9640   80.2040 O.2       1 TA1501      0.0000 
     29 C21        24.8560   27.3960   80.7530 C.3       1 TA1501      0.0000 
     30 O09        23.5360   26.7400   80.8590 O.3       1 TA1501      0.0000 
     31 C22        23.2710   25.4150   80.9130 C.2       1 TA1501      0.0000 
     32 O10        24.1140   24.5700   80.9460 O.2       1 TA1501      0.0000 
     33 C23        21.8010   25.1710   80.9190 C.3       1 TA1501      0.0000 
     34 C24        25.9320   26.9120   81.6980 C.2       1 TA1501      0.0000 
     35 C25        27.0800   26.4260   81.2030 C.2       1 TA1501      0.0000 
     36 C26        28.3980   27.0710   81.6130 C.3       1 TA1501      0.0000 
     37 O11        29.2960   27.6030   80.5930 O.3       1 TA1501      0.0000 
     38 C27        30.2950   26.8280   80.1340 C.2       1 TA1501      0.0000 
     39 O12        30.4420   25.6690   80.4000 O.2       1 TA1501      0.0000 
     40 C28        31.2410   27.6120   79.2720 C.3       1 TA1501      0.0000 
     41 O13        32.0050   26.7490   78.4500 O.3       1 TA1501      0.0000 
     42 C29        32.1300   28.2410   80.2610 C.3       1 TA1501      0.0000 
     43 N01        32.6280   27.1570   81.0890 N.am      1 TA1501      0.0000 
     44 C30        32.7720   27.3060   82.4090 C.2       1 TA1501      0.0000 
     45 O14        32.7640   28.4080   82.9470 O.2       1 TA1501      0.0000 
     46 C31        32.8990   26.0550   83.2160 C.ar      1 TA1501      0.0000 
     47 C32        33.8980   25.9160   84.1720 C.ar      1 TA1501      0.0000 
     48 C33        33.9790   24.7670   84.9390 C.ar      1 TA1501      0.0000 
     49 C34        33.0680   23.7460   84.7610 C.ar      1 TA1501      0.0000 
     50 C35        32.0760   23.8720   83.8140 C.ar      1 TA1501      0.0000 
     51 C36        31.9880   25.0170   83.0430 C.ar      1 TA1501      0.0000 
     52 C37        33.2130   29.0920   79.6380 C.ar      1 TA1501      0.0000 
     53 C38        32.9170   30.3450   79.1230 C.ar      1 TA1501      0.0000 
     54 C39        33.9140   31.1400   78.5870 C.ar      1 TA1501      0.0000 
     55 C40        35.2160   30.6930   78.5580 C.ar      1 TA1501      0.0000 
     56 C41        35.5210   29.4480   79.0590 C.ar      1 TA1501      0.0000 
     57 C42        34.5250   28.6500   79.5940 C.ar      1 TA1501      0.0000 
     58 C43        28.1790   28.2180   82.5950 C.3       1 TA1501      0.0000 
     59 C44        27.1740   25.2690   80.2570 C.3       1 TA1501      0.0000 
     60 C45        25.8200   27.1440   83.1980 C.3       1 TA1501      0.0000 
     61 C46        25.9550   25.8180   83.9560 C.3       1 TA1501      0.0000 
     62 C47        24.5080   27.4910   83.9080 C.3       1 TA1501      0.0000 
@<TRIPOS>BOND
     1    1    2 1    
     2    2    3 1    
     3    2   58 1    
     4    2   60 1    
     5    3    4 1    
     6    3   13 1    
     7    4    5 1    
     8    5    6 2    
     9    5    7 1    
    10    7    8 ar   
    11    7   12 ar   
    12    8    9 ar   
    13    9   10 ar   
    14   10   11 ar   
    15   11   12 ar   
    16   13   14 1    
    17   13   25 1    
    18   14   15 1    
    19   14   19 1    
    20   14   21 1    
    21   15   16 1    
    22   16   17 2    
    23   16   18 1    
    24   19   20 1    
    25   20   21 1    
    26   21   22 1    
    27   22   23 1    
    28   23   24 1    
    29   23   25 1    
    30   25   26 1    
    31   25   27 1    
    32   27   28 2    
    33   27   29 1    
    34   29   30 1    
    35   29   34 1    
    36   30   31 1    
    37   31   32 2    
    38   31   33 1    
    39   34   35 2    
    40   34   60 1    
    41   35   36 1    
    42   35   59 1    
    43   36   37 1    
    44   36   58 1    
    45   37   38 1    
    46   38   39 2    
    47   38   40 1    
    48   40   41 1    
    49   40   42 1    
    50   42   43 1    
    51   42   52 1    
    52   43   44 am   
    53   44   45 2    
    54   44   46 1    
    55   46   47 ar   
    56   46   51 ar   
    57   47   48 ar   
    58   48   49 ar   
    59   49   50 ar   
    60   50   51 ar   
    61   52   53 ar   
    62   52   57 ar   
    63   53   54 ar   
    64   54   55 ar   
    65   55   56 ar   
    66   56   57 ar   
    67   60   61 1    
    68   60   62 1    
@<TRIPOS>SUBSTRUCTURE
     1 TA1501      1 GROUP   
@<TRIPOS>SET

