#    Name: 6q2m_1_SLU
#    Modification time : Fri May 22 19:28:17 2020

@<TRIPOS>MOLECULE
6q2m_1_SLU
   40    45     1     0     0
SMALL
NO_CHARGES


@<TRIPOS>ATOM
      1 O39        15.8320   12.6100   60.2570 O.2       1 SLU620      0.0000 
      2 C16        16.8180   12.4360   60.8010 C.2       1 SLU620      0.0000 
      3 C14        18.1250   12.8180   60.1340 C.2       1 SLU620      0.0000 
      4 N15        18.1260   13.0780   58.6760 N.2       1 SLU620      0.0000 
      5 C13        19.4110   12.9810   60.6870 C.2       1 SLU620      0.0000 
      6 S12        20.2330   13.3090   59.5690 S.3       1 SLU620      0.0000 
      7 C11        19.3990   13.3600   58.3320 C.2       1 SLU620      0.0000 
      8 C8         19.5770   13.6720   56.9940 C.2       1 SLU620      0.0000 
      9 S9         18.7240   13.6990   55.7840 S.3       1 SLU620      0.0000 
     10 C4         19.5860   14.2400   54.7280 C.ar      1 SLU620      0.0000 
     11 C5         19.3650   14.4570   53.4210 C.ar      1 SLU620      0.0000 
     12 C6         20.3480   14.9580   52.6410 C.ar      1 SLU620      0.0000 
     13 O10        20.2830   15.2310   51.3120 O.3       1 SLU620      0.0000 
     14 C3         20.8360   14.5160   55.2470 C.ar      1 SLU620      0.0000 
     15 N7         20.8180   14.1840   56.7340 N.2       1 SLU620      0.0000 
     16 C2         21.8170   15.0120   54.4740 C.ar      1 SLU620      0.0000 
     17 C1         21.5740   15.2330   53.1470 C.ar      1 SLU620      0.0000 
     18 N40        16.8850   11.8580   62.0870 N.am      1 SLU620      0.0000 
     19 S17        15.3910   11.5190   62.7560 S.o2      1 SLU620      0.0000 
     20 O18        14.6740   12.6980   62.8120 O.2       1 SLU620      0.0000 
     21 O19        15.3720   11.3690   64.1190 O.2       1 SLU620      0.0000 
     22 O20        14.4470   10.3780   62.1480 O.3       1 SLU620      0.0000 
     23 C21        14.8200    9.4280   61.2490 C.3       1 SLU620      0.0000 
     24 C22        13.4940    9.1490   60.6350 C.3       1 SLU620      0.0000 
     25 C23        13.7980    7.9590   59.8190 C.3       1 SLU620      0.0000 
     26 O27        13.7380    6.8210   60.4800 O.3       1 SLU620      0.0000 
     27 C24        12.7550    7.9490   58.7990 C.3       1 SLU620      0.0000 
     28 O28        11.4850    7.4680   59.3230 O.3       1 SLU620      0.0000 
     29 C25        12.7210    9.3140   58.5050 C.3       1 SLU620      0.0000 
     30 O26        13.2310   10.0710   59.6100 O.3       1 SLU620      0.0000 
     31 N35        13.3360    9.6070   57.2740 N.pl3     1 SLU620      0.0000 
     32 C32        13.1310    9.4150   56.0080 C.ar      1 SLU620      0.0000 
     33 N31        12.1990    8.7940   55.2990 N.ar      1 SLU620      0.0000 
     34 C30        12.2660    8.7710   53.9930 C.ar      1 SLU620      0.0000 
     35 N29        13.2730    9.3760   53.3760 N.ar      1 SLU620      0.0000 
     36 C33        14.1270   10.0010   55.4050 C.ar      1 SLU620      0.0000 
     37 C34        14.1910    9.9740   54.0390 C.ar      1 SLU620      0.0000 
     38 N38        15.2320   10.5780   53.3670 N.pl3     1 SLU620      0.0000 
     39 N37        14.9240   10.5240   56.3210 N.2       1 SLU620      0.0000 
     40 C36        14.4180   10.2710   57.4750 C.2       1 SLU620      0.0000 
@<TRIPOS>BOND
     1    1    2 2    
     2    2    3 1    
     3    2   18 am   
     4    3    4 1    
     5    3    5 2    
     6    4    7 2    
     7    5    6 1    
     8    6    7 1    
     9    7    8 1    
    10    8    9 1    
    11    8   15 2    
    12    9   10 1    
    13   10   11 ar   
    14   10   14 ar   
    15   11   12 ar   
    16   12   13 1    
    17   12   17 ar   
    18   14   15 1    
    19   14   16 ar   
    20   16   17 ar   
    21   18   19 1    
    22   19   20 2    
    23   19   21 2    
    24   19   22 1    
    25   22   23 1    
    26   23   24 1    
    27   24   25 1    
    28   24   30 1    
    29   25   26 1    
    30   25   27 1    
    31   27   28 1    
    32   27   29 1    
    33   29   30 1    
    34   29   31 1    
    35   31   32 1    
    36   31   40 1    
    37   32   33 ar   
    38   32   36 ar   
    39   33   34 ar   
    40   34   35 ar   
    41   35   37 ar   
    42   36   37 ar   
    43   36   39 1    
    44   37   38 1    
    45   39   40 2    
@<TRIPOS>SUBSTRUCTURE
     1 SLU620      1 GROUP   
@<TRIPOS>SET

