#    Name: 6q2m_2_SLU
#    Modification time : Fri May 22 19:28:28 2020

@<TRIPOS>MOLECULE
6q2m_2_SLU
   40    45     1     0     0
SMALL
NO_CHARGES


@<TRIPOS>ATOM
      1 O39        -8.9970   19.4740   11.4430 O.2       1 SLU611      0.0000 
      2 C16        -7.7790   19.6100   11.3760 C.2       1 SLU611      0.0000 
      3 C14        -6.9140   19.2760   12.5500 C.2       1 SLU611      0.0000 
      4 N15        -7.4530   18.9920   13.7080 N.2       1 SLU611      0.0000 
      5 C13        -5.5490   19.2340   12.4100 C.2       1 SLU611      0.0000 
      6 S12        -5.0220   18.7910   14.0200 S.3       1 SLU611      0.0000 
      7 C11        -6.6270   18.6920   14.7060 C.2       1 SLU611      0.0000 
      8 C8         -7.0140   18.3770   15.9950 C.2       1 SLU611      0.0000 
      9 S9         -8.6390   18.4260   16.5810 S.3       1 SLU611      0.0000 
     10 C4         -8.2510   17.9170   18.2260 C.ar      1 SLU611      0.0000 
     11 C5         -9.0050   17.6750   19.3950 C.ar      1 SLU611      0.0000 
     12 C6         -8.3570   17.2570   20.5540 C.ar      1 SLU611      0.0000 
     13 O10        -9.0830   17.0150   21.7300 O.3       1 SLU611      0.0000 
     14 C3         -6.8630   17.7540   18.1850 C.ar      1 SLU611      0.0000 
     15 N7         -6.3000   17.9970   17.0300 N.2       1 SLU611      0.0000 
     16 C2         -6.2340   17.3280   19.3900 C.ar      1 SLU611      0.0000 
     17 C1         -6.9870   17.0900   20.5400 C.ar      1 SLU611      0.0000 
     18 N40        -7.0850   20.0970   10.1770 N.am      1 SLU611      0.0000 
     19 S17        -7.9020   20.4720    8.7950 S.o2      1 SLU611      0.0000 
     20 O18        -8.1000   19.2550    8.0550 O.2       1 SLU611      0.0000 
     21 O19        -7.0890   21.2400    7.8790 O.2       1 SLU611      0.0000 
     22 O20        -9.2530   21.0790    9.0810 O.3       1 SLU611      0.0000 
     23 C21        -9.3760   22.1250   10.0210 C.3       1 SLU611      0.0000 
     24 C22       -10.6390   22.9040    9.7380 C.3       1 SLU611      0.0000 
     25 C23       -10.5570   24.2100   10.4080 C.3       1 SLU611      0.0000 
     26 O27       -10.0560   25.1570    9.5390 O.3       1 SLU611      0.0000 
     27 C24       -11.9420   24.4480   10.8250 C.3       1 SLU611      0.0000 
     28 O28       -12.7220   25.0190    9.8480 O.3       1 SLU611      0.0000 
     29 C25       -12.4400   23.0810   11.0720 C.3       1 SLU611      0.0000 
     30 O26       -11.7550   22.1960   10.2070 O.3       1 SLU611      0.0000 
     31 N35       -12.2930   22.6250   12.4360 N.pl3     1 SLU611      0.0000 
     32 C32       -13.1950   22.8130   13.4440 C.ar      1 SLU611      0.0000 
     33 N31       -14.3860   23.4270   13.5220 N.ar      1 SLU611      0.0000 
     34 C30       -15.0490   23.4600   14.6700 C.ar      1 SLU611      0.0000 
     35 N29       -14.5870   22.8840   15.7770 N.ar      1 SLU611      0.0000 
     36 C33       -12.6570   22.1870   14.6000 C.ar      1 SLU611      0.0000 
     37 C34       -13.4100   22.2400   15.8030 C.ar      1 SLU611      0.0000 
     38 N38       -12.9580   21.6280   17.0370 N.pl3     1 SLU611      0.0000 
     39 N37       -11.4910   21.6620   14.2360 N.2       1 SLU611      0.0000 
     40 C36       -11.2680   21.9110   12.9540 C.2       1 SLU611      0.0000 
@<TRIPOS>BOND
     1    1    2 2    
     2    2    3 1    
     3    2   18 am   
     4    3    4 1    
     5    3    5 2    
     6    4    7 2    
     7    5    6 1    
     8    6    7 1    
     9    7    8 1    
    10    8    9 1    
    11    8   15 2    
    12    9   10 1    
    13   10   11 ar   
    14   10   14 ar   
    15   11   12 ar   
    16   12   13 1    
    17   12   17 ar   
    18   14   15 1    
    19   14   16 ar   
    20   16   17 ar   
    21   18   19 1    
    22   19   20 2    
    23   19   21 2    
    24   19   22 1    
    25   22   23 1    
    26   23   24 1    
    27   24   25 1    
    28   24   30 1    
    29   25   26 1    
    30   25   27 1    
    31   27   28 1    
    32   27   29 1    
    33   29   30 1    
    34   29   31 1    
    35   31   32 1    
    36   31   40 1    
    37   32   33 ar   
    38   32   36 ar   
    39   33   34 ar   
    40   34   35 ar   
    41   35   37 ar   
    42   36   37 ar   
    43   36   39 1    
    44   37   38 1    
    45   39   40 2    
@<TRIPOS>SUBSTRUCTURE
     1 SLU611      1 GROUP   
@<TRIPOS>SET

