#    Name: 6q2m_3_SLU
#    Modification time : Fri May 22 19:28:35 2020

@<TRIPOS>MOLECULE
6q2m_3_SLU
   40    45     1     0     0
SMALL
NO_CHARGES


@<TRIPOS>ATOM
      1 O39       -21.8390   57.6920   41.8690 O.2       1 SLU621      0.0000 
      2 C16       -20.6460   57.8770   41.8620 C.2       1 SLU621      0.0000 
      3 C14       -20.0860   58.6650   42.7990 C.2       1 SLU621      0.0000 
      4 N15       -20.7890   59.4050   43.6410 N.2       1 SLU621      0.0000 
      5 C13       -18.7900   58.8040   43.0480 C.2       1 SLU621      0.0000 
      6 S12       -18.6320   59.8020   44.2090 S.3       1 SLU621      0.0000 
      7 C11       -20.0360   60.1130   44.4550 C.2       1 SLU621      0.0000 
      8 C8        -20.4630   60.9230   45.4370 C.2       1 SLU621      0.0000 
      9 S9        -21.8390   61.4220   45.8000 S.3       1 SLU621      0.0000 
     10 C4        -21.5830   62.1790   47.0000 C.ar      1 SLU621      0.0000 
     11 C5        -22.3760   62.8700   47.7990 C.ar      1 SLU621      0.0000 
     12 C6        -21.8900   63.5500   48.8930 C.ar      1 SLU621      0.0000 
     13 O10       -22.6830   64.2580   49.7200 O.3       1 SLU621      0.0000 
     14 C3        -20.2870   62.1150   47.2400 C.ar      1 SLU621      0.0000 
     15 N7        -19.6620   61.3870   46.3540 N.2       1 SLU621      0.0000 
     16 C2        -19.7690   62.7420   48.2770 C.ar      1 SLU621      0.0000 
     17 C1        -20.5440   63.4820   49.1360 C.ar      1 SLU621      0.0000 
     18 N40       -19.8610   57.3060   40.9440 N.am      1 SLU621      0.0000 
     19 S17       -20.4790   56.3800   39.9180 S.o2      1 SLU621      0.0000 
     20 O18       -20.9070   55.1380   40.5150 O.2       1 SLU621      0.0000 
     21 O19       -19.4750   55.9510   39.0140 O.2       1 SLU621      0.0000 
     22 O20       -21.6180   56.9140   39.1870 O.3       1 SLU621      0.0000 
     23 C21       -21.6340   58.0210   38.3300 C.3       1 SLU621      0.0000 
     24 C22       -23.0730   58.3920   37.9320 C.3       1 SLU621      0.0000 
     25 C23       -23.0660   59.7710   37.4390 C.3       1 SLU621      0.0000 
     26 O27       -22.6770   59.7630   36.1170 O.3       1 SLU621      0.0000 
     27 C24       -24.4680   60.2050   37.5570 C.3       1 SLU621      0.0000 
     28 O28       -25.2790   59.7550   36.5060 O.3       1 SLU621      0.0000 
     29 C25       -24.8920   59.5140   38.7620 C.3       1 SLU621      0.0000 
     30 O26       -23.9600   58.4680   39.0080 O.3       1 SLU621      0.0000 
     31 N35       -24.9000   60.4260   39.8740 N.pl3     1 SLU621      0.0000 
     32 C32       -25.7440   61.3560   40.2030 C.ar      1 SLU621      0.0000 
     33 N31       -26.8560   61.7940   39.6410 N.ar      1 SLU621      0.0000 
     34 C30       -27.5750   62.8110   40.2200 C.ar      1 SLU621      0.0000 
     35 N29       -27.1020   63.3530   41.3860 N.ar      1 SLU621      0.0000 
     36 C33       -25.3350   61.8920   41.3150 C.ar      1 SLU621      0.0000 
     37 C34       -25.9870   62.8610   41.8930 C.ar      1 SLU621      0.0000 
     38 N38       -25.4500   63.3080   43.0020 N.pl3     1 SLU621      0.0000 
     39 N37       -24.2380   61.3170   41.6670 N.2       1 SLU621      0.0000 
     40 C36       -23.9770   60.4190   40.7800 C.2       1 SLU621      0.0000 
@<TRIPOS>BOND
     1    1    2 2    
     2    2    3 1    
     3    2   18 am   
     4    3    4 1    
     5    3    5 2    
     6    4    7 2    
     7    5    6 1    
     8    6    7 1    
     9    7    8 1    
    10    8    9 1    
    11    8   15 2    
    12    9   10 1    
    13   10   11 ar   
    14   10   14 ar   
    15   11   12 ar   
    16   12   13 1    
    17   12   17 ar   
    18   14   15 1    
    19   14   16 ar   
    20   16   17 ar   
    21   18   19 1    
    22   19   20 2    
    23   19   21 2    
    24   19   22 1    
    25   22   23 1    
    26   23   24 1    
    27   24   25 1    
    28   24   30 1    
    29   25   26 1    
    30   25   27 1    
    31   27   28 1    
    32   27   29 1    
    33   29   30 1    
    34   29   31 1    
    35   31   32 1    
    36   31   40 1    
    37   32   33 ar   
    38   32   36 ar   
    39   33   34 ar   
    40   34   35 ar   
    41   35   37 ar   
    42   36   37 ar   
    43   36   39 1    
    44   37   38 1    
    45   39   40 2    
@<TRIPOS>SUBSTRUCTURE
     1 SLU621      1 GROUP   
@<TRIPOS>SET

