#    Name: 5x6y_2_SAM
#    Modification time : Fri May 22 19:18:43 2020

@<TRIPOS>MOLECULE
5x6y_2_SAM
   27    29     1     0     0
SMALL
NO_CHARGES


@<TRIPOS>ATOM
      1 N         -17.6050  -18.1000   16.7070 N.4       1 SAM902      0.0000 
      2 CA        -18.8680  -17.4130   16.4420 C.3       1 SAM902      0.0000 
      3 C         -18.5910  -16.0560   15.7830 C.2       1 SAM902      0.0000 
      4 O         -17.4450  -15.7580   15.4510 O.co2     1 SAM902      0.0000 
      5 OXT       -19.4720  -15.2270   15.5420 O.co2     1 SAM902      0.0000 
      6 CB        -19.6860  -17.2660   17.7330 C.3       1 SAM902      0.0000 
      7 CG        -19.9870  -18.5790   18.4710 C.3       1 SAM902      0.0000 
      8 SD        -20.8570  -18.4070   20.0650 S.3       1 SAM902      0.0000 
      9 CE        -19.4730  -18.1640   21.2010 C.3       1 SAM902      0.0000 
     10 C5'       -21.3370  -20.1080   20.5490 C.3       1 SAM902      0.0000 
     11 C4'       -21.8610  -21.0550   19.4600 C.3       1 SAM902      0.0000 
     12 O4'       -21.4940  -22.3960   19.7350 O.3       1 SAM902      0.0000 
     13 C3'       -23.3800  -21.0730   19.3120 C.3       1 SAM902      0.0000 
     14 O3'       -23.7050  -20.6330   18.0130 O.3       1 SAM902      0.0000 
     15 C2'       -23.8140  -22.5250   19.4630 C.3       1 SAM902      0.0000 
     16 O2'       -24.7700  -22.8820   18.4870 O.3       1 SAM902      0.0000 
     17 C1'       -22.5030  -23.2540   19.2200 C.3       1 SAM902      0.0000 
     18 N9        -22.3780  -24.6260   19.7630 N.pl3     1 SAM902      0.0000 
     19 C8        -22.4960  -25.0500   21.0620 C.2       1 SAM902      0.0000 
     20 N7        -22.2720  -26.3920   21.0930 N.2       1 SAM902      0.0000 
     21 C5        -22.0060  -26.8250   19.8390 C.ar      1 SAM902      0.0000 
     22 C6        -21.7060  -28.0770   19.2980 C.ar      1 SAM902      0.0000 
     23 N6        -21.6360  -29.1700   20.0620 N.pl3     1 SAM902      0.0000 
     24 N1        -21.4700  -28.1870   17.9400 N.ar      1 SAM902      0.0000 
     25 C2        -21.5380  -27.0830   17.1210 C.ar      1 SAM902      0.0000 
     26 N3        -21.8320  -25.8500   17.6680 N.ar      1 SAM902      0.0000 
     27 C4        -22.0610  -25.7200   19.0000 C.ar      1 SAM902      0.0000 
@<TRIPOS>BOND
     1    1    2 1    
     2    2    3 1    
     3    2    6 1    
     4    3    4 ar   
     5    3    5 ar   
     6    6    7 1    
     7    7    8 1    
     8    8    9 1    
     9    8   10 1    
    10   10   11 1    
    11   11   12 1    
    12   11   13 1    
    13   12   17 1    
    14   13   14 1    
    15   13   15 1    
    16   15   16 1    
    17   15   17 1    
    18   17   18 1    
    19   18   19 1    
    20   18   27 1    
    21   19   20 2    
    22   20   21 1    
    23   21   22 ar   
    24   21   27 ar   
    25   22   23 1    
    26   22   24 ar   
    27   24   25 ar   
    28   25   26 ar   
    29   26   27 ar   
@<TRIPOS>SUBSTRUCTURE
     1 SAM902      1 GROUP   
@<TRIPOS>SET

