#    Name: 6g1k_2_Y01_CAVITY_N1_8
#    Modification time : Fri May 22 19:29:57 2020

@<TRIPOS>MOLECULE
6g1k_2_Y01_CAVITY_N1_8
  156     0     6     0     0
SMALL
NO_CHARGES


@<TRIPOS>ATOM
      1 OG        109.6200   93.5000  118.5000 O.3       1 SER1        0.0000 
      2 OG        108.4000   93.1600  119.3100 O.3       1 SER1        0.0000 
      3 OG        111.4400   92.5200  118.0600 O.3       1 SER1        0.0000 
      4 OG        109.0100   99.7500  117.4300 O.3       1 SER1        0.0000 
      5 OG        107.8000   99.4100  118.2400 O.3       1 SER1        0.0000 
      6 OG        106.5800   99.0700  119.0500 O.3       1 SER1        0.0000 
      7 OG        108.4100   98.0900  118.6100 O.3       1 SER1        0.0000 
      8 OG        107.1900   97.7500  119.4100 O.3       1 SER1        0.0000 
      9 OG        109.0200   96.7700  118.9700 O.3       1 SER1        0.0000 
     10 OG        107.8000   96.4300  119.7800 O.3       1 SER1        0.0000 
     11 OG        109.6300   95.4500  119.3400 O.3       1 SER1        0.0000 
     12 OG        110.8500   92.8100  120.0800 O.3       1 SER1        0.0000 
     13 OG        109.6400   92.4700  120.8800 O.3       1 SER1        0.0000 
     14 OG        111.4700   91.4900  120.4400 O.3       1 SER1        0.0000 
     15 OG        107.8200   98.3800  120.6200 O.3       1 SER1        0.0000 
     16 OG        108.4300   97.0600  120.9900 O.3       1 SER1        0.0000 
     17 N         109.6000   99.4600  115.4200 N.am      2 ALA2        0.0000 
     18 N         112.6500   98.8200  114.1700 N.am      2 ALA2        0.0000 
     19 N         111.4300   98.4800  114.9800 N.am      2 ALA2        0.0000 
     20 N         110.2200   98.1400  115.7800 N.am      2 ALA2        0.0000 
     21 N         109.0000   97.8000  116.5900 N.am      2 ALA2        0.0000 
     22 N         107.7800   97.4600  117.4000 N.am      2 ALA2        0.0000 
     23 N         112.0500   97.1600  115.3400 N.am      2 ALA2        0.0000 
     24 N         109.6100   96.4800  116.9600 N.am      2 ALA2        0.0000 
     25 N         108.3900   96.1400  117.7600 N.am      2 ALA2        0.0000 
     26 N         110.2200   95.1600  117.3200 N.am      2 ALA2        0.0000 
     27 N         109.0000   94.8200  118.1300 N.am      2 ALA2        0.0000 
     28 O         113.2900   90.5100  120.0000 O.2       2 ALA2        0.0000 
     29 O         112.0800   90.1700  120.8100 O.2       2 ALA2        0.0000 
     30 O         110.2600   96.0800  120.5500 O.2       2 ALA2        0.0000 
     31 N         109.0400   95.7400  121.3600 N.am      2 ALA2        0.0000 
     32 N         112.0900   95.1000  120.1100 N.am      2 ALA2        0.0000 
     33 N         110.8700   94.7600  120.9200 N.am      2 ALA2        0.0000 
     34 N         109.6500   94.4200  121.7300 N.am      2 ALA2        0.0000 
     35 N         111.4800   93.4400  121.2800 N.am      2 ALA2        0.0000 
     36 N         110.2600   93.1000  122.0900 N.am      2 ALA2        0.0000 
     37 N         112.0900   92.1200  121.6500 N.am      2 ALA2        0.0000 
     38 N         108.4400   91.1000  124.0700 N.am      2 ALA2        0.0000 
     39 N         107.2200   90.7600  124.8800 N.am      2 ALA2        0.0000 
     40 N         113.9200   91.1400  121.2100 N.am      2 ALA2        0.0000 
     41 N         108.4500   96.0300  123.3800 N.am      2 ALA2        0.0000 
     42 N         103.5800   94.6700  126.6000 N.am      2 ALA2        0.0000 
     43 N         110.2800   95.0500  122.9400 N.am      2 ALA2        0.0000 
     44 N         109.0600   94.7100  123.7400 N.am      2 ALA2        0.0000 
     45 N         110.8900   93.7300  123.3000 N.am      2 ALA2        0.0000 
     46 N         111.5000   92.4100  123.6700 N.am      2 ALA2        0.0000 
     47 N         107.8500   91.3900  126.0900 N.am      2 ALA2        0.0000 
     48 N         109.6800   90.4100  125.6500 N.am      2 ALA2        0.0000 
     49 N         109.0800   96.6500  124.5900 N.am      2 ALA2        0.0000 
     50 N         109.6900   95.3300  124.9500 N.am      2 ALA2        0.0000 
     51 N         112.1300   93.0300  124.8800 N.am      2 ALA2        0.0000 
     52 O         110.3200   95.9600  126.1600 O.2       2 ALA2        0.0000 
     53 OD1       105.3500   96.7800  119.0100 O.co2     3 ASP3        0.0000 
     54 OD1       104.1300   96.4400  119.8200 O.co2     3 ASP3        0.0000 
     55 OD1       105.9600   95.4600  119.3800 O.co2     3 ASP3        0.0000 
     56 OD1       104.7400   95.1200  120.1900 O.co2     3 ASP3        0.0000 
     57 OD1       111.4400   95.5000  116.5200 O.co2     3 ASP3        0.0000 
     58 OD1       106.5700   94.1400  119.7500 O.co2     3 ASP3        0.0000 
     59 OD1       107.1800   92.8200  120.1100 O.co2     3 ASP3        0.0000 
     60 OD1       111.4600   94.4700  118.9000 O.co2     3 ASP3        0.0000 
     61 OD1       112.0700   93.1500  119.2700 O.co2     3 ASP3        0.0000 
     62 OD1       112.6800   91.8300  119.6300 O.co2     3 ASP3        0.0000 
     63 CZ        113.2600   97.5000  114.5400 C.ar      4 PHE5        0.0000 
     64 CZ        107.7900   91.5000  120.4800 C.ar      4 PHE5        0.0000 
     65 CZ        105.3600   98.7300  119.8500 C.ar      4 PHE5        0.0000 
     66 CZ        113.2800   99.4500  115.3800 C.ar      4 PHE5        0.0000 
     67 CZ        105.9700   97.4100  120.2200 C.ar      4 PHE5        0.0000 
     68 CZ        104.7500   97.0700  121.0300 C.ar      4 PHE5        0.0000 
     69 CZ        112.6700   97.7900  116.5500 C.ar      4 PHE5        0.0000 
     70 CZ        106.5800   96.0900  120.5900 C.ar      4 PHE5        0.0000 
     71 CZ        105.3700   95.7500  121.4000 C.ar      4 PHE5        0.0000 
     72 CZ        104.1500   95.4100  122.2000 C.ar      4 PHE5        0.0000 
     73 CZ        107.2000   91.7900  122.5000 C.ar      4 PHE5        0.0000 
     74 CZ        110.2500   91.1500  121.2500 C.ar      4 PHE5        0.0000 
     75 CZ        109.0300   90.8100  122.0600 C.ar      4 PHE5        0.0000 
     76 CZ        107.8100   90.4700  122.8600 C.ar      4 PHE5        0.0000 
     77 CZ        107.2100   96.7200  121.8000 C.ar      4 PHE5        0.0000 
     78 CZ        107.8200   95.4000  122.1700 C.ar      4 PHE5        0.0000 
     79 CZ        106.6000   95.0600  122.9700 C.ar      4 PHE5        0.0000 
     80 CZ        105.3900   94.7200  123.7800 C.ar      4 PHE5        0.0000 
     81 CZ        104.1700   94.3800  124.5900 C.ar      4 PHE5        0.0000 
     82 CZ        110.8700   91.7800  122.4600 C.ar      4 PHE5        0.0000 
     83 CZ        109.6600   91.4400  123.2700 C.ar      4 PHE5        0.0000 
     84 CZ        112.7000   90.8000  122.0200 C.ar      4 PHE5        0.0000 
     85 CZ        111.4900   90.4600  122.8300 C.ar      4 PHE5        0.0000 
     86 CZ        114.5300   89.8200  121.5800 C.ar      4 PHE5        0.0000 
     87 CZ        113.3200   89.4800  122.3900 C.ar      4 PHE5        0.0000 
     88 CZ        107.2300   95.6900  124.1800 C.ar      4 PHE5        0.0000 
     89 CZ        107.8400   94.3700  124.5500 C.ar      4 PHE5        0.0000 
     90 CZ        106.6300   94.0300  125.3600 C.ar      4 PHE5        0.0000 
     91 CZ        105.4100   93.6900  126.1600 C.ar      4 PHE5        0.0000 
     92 CZ        112.1100   91.0900  124.0400 C.ar      4 PHE5        0.0000 
     93 CZ        110.9000   90.7500  124.8400 C.ar      4 PHE5        0.0000 
     94 CZ        113.9400   90.1100  123.6000 C.ar      4 PHE5        0.0000 
     95 CZ        112.7300   89.7700  124.4000 C.ar      4 PHE5        0.0000 
     96 CZ        111.5100   89.4300  125.2100 C.ar      4 PHE5        0.0000 
     97 CZ        107.8600   96.3100  125.3900 C.ar      4 PHE5        0.0000 
     98 CZ        106.6400   95.9700  126.2000 C.ar      4 PHE5        0.0000 
     99 CZ        105.4200   95.6300  127.0100 C.ar      4 PHE5        0.0000 
    100 CZ        107.2500   94.6500  126.5700 C.ar      4 PHE5        0.0000 
    101 CZ        112.7400   91.7100  125.2500 C.ar      4 PHE5        0.0000 
    102 CZ        112.1300   90.0500  126.4200 C.ar      4 PHE5        0.0000 
    103 CA        110.8200   99.8000  114.6100 C.3       5 GLY6        0.0000 
    104 CA        110.8300   96.8200  116.1500 C.3       5 GLY6        0.0000 
    105 CA        103.5200   94.7800  120.9900 C.3       5 GLY6        0.0000 
    106 CA        111.4500  100.4300  115.8200 C.3       5 GLY6        0.0000 
    107 CA        110.2300  100.0900  116.6300 C.3       5 GLY6        0.0000 
    108 CA        112.0600   99.1100  116.1900 C.3       5 GLY6        0.0000 
    109 CA        112.0700   96.1300  117.7300 C.3       5 GLY6        0.0000 
    110 CA        110.8500   95.7900  118.5300 C.3       5 GLY6        0.0000 
    111 CA        105.9800   94.4300  121.7600 C.3       5 GLY6        0.0000 
    112 CA        104.7600   94.0900  122.5700 C.3       5 GLY6        0.0000 
    113 CA        106.5900   93.1100  122.1300 C.3       5 GLY6        0.0000 
    114 CA        105.3700   92.7700  122.9400 C.3       5 GLY6        0.0000 
    115 CA        105.9800   91.4500  123.3000 C.3       5 GLY6        0.0000 
    116 CA        112.0800  101.0600  117.0300 C.3       5 GLY6        0.0000 
    117 CA        110.8600  100.7200  117.8400 C.3       5 GLY6        0.0000 
    118 CA        106.0000   93.4000  124.1500 C.3       5 GLY6        0.0000 
    119 CA        104.7800   93.0600  124.9500 C.3       5 GLY6        0.0000 
    120 CA        106.6100   92.0800  124.5100 C.3       5 GLY6        0.0000 
    121 CA        105.3900   91.7400  125.3200 C.3       5 GLY6        0.0000 
    122 CA        104.1900   93.3500  126.9700 C.3       5 GLY6        0.0000 
    123 CA        106.0200   92.3700  126.5300 C.3       5 GLY6        0.0000 
    124 CA        113.3300   91.4300  123.2300 C.3       5 GLY6        0.0000 
    125 CA        104.2100   95.2900  127.8100 C.3       5 GLY6        0.0000 
    126 CA        106.0300   94.3100  127.3700 C.3       5 GLY6        0.0000 
    127 CA        111.5200   94.3500  124.5100 C.3       5 GLY6        0.0000 
    128 CA        106.6500   92.9900  127.7400 C.3       5 GLY6        0.0000 
    129 CA        110.3100   91.0300  126.8600 C.3       5 GLY6        0.0000 
    130 CA        112.1400   94.9800  125.7200 C.3       5 GLY6        0.0000 
    131 DU        108.3900   99.1200  116.2200 H         6 CUB7        0.0000 
    132 DU        107.1700   98.7800  117.0300 H         6 CUB7        0.0000 
    133 DU        105.9500   98.4400  117.8400 H         6 CUB7        0.0000 
    134 DU        104.7300   98.1000  118.6400 H         6 CUB7        0.0000 
    135 DU        106.5600   97.1200  118.2000 H         6 CUB7        0.0000 
    136 DU        107.1700   95.8000  118.5700 H         6 CUB7        0.0000 
    137 DU        107.7900   94.4800  118.9400 H         6 CUB7        0.0000 
    138 DU        108.4100   95.1100  120.1500 H         6 CUB7        0.0000 
    139 DU        107.2000   94.7700  120.9600 H         6 CUB7        0.0000 
    140 DU        110.2400   94.1300  119.7100 H         6 CUB7        0.0000 
    141 DU        109.0200   93.7900  120.5200 H         6 CUB7        0.0000 
    142 DU        107.8100   93.4500  121.3200 H         6 CUB7        0.0000 
    143 DU        108.4200   92.1300  121.6900 H         6 CUB7        0.0000 
    144 DU        108.4300   94.0800  122.5300 H         6 CUB7        0.0000 
    145 DU        107.2200   93.7400  123.3400 H         6 CUB7        0.0000 
    146 DU        107.8300   92.4200  123.7100 H         6 CUB7        0.0000 
    147 DU        109.6700   93.3900  124.1100 H         6 CUB7        0.0000 
    148 DU        107.2400   92.7100  125.7200 H         6 CUB7        0.0000 
    149 DU        110.2800   92.0700  124.4800 H         6 CUB7        0.0000 
    150 DU        109.0700   91.7300  125.2800 H         6 CUB7        0.0000 
    151 DU        108.4700   94.9900  125.7600 H         6 CUB7        0.0000 
    152 DU        110.3000   94.0100  125.3200 H         6 CUB7        0.0000 
    153 DU        107.8600   93.3300  126.9300 H         6 CUB7        0.0000 
    154 DU        111.5200   91.3700  126.0500 H         6 CUB7        0.0000 
    155 DU        110.9300   94.6400  126.5300 H         6 CUB7        0.0000 
    156 DU        112.1500   92.0000  127.2600 H         6 CUB7        0.0000 
@<TRIPOS>BOND
@<TRIPOS>SUBSTRUCTURE
     1 SER1        1 GROUP   
     2 ALA2       17 GROUP   
     3 ASP3       53 GROUP   
     4 PHE5       63 GROUP   
     5 GLY6      103 GROUP   
     6 CUB7      131 GROUP   
@<TRIPOS>SET

