#    Name: 6g1k_1_Y01
#    Modification time : Fri May 22 19:29:31 2020

@<TRIPOS>MOLECULE
6g1k_1_Y01
   35    38     1     0     0
SMALL
NO_CHARGES


@<TRIPOS>ATOM
      1 CAA       146.6000  110.9410  139.0140 C.3       1 Y011001     0.0000 
      2 CBA       145.7890  111.4710  137.8270 C.3       1 Y011001     0.0000 
      3 CAB       144.2980  111.2720  138.1000 C.3       1 Y011001     0.0000 
      4 CAN       146.0800  112.9610  137.6110 C.3       1 Y011001     0.0000 
      5 CAJ       147.5680  113.1770  137.3270 C.3       1 Y011001     0.0000 
      6 CAO       147.7070  113.6550  135.8830 C.3       1 Y011001     0.0000 
      7 CBB       148.7440  112.8680  135.0470 C.3       1 Y011001     0.0000 
      8 CAC       148.6020  111.3700  135.3720 C.3       1 Y011001     0.0000 
      9 CBE       148.5210  113.1760  133.5340 C.3       1 Y011001     0.0000 
     10 CAP       148.2040  114.6820  133.3200 C.3       1 Y011001     0.0000 
     11 CAQ       148.6720  115.0140  131.9100 C.3       1 Y011001     0.0000 
     12 CBG       149.0390  113.6560  131.3970 C.3       1 Y011001     0.0000 
     13 CBI       149.7330  113.0130  132.5880 C.3       1 Y011001     0.0000 
     14 CAE       150.9630  113.7860  133.1030 C.3       1 Y011001     0.0000 
     15 CAU       150.1340  111.5840  132.1680 C.3       1 Y011001     0.0000 
     16 CAS       151.0630  111.6350  130.9630 C.3       1 Y011001     0.0000 
     17 CBF       150.3430  112.3240  129.7960 C.3       1 Y011001     0.0000 
     18 CBD       149.9280  113.7310  130.1850 C.3       1 Y011001     0.0000 
     19 CAK       149.0970  114.3110  129.0700 C.3       1 Y011001     0.0000 
     20 CAI       149.6640  114.1090  127.8130 C.2       1 Y011001     0.0000 
     21 CAZ       150.6540  113.1580  127.5540 C.2       1 Y011001     0.0000 
     22 CAV       151.0980  113.0650  126.2320 C.3       1 Y011001     0.0000 
     23 CBH       151.2600  112.4150  128.5850 C.3       1 Y011001     0.0000 
     24 CAD       152.5630  113.1300  128.9680 C.3       1 Y011001     0.0000 
     25 CAT       151.5780  110.9910  128.1480 C.3       1 Y011001     0.0000 
     26 CAR       152.3100  111.0160  126.8350 C.3       1 Y011001     0.0000 
     27 CBC       151.3880  111.6370  125.8170 C.3       1 Y011001     0.0000 
     28 OAW       152.0400  111.6650  124.5650 O.3       1 Y011001     0.0000 
     29 CAY       151.2860  111.0780  123.6060 C.2       1 Y011001     0.0000 
     30 OAG       150.2840  110.3960  123.8140 O.2       1 Y011001     0.0000 
     31 CAM       151.8000  111.3140  122.1950 C.3       1 Y011001     0.0000 
     32 CAL       151.4290  110.1420  121.2930 C.3       1 Y011001     0.0000 
     33 CAX       151.6690  110.5660  119.8460 C.2       1 Y011001     0.0000 
     34 OAH       152.8550  110.7480  119.4980 O.co2     1 Y011001     0.0000 
     35 OAF       150.6620  110.7050  119.1210 O.co2     1 Y011001     0.0000 
@<TRIPOS>BOND
     1    1    2 1    
     2    2    3 1    
     3    2    4 1    
     4    4    5 1    
     5    5    6 1    
     6    6    7 1    
     7    7    8 1    
     8    7    9 1    
     9    9   10 1    
    10    9   13 1    
    11   10   11 1    
    12   11   12 1    
    13   12   13 1    
    14   12   18 1    
    15   13   14 1    
    16   13   15 1    
    17   15   16 1    
    18   16   17 1    
    19   17   18 1    
    20   17   23 1    
    21   18   19 1    
    22   19   20 1    
    23   20   21 2    
    24   21   22 1    
    25   21   23 1    
    26   22   27 1    
    27   23   24 1    
    28   23   25 1    
    29   25   26 1    
    30   26   27 1    
    31   27   28 1    
    32   28   29 1    
    33   29   30 2    
    34   29   31 1    
    35   31   32 1    
    36   32   33 1    
    37   33   34 ar   
    38   33   35 ar   
@<TRIPOS>SUBSTRUCTURE
     1 Y011001     1 GROUP   
@<TRIPOS>SET

