#    Name: 6g1k_3_Y01
#    Modification time : Fri May 22 19:30:20 2020

@<TRIPOS>MOLECULE
6g1k_3_Y01
   35    38     1     0     0
SMALL
NO_CHARGES


@<TRIPOS>ATOM
      1 CAA       133.2190  146.6000  139.0140 C.3       1 Y011001     0.0000 
      2 CBA       132.6890  145.7890  137.8270 C.3       1 Y011001     0.0000 
      3 CAB       132.8880  144.2980  138.1000 C.3       1 Y011001     0.0000 
      4 CAN       131.1990  146.0800  137.6110 C.3       1 Y011001     0.0000 
      5 CAJ       130.9830  147.5680  137.3270 C.3       1 Y011001     0.0000 
      6 CAO       130.5050  147.7070  135.8830 C.3       1 Y011001     0.0000 
      7 CBB       131.2920  148.7440  135.0470 C.3       1 Y011001     0.0000 
      8 CAC       132.7900  148.6020  135.3720 C.3       1 Y011001     0.0000 
      9 CBE       130.9840  148.5210  133.5340 C.3       1 Y011001     0.0000 
     10 CAP       129.4780  148.2040  133.3200 C.3       1 Y011001     0.0000 
     11 CAQ       129.1460  148.6720  131.9100 C.3       1 Y011001     0.0000 
     12 CBG       130.5040  149.0390  131.3970 C.3       1 Y011001     0.0000 
     13 CBI       131.1470  149.7330  132.5880 C.3       1 Y011001     0.0000 
     14 CAE       130.3740  150.9630  133.1030 C.3       1 Y011001     0.0000 
     15 CAU       132.5760  150.1340  132.1680 C.3       1 Y011001     0.0000 
     16 CAS       132.5250  151.0630  130.9630 C.3       1 Y011001     0.0000 
     17 CBF       131.8360  150.3430  129.7960 C.3       1 Y011001     0.0000 
     18 CBD       130.4290  149.9280  130.1850 C.3       1 Y011001     0.0000 
     19 CAK       129.8490  149.0970  129.0700 C.3       1 Y011001     0.0000 
     20 CAI       130.0510  149.6640  127.8130 C.2       1 Y011001     0.0000 
     21 CAZ       131.0020  150.6540  127.5540 C.2       1 Y011001     0.0000 
     22 CAV       131.0950  151.0980  126.2320 C.3       1 Y011001     0.0000 
     23 CBH       131.7450  151.2600  128.5850 C.3       1 Y011001     0.0000 
     24 CAD       131.0300  152.5630  128.9680 C.3       1 Y011001     0.0000 
     25 CAT       133.1690  151.5780  128.1480 C.3       1 Y011001     0.0000 
     26 CAR       133.1440  152.3100  126.8350 C.3       1 Y011001     0.0000 
     27 CBC       132.5230  151.3880  125.8170 C.3       1 Y011001     0.0000 
     28 OAW       132.4950  152.0400  124.5650 O.3       1 Y011001     0.0000 
     29 CAY       133.0820  151.2860  123.6060 C.2       1 Y011001     0.0000 
     30 OAG       133.7640  150.2840  123.8140 O.2       1 Y011001     0.0000 
     31 CAM       132.8460  151.8000  122.1950 C.3       1 Y011001     0.0000 
     32 CAL       134.0180  151.4290  121.2930 C.3       1 Y011001     0.0000 
     33 CAX       133.5940  151.6690  119.8460 C.2       1 Y011001     0.0000 
     34 OAH       133.4120  152.8550  119.4980 O.co2     1 Y011001     0.0000 
     35 OAF       133.4550  150.6620  119.1210 O.co2     1 Y011001     0.0000 
@<TRIPOS>BOND
     1    1    2 1    
     2    2    3 1    
     3    2    4 1    
     4    4    5 1    
     5    5    6 1    
     6    6    7 1    
     7    7    8 1    
     8    7    9 1    
     9    9   10 1    
    10    9   13 1    
    11   10   11 1    
    12   11   12 1    
    13   12   13 1    
    14   12   18 1    
    15   13   14 1    
    16   13   15 1    
    17   15   16 1    
    18   16   17 1    
    19   17   18 1    
    20   17   23 1    
    21   18   19 1    
    22   19   20 1    
    23   20   21 2    
    24   21   22 1    
    25   21   23 1    
    26   22   27 1    
    27   23   24 1    
    28   23   25 1    
    29   25   26 1    
    30   26   27 1    
    31   27   28 1    
    32   28   29 1    
    33   29   30 2    
    34   29   31 1    
    35   31   32 1    
    36   32   33 1    
    37   33   34 ar   
    38   33   35 ar   
@<TRIPOS>SUBSTRUCTURE
     1 Y011001     1 GROUP   
@<TRIPOS>SET

