#    Name: 6g1k_2_Y01_CAVITY_N1_4
#    Modification time : Fri May 22 19:29:57 2020

@<TRIPOS>MOLECULE
6g1k_2_Y01_CAVITY_N1_4
   88     0     6     0     0
SMALL
NO_CHARGES


@<TRIPOS>ATOM
      1 OG        109.6200   93.5000  118.5000 O.3       1 SER1        0.0000 
      2 OG        108.4000   93.1600  119.3100 O.3       1 SER1        0.0000 
      3 OG        111.4400   92.5200  118.0600 O.3       1 SER1        0.0000 
      4 OG        109.0200   96.7700  118.9700 O.3       1 SER1        0.0000 
      5 OG        109.6300   95.4500  119.3400 O.3       1 SER1        0.0000 
      6 OG        110.8500   92.8100  120.0800 O.3       1 SER1        0.0000 
      7 OG        109.6400   92.4700  120.8800 O.3       1 SER1        0.0000 
      8 OG        111.4700   91.4900  120.4400 O.3       1 SER1        0.0000 
      9 N         109.6100   96.4800  116.9600 N.am      2 ALA2        0.0000 
     10 N         108.3900   96.1400  117.7600 N.am      2 ALA2        0.0000 
     11 N         110.2200   95.1600  117.3200 N.am      2 ALA2        0.0000 
     12 N         109.0000   94.8200  118.1300 N.am      2 ALA2        0.0000 
     13 O         113.2900   90.5100  120.0000 O.2       2 ALA2        0.0000 
     14 O         112.0800   90.1700  120.8100 O.2       2 ALA2        0.0000 
     15 O         110.2600   96.0800  120.5500 O.2       2 ALA2        0.0000 
     16 N         109.0400   95.7400  121.3600 N.am      2 ALA2        0.0000 
     17 N         112.0900   95.1000  120.1100 N.am      2 ALA2        0.0000 
     18 N         110.8700   94.7600  120.9200 N.am      2 ALA2        0.0000 
     19 N         109.6500   94.4200  121.7300 N.am      2 ALA2        0.0000 
     20 N         111.4800   93.4400  121.2800 N.am      2 ALA2        0.0000 
     21 N         110.2600   93.1000  122.0900 N.am      2 ALA2        0.0000 
     22 N         112.0900   92.1200  121.6500 N.am      2 ALA2        0.0000 
     23 N         108.4400   91.1000  124.0700 N.am      2 ALA2        0.0000 
     24 N         113.9200   91.1400  121.2100 N.am      2 ALA2        0.0000 
     25 N         108.4500   96.0300  123.3800 N.am      2 ALA2        0.0000 
     26 N         110.2800   95.0500  122.9400 N.am      2 ALA2        0.0000 
     27 N         109.0600   94.7100  123.7400 N.am      2 ALA2        0.0000 
     28 N         110.8900   93.7300  123.3000 N.am      2 ALA2        0.0000 
     29 N         111.5000   92.4100  123.6700 N.am      2 ALA2        0.0000 
     30 N         107.8500   91.3900  126.0900 N.am      2 ALA2        0.0000 
     31 N         109.6800   90.4100  125.6500 N.am      2 ALA2        0.0000 
     32 N         109.0800   96.6500  124.5900 N.am      2 ALA2        0.0000 
     33 N         109.6900   95.3300  124.9500 N.am      2 ALA2        0.0000 
     34 N         112.1300   93.0300  124.8800 N.am      2 ALA2        0.0000 
     35 O         110.3200   95.9600  126.1600 O.2       2 ALA2        0.0000 
     36 OD1       111.4400   95.5000  116.5200 O.co2     3 ASP3        0.0000 
     37 OD1       107.1800   92.8200  120.1100 O.co2     3 ASP3        0.0000 
     38 OD1       111.4600   94.4700  118.9000 O.co2     3 ASP3        0.0000 
     39 OD1       112.0700   93.1500  119.2700 O.co2     3 ASP3        0.0000 
     40 OD1       112.6800   91.8300  119.6300 O.co2     3 ASP3        0.0000 
     41 CZ        107.7900   91.5000  120.4800 C.ar      4 PHE5        0.0000 
     42 CZ        107.2000   91.7900  122.5000 C.ar      4 PHE5        0.0000 
     43 CZ        110.2500   91.1500  121.2500 C.ar      4 PHE5        0.0000 
     44 CZ        109.0300   90.8100  122.0600 C.ar      4 PHE5        0.0000 
     45 CZ        107.8100   90.4700  122.8600 C.ar      4 PHE5        0.0000 
     46 CZ        107.8200   95.4000  122.1700 C.ar      4 PHE5        0.0000 
     47 CZ        110.8700   91.7800  122.4600 C.ar      4 PHE5        0.0000 
     48 CZ        109.6600   91.4400  123.2700 C.ar      4 PHE5        0.0000 
     49 CZ        112.7000   90.8000  122.0200 C.ar      4 PHE5        0.0000 
     50 CZ        111.4900   90.4600  122.8300 C.ar      4 PHE5        0.0000 
     51 CZ        113.3200   89.4800  122.3900 C.ar      4 PHE5        0.0000 
     52 CZ        107.2300   95.6900  124.1800 C.ar      4 PHE5        0.0000 
     53 CZ        107.8400   94.3700  124.5500 C.ar      4 PHE5        0.0000 
     54 CZ        112.1100   91.0900  124.0400 C.ar      4 PHE5        0.0000 
     55 CZ        110.9000   90.7500  124.8400 C.ar      4 PHE5        0.0000 
     56 CZ        113.9400   90.1100  123.6000 C.ar      4 PHE5        0.0000 
     57 CZ        112.7300   89.7700  124.4000 C.ar      4 PHE5        0.0000 
     58 CZ        111.5100   89.4300  125.2100 C.ar      4 PHE5        0.0000 
     59 CZ        107.8600   96.3100  125.3900 C.ar      4 PHE5        0.0000 
     60 CZ        112.7400   91.7100  125.2500 C.ar      4 PHE5        0.0000 
     61 CZ        112.1300   90.0500  126.4200 C.ar      4 PHE5        0.0000 
     62 CA        112.0700   96.1300  117.7300 C.3       5 GLY6        0.0000 
     63 CA        110.8500   95.7900  118.5300 C.3       5 GLY6        0.0000 
     64 CA        106.5900   93.1100  122.1300 C.3       5 GLY6        0.0000 
     65 CA        113.3300   91.4300  123.2300 C.3       5 GLY6        0.0000 
     66 CA        111.5200   94.3500  124.5100 C.3       5 GLY6        0.0000 
     67 CA        110.3100   91.0300  126.8600 C.3       5 GLY6        0.0000 
     68 CA        112.1400   94.9800  125.7200 C.3       5 GLY6        0.0000 
     69 DU        107.7900   94.4800  118.9400 H         6 CUB7        0.0000 
     70 DU        108.4100   95.1100  120.1500 H         6 CUB7        0.0000 
     71 DU        107.2000   94.7700  120.9600 H         6 CUB7        0.0000 
     72 DU        110.2400   94.1300  119.7100 H         6 CUB7        0.0000 
     73 DU        109.0200   93.7900  120.5200 H         6 CUB7        0.0000 
     74 DU        107.8100   93.4500  121.3200 H         6 CUB7        0.0000 
     75 DU        108.4200   92.1300  121.6900 H         6 CUB7        0.0000 
     76 DU        108.4300   94.0800  122.5300 H         6 CUB7        0.0000 
     77 DU        107.2200   93.7400  123.3400 H         6 CUB7        0.0000 
     78 DU        107.8300   92.4200  123.7100 H         6 CUB7        0.0000 
     79 DU        109.6700   93.3900  124.1100 H         6 CUB7        0.0000 
     80 DU        107.2400   92.7100  125.7200 H         6 CUB7        0.0000 
     81 DU        110.2800   92.0700  124.4800 H         6 CUB7        0.0000 
     82 DU        109.0700   91.7300  125.2800 H         6 CUB7        0.0000 
     83 DU        108.4700   94.9900  125.7600 H         6 CUB7        0.0000 
     84 DU        110.3000   94.0100  125.3200 H         6 CUB7        0.0000 
     85 DU        107.8600   93.3300  126.9300 H         6 CUB7        0.0000 
     86 DU        111.5200   91.3700  126.0500 H         6 CUB7        0.0000 
     87 DU        110.9300   94.6400  126.5300 H         6 CUB7        0.0000 
     88 DU        112.1500   92.0000  127.2600 H         6 CUB7        0.0000 
@<TRIPOS>BOND
@<TRIPOS>SUBSTRUCTURE
     1 SER1        1 GROUP   
     2 ALA2        9 GROUP   
     3 ASP3       36 GROUP   
     4 PHE5       41 GROUP   
     5 GLY6       62 GROUP   
     6 CUB7       69 GROUP   
@<TRIPOS>SET

