#    Name: 6g1k_2_Y01
#    Modification time : Fri May 22 19:29:56 2020

@<TRIPOS>MOLECULE
6g1k_2_Y01
   35    38     1     0     0
SMALL
NO_CHARGES


@<TRIPOS>ATOM
      1 CAA       110.9410   97.5600  139.0140 C.3       1 Y011001     0.0000 
      2 CBA       111.4710   98.3710  137.8270 C.3       1 Y011001     0.0000 
      3 CAB       111.2720   99.8620  138.1000 C.3       1 Y011001     0.0000 
      4 CAN       112.9610   98.0800  137.6110 C.3       1 Y011001     0.0000 
      5 CAJ       113.1770   96.5920  137.3270 C.3       1 Y011001     0.0000 
      6 CAO       113.6550   96.4530  135.8830 C.3       1 Y011001     0.0000 
      7 CBB       112.8680   95.4160  135.0470 C.3       1 Y011001     0.0000 
      8 CAC       111.3700   95.5580  135.3720 C.3       1 Y011001     0.0000 
      9 CBE       113.1760   95.6390  133.5340 C.3       1 Y011001     0.0000 
     10 CAP       114.6820   95.9560  133.3200 C.3       1 Y011001     0.0000 
     11 CAQ       115.0140   95.4880  131.9100 C.3       1 Y011001     0.0000 
     12 CBG       113.6560   95.1210  131.3970 C.3       1 Y011001     0.0000 
     13 CBI       113.0130   94.4270  132.5880 C.3       1 Y011001     0.0000 
     14 CAE       113.7860   93.1970  133.1030 C.3       1 Y011001     0.0000 
     15 CAU       111.5840   94.0260  132.1680 C.3       1 Y011001     0.0000 
     16 CAS       111.6350   93.0970  130.9630 C.3       1 Y011001     0.0000 
     17 CBF       112.3240   93.8170  129.7960 C.3       1 Y011001     0.0000 
     18 CBD       113.7310   94.2320  130.1850 C.3       1 Y011001     0.0000 
     19 CAK       114.3110   95.0630  129.0700 C.3       1 Y011001     0.0000 
     20 CAI       114.1090   94.4960  127.8130 C.2       1 Y011001     0.0000 
     21 CAZ       113.1580   93.5060  127.5540 C.2       1 Y011001     0.0000 
     22 CAV       113.0650   93.0620  126.2320 C.3       1 Y011001     0.0000 
     23 CBH       112.4150   92.9000  128.5850 C.3       1 Y011001     0.0000 
     24 CAD       113.1300   91.5970  128.9680 C.3       1 Y011001     0.0000 
     25 CAT       110.9910   92.5820  128.1480 C.3       1 Y011001     0.0000 
     26 CAR       111.0160   91.8500  126.8350 C.3       1 Y011001     0.0000 
     27 CBC       111.6370   92.7720  125.8170 C.3       1 Y011001     0.0000 
     28 OAW       111.6650   92.1200  124.5650 O.3       1 Y011001     0.0000 
     29 CAY       111.0780   92.8740  123.6060 C.2       1 Y011001     0.0000 
     30 OAG       110.3960   93.8760  123.8140 O.2       1 Y011001     0.0000 
     31 CAM       111.3140   92.3600  122.1950 C.3       1 Y011001     0.0000 
     32 CAL       110.1420   92.7310  121.2930 C.3       1 Y011001     0.0000 
     33 CAX       110.5660   92.4910  119.8460 C.2       1 Y011001     0.0000 
     34 OAH       110.7480   91.3050  119.4980 O.co2     1 Y011001     0.0000 
     35 OAF       110.7050   93.4980  119.1210 O.co2     1 Y011001     0.0000 
@<TRIPOS>BOND
     1    1    2 1    
     2    2    3 1    
     3    2    4 1    
     4    4    5 1    
     5    5    6 1    
     6    6    7 1    
     7    7    8 1    
     8    7    9 1    
     9    9   10 1    
    10    9   13 1    
    11   10   11 1    
    12   11   12 1    
    13   12   13 1    
    14   12   18 1    
    15   13   14 1    
    16   13   15 1    
    17   15   16 1    
    18   16   17 1    
    19   17   18 1    
    20   17   23 1    
    21   18   19 1    
    22   19   20 1    
    23   20   21 2    
    24   21   22 1    
    25   21   23 1    
    26   22   27 1    
    27   23   24 1    
    28   23   25 1    
    29   25   26 1    
    30   26   27 1    
    31   27   28 1    
    32   28   29 1    
    33   29   30 2    
    34   29   31 1    
    35   31   32 1    
    36   32   33 1    
    37   33   34 ar   
    38   33   35 ar   
@<TRIPOS>SUBSTRUCTURE
     1 Y011001     1 GROUP   
@<TRIPOS>SET

