#    Name: 6g1k_4_Y01
#    Modification time : Fri May 22 19:30:44 2020

@<TRIPOS>MOLECULE
6g1k_4_Y01
   35    38     1     0     0
SMALL
NO_CHARGES


@<TRIPOS>ATOM
      1 CAA        97.5600  133.2190  139.0140 C.3       1 Y011001     0.0000 
      2 CBA        98.3710  132.6890  137.8270 C.3       1 Y011001     0.0000 
      3 CAB        99.8620  132.8880  138.1000 C.3       1 Y011001     0.0000 
      4 CAN        98.0800  131.1990  137.6110 C.3       1 Y011001     0.0000 
      5 CAJ        96.5920  130.9830  137.3270 C.3       1 Y011001     0.0000 
      6 CAO        96.4530  130.5050  135.8830 C.3       1 Y011001     0.0000 
      7 CBB        95.4160  131.2920  135.0470 C.3       1 Y011001     0.0000 
      8 CAC        95.5580  132.7900  135.3720 C.3       1 Y011001     0.0000 
      9 CBE        95.6390  130.9840  133.5340 C.3       1 Y011001     0.0000 
     10 CAP        95.9560  129.4780  133.3200 C.3       1 Y011001     0.0000 
     11 CAQ        95.4880  129.1460  131.9100 C.3       1 Y011001     0.0000 
     12 CBG        95.1210  130.5040  131.3970 C.3       1 Y011001     0.0000 
     13 CBI        94.4270  131.1470  132.5880 C.3       1 Y011001     0.0000 
     14 CAE        93.1970  130.3740  133.1030 C.3       1 Y011001     0.0000 
     15 CAU        94.0260  132.5760  132.1680 C.3       1 Y011001     0.0000 
     16 CAS        93.0970  132.5250  130.9630 C.3       1 Y011001     0.0000 
     17 CBF        93.8170  131.8360  129.7960 C.3       1 Y011001     0.0000 
     18 CBD        94.2320  130.4290  130.1850 C.3       1 Y011001     0.0000 
     19 CAK        95.0630  129.8490  129.0700 C.3       1 Y011001     0.0000 
     20 CAI        94.4960  130.0510  127.8130 C.2       1 Y011001     0.0000 
     21 CAZ        93.5060  131.0020  127.5540 C.2       1 Y011001     0.0000 
     22 CAV        93.0620  131.0950  126.2320 C.3       1 Y011001     0.0000 
     23 CBH        92.9000  131.7450  128.5850 C.3       1 Y011001     0.0000 
     24 CAD        91.5970  131.0300  128.9680 C.3       1 Y011001     0.0000 
     25 CAT        92.5820  133.1690  128.1480 C.3       1 Y011001     0.0000 
     26 CAR        91.8500  133.1440  126.8350 C.3       1 Y011001     0.0000 
     27 CBC        92.7720  132.5230  125.8170 C.3       1 Y011001     0.0000 
     28 OAW        92.1200  132.4950  124.5650 O.3       1 Y011001     0.0000 
     29 CAY        92.8740  133.0820  123.6060 C.2       1 Y011001     0.0000 
     30 OAG        93.8760  133.7640  123.8140 O.2       1 Y011001     0.0000 
     31 CAM        92.3600  132.8460  122.1950 C.3       1 Y011001     0.0000 
     32 CAL        92.7310  134.0180  121.2930 C.3       1 Y011001     0.0000 
     33 CAX        92.4910  133.5940  119.8460 C.2       1 Y011001     0.0000 
     34 OAH        91.3050  133.4120  119.4980 O.co2     1 Y011001     0.0000 
     35 OAF        93.4980  133.4550  119.1210 O.co2     1 Y011001     0.0000 
@<TRIPOS>BOND
     1    1    2 1    
     2    2    3 1    
     3    2    4 1    
     4    4    5 1    
     5    5    6 1    
     6    6    7 1    
     7    7    8 1    
     8    7    9 1    
     9    9   10 1    
    10    9   13 1    
    11   10   11 1    
    12   11   12 1    
    13   12   13 1    
    14   12   18 1    
    15   13   14 1    
    16   13   15 1    
    17   15   16 1    
    18   16   17 1    
    19   17   18 1    
    20   17   23 1    
    21   18   19 1    
    22   19   20 1    
    23   20   21 2    
    24   21   22 1    
    25   21   23 1    
    26   22   27 1    
    27   23   24 1    
    28   23   25 1    
    29   25   26 1    
    30   26   27 1    
    31   27   28 1    
    32   28   29 1    
    33   29   30 2    
    34   29   31 1    
    35   31   32 1    
    36   32   33 1    
    37   33   34 ar   
    38   33   35 ar   
@<TRIPOS>SUBSTRUCTURE
     1 Y011001     1 GROUP   
@<TRIPOS>SET

