#    Name: 6brh_2_DGT
#    Modification time : Fri May 22 19:32:38 2020

@<TRIPOS>MOLECULE
6brh_2_DGT
   31    33     1     0     0
SMALL
NO_CHARGES


@<TRIPOS>ATOM
      1 PG         55.2850  157.0860  125.2710 P.3       1 DGT701      0.0000 
      2 O1G        54.5730  158.1570  124.4940 O.co2     1 DGT701      0.0000 
      3 O2G        56.1790  157.6910  126.3630 O.co2     1 DGT701      0.0000 
      4 O3G        56.1390  156.1830  124.3750 O.co2     1 DGT701      0.0000 
      5 O3B        54.1390  156.2700  126.0530 O.3       1 DGT701      0.0000 
      6 PB         53.2850  155.1630  125.2600 P.3       1 DGT701      0.0000 
      7 O1B        52.9730  154.0620  126.2290 O.co2     1 DGT701      0.0000 
      8 O2B        54.0440  154.5990  124.0880 O.co2     1 DGT701      0.0000 
      9 O3A        51.9290  155.8690  124.8410 O.3       1 DGT701      0.0000 
     10 PA         51.2700  155.9850  123.3560 P.3       1 DGT701      0.0000 
     11 O1A        49.7780  156.1260  123.5460 O.co2     1 DGT701      0.0000 
     12 O2A        51.7610  157.2020  122.6280 O.co2     1 DGT701      0.0000 
     13 O5'        51.6070  154.6970  122.4970 O.3       1 DGT701      0.0000 
     14 C5'        51.4290  153.3780  123.0940 C.3       1 DGT701      0.0000 
     15 C4'        51.4460  152.2980  121.9440 C.3       1 DGT701      0.0000 
     16 O4'        50.3540  152.4440  121.2700 O.3       1 DGT701      0.0000 
     17 C3'        52.5880  152.5060  120.9560 C.3       1 DGT701      0.0000 
     18 O3'        53.4680  151.5070  121.1110 O.3       1 DGT701      0.0000 
     19 C2'        51.9780  152.4210  119.5580 C.3       1 DGT701      0.0000 
     20 C1'        50.7210  151.9990  119.7750 C.3       1 DGT701      0.0000 
     21 N9         49.7660  152.5830  118.8830 N.pl3     1 DGT701      0.0000 
     22 C8         48.8610  151.9160  118.1880 C.2       1 DGT701      0.0000 
     23 N7         48.0920  152.7610  117.4720 N.2       1 DGT701      0.0000 
     24 C5         48.5200  154.0270  117.7320 C.2       1 DGT701      0.0000 
     25 C6         48.1530  155.3460  117.3140 C.2       1 DGT701      0.0000 
     26 O6         47.1160  155.5300  116.4180 O.2       1 DGT701      0.0000 
     27 N1         48.8330  156.4070  117.7940 N.am      1 DGT701      0.0000 
     28 C2         49.8310  156.2770  118.6470 C.2       1 DGT701      0.0000 
     29 N2         50.5030  157.4260  119.1130 N.pl3     1 DGT701      0.0000 
     30 N3         50.2010  155.0660  119.0590 N.2       1 DGT701      0.0000 
     31 C4         49.5880  153.9260  118.6390 C.2       1 DGT701      0.0000 
@<TRIPOS>BOND
     1    1    2 ar   
     2    1    3 ar   
     3    1    4 ar   
     4    1    5 1    
     5    5    6 1    
     6    6    7 ar   
     7    6    8 ar   
     8    6    9 1    
     9    9   10 1    
    10   10   11 ar   
    11   10   12 ar   
    12   10   13 1    
    13   13   14 1    
    14   14   15 1    
    15   15   16 1    
    16   15   17 1    
    17   16   20 1    
    18   17   18 1    
    19   17   19 1    
    20   19   20 1    
    21   20   21 1    
    22   21   22 1    
    23   21   31 1    
    24   22   23 2    
    25   23   24 1    
    26   24   25 1    
    27   24   31 2    
    28   25   26 2    
    29   25   27 am   
    30   27   28 1    
    31   28   29 1    
    32   28   30 2    
    33   30   31 1    
@<TRIPOS>SUBSTRUCTURE
     1 DGT701      1 GROUP   
@<TRIPOS>SET

