#    Name: 6ms8_3_NAR
#    Modification time : Fri May 22 19:29:25 2020

@<TRIPOS>MOLECULE
6ms8_3_NAR
   32    34     1     0     0
SMALL
NO_CHARGES


@<TRIPOS>ATOM
      1 C1        117.7830   33.6790    0.0010 C.ar      1 NAR301      0.0000 
      2 C2        117.4530   34.9360    0.5100 C.ar      1 NAR301      0.0000 
      3 C3        118.3430   36.0090    0.4580 C.ar      1 NAR301      0.0000 
      4 C4        119.6030   35.8590   -0.1080 C.ar      1 NAR301      0.0000 
      5 C5        119.9970   34.5530   -0.6610 C.ar      1 NAR301      0.0000 
      6 C6        119.0240   33.4590   -0.5790 C.ar      1 NAR301      0.0000 
      7 C7        121.3330   34.3030   -1.2930 C.2       1 NAR301      0.0000 
      8 C8        121.5580   32.9980   -2.0250 C.3       1 NAR301      0.0000 
      9 C9        120.2180   32.2910   -2.2720 C.3       1 NAR301      0.0000 
     10 O1        119.4070   32.2590   -1.0960 O.3       1 NAR301      0.0000 
     11 O2        122.2230   35.1360   -1.2230 O.2       1 NAR301      0.0000 
     12 C10       120.3790   30.8970   -2.7470 C.ar      1 NAR301      0.0000 
     13 C11       121.2070   29.9960   -2.0850 C.ar      1 NAR301      0.0000 
     14 C12       121.3290   28.6940   -2.5530 C.ar      1 NAR301      0.0000 
     15 C13       120.6220   28.2900   -3.6790 C.ar      1 NAR301      0.0000 
     16 C14       119.7920   29.1860   -4.3380 C.ar      1 NAR301      0.0000 
     17 C15       119.6730   30.4890   -3.8710 C.ar      1 NAR301      0.0000 
     18 O3        120.7390   27.0140   -4.1390 O.3       1 NAR301      0.0000 
     19 O4        116.2280   35.1200    1.0740 O.3       1 NAR301      0.0000 
     20 O5        120.4780   36.8850   -0.1800 O.co2     1 NAR301      0.0000 
     21 H11       117.0660   32.8690    0.0610 H         1 NAR301      0.0000 
     22 H31       118.0490   36.9700    0.8620 H         1 NAR301      0.0000 
     23 H81       122.2100   32.3530   -1.4320 H         1 NAR301      0.0000 
     24 H82       122.0520   33.1930   -2.9790 H         1 NAR301      0.0000 
     25 H9        119.6860   32.8620   -3.0450 H         1 NAR301      0.0000 
     26 H111      121.7580   30.3100   -1.2070 H         1 NAR301      0.0000 
     27 H121      121.9750   27.9930   -2.0390 H         1 NAR301      0.0000 
     28 H141      119.2420   28.8720   -5.2160 H         1 NAR301      0.0000 
     29 H151      119.0240   31.1880   -4.3840 H         1 NAR301      0.0000 
     30 HO3       120.0730   26.4560   -3.7140 H         1 NAR301      0.0000 
     31 H41       115.6000   35.4040    0.3950 H         1 NAR301      0.0000 
     32 H51       120.3410   37.3680   -1.0070 H         1 NAR301      0.0000 
@<TRIPOS>BOND
     1    1    2 ar   
     2    1    6 ar   
     3    1   21 1    
     4    2    3 ar   
     5    2   19 1    
     6    3    4 ar   
     7    3   22 1    
     8    4    5 ar   
     9    4   20 ar   
    10    5    6 ar   
    11    5    7 1    
    12    6   10 1    
    13    7    8 1    
    14    7   11 2    
    15    8    9 1    
    16    8   23 1    
    17    8   24 1    
    18    9   10 1    
    19    9   12 1    
    20    9   25 1    
    21   12   13 ar   
    22   12   17 ar   
    23   13   14 ar   
    24   13   26 1    
    25   14   15 ar   
    26   14   27 1    
    27   15   16 ar   
    28   15   18 1    
    29   16   17 ar   
    30   16   28 1    
    31   17   29 1    
    32   18   30 1    
    33   19   31 1    
    34   20   32 1    
@<TRIPOS>SUBSTRUCTURE
     1 NAR301      1 GROUP   
@<TRIPOS>SET

