#    Name: 6ms8_4_NAR
#    Modification time : Fri May 22 19:29:29 2020

@<TRIPOS>MOLECULE
6ms8_4_NAR
   32    34     1     0     0
SMALL
NO_CHARGES


@<TRIPOS>ATOM
      1 C1        121.9300   -9.2260  -30.1060 C.ar      1 NAR301      0.0000 
      2 C2        120.9390   -8.3270  -30.5040 C.ar      1 NAR301      0.0000 
      3 C3        119.5800   -8.6480  -30.4520 C.ar      1 NAR301      0.0000 
      4 C4        119.1530   -9.8920  -29.9920 C.ar      1 NAR301      0.0000 
      5 C5        120.1730  -10.8780  -29.5630 C.ar      1 NAR301      0.0000 
      6 C6        121.5910  -10.4910  -29.6390 C.ar      1 NAR301      0.0000 
      7 C7        119.8360  -12.2440  -29.0440 C.2       1 NAR301      0.0000 
      8 C8        120.9200  -13.0660  -28.3760 C.3       1 NAR301      0.0000 
      9 C9        122.1940  -12.2400  -28.1210 C.3       1 NAR301      0.0000 
     10 O1        122.5200  -11.4110  -29.2370 O.3       1 NAR301      0.0000 
     11 O2        118.7030  -12.6860  -29.1370 O.2       1 NAR301      0.0000 
     12 C10       123.3760  -13.0820  -27.7800 C.ar      1 NAR301      0.0000 
     13 C11       123.6800  -14.2570  -28.4700 C.ar      1 NAR301      0.0000 
     14 C12       124.7950  -15.0110  -28.1210 C.ar      1 NAR301      0.0000 
     15 C13       125.6170  -14.6000  -27.0800 C.ar      1 NAR301      0.0000 
     16 C14       125.3200  -13.4310  -26.3910 C.ar      1 NAR301      0.0000 
     17 C15       124.2040  -12.6780  -26.7380 C.ar      1 NAR301      0.0000 
     18 O3        126.7090  -15.3370  -26.7350 O.3       1 NAR301      0.0000 
     19 O4        121.3100   -7.0960  -30.9580 O.3       1 NAR301      0.0000 
     20 O5        117.8260  -10.2070  -29.9500 O.co2     1 NAR301      0.0000 
     21 H11       122.9720   -8.9370  -30.1630 H         1 NAR301      0.0000 
     22 H31       118.8470   -7.9180  -30.7720 H         1 NAR301      0.0000 
     23 H81       121.1650  -13.9210  -29.0090 H         1 NAR301      0.0000 
     24 H82       120.5450  -13.4530  -27.4260 H         1 NAR301      0.0000 
     25 H9        121.9840  -11.5870  -27.2630 H         1 NAR301      0.0000 
     26 H111      123.0440  -14.5830  -29.2830 H         1 NAR301      0.0000 
     27 H121      125.0220  -15.9220  -28.6620 H         1 NAR301      0.0000 
     28 H141      125.9580  -13.1080  -25.5780 H         1 NAR301      0.0000 
     29 H151      123.9810  -11.7670  -26.1960 H         1 NAR301      0.0000 
     30 HO3       127.4740  -15.0380  -27.2450 H         1 NAR301      0.0000 
     31 H41       121.3540   -6.4780  -30.2150 H         1 NAR301      0.0000 
     32 H51       117.4640   -9.9610  -29.0880 H         1 NAR301      0.0000 
@<TRIPOS>BOND
     1    1    2 ar   
     2    1    6 ar   
     3    1   21 1    
     4    2    3 ar   
     5    2   19 1    
     6    3    4 ar   
     7    3   22 1    
     8    4    5 ar   
     9    4   20 ar   
    10    5    6 ar   
    11    5    7 1    
    12    6   10 1    
    13    7    8 1    
    14    7   11 2    
    15    8    9 1    
    16    8   23 1    
    17    8   24 1    
    18    9   10 1    
    19    9   12 1    
    20    9   25 1    
    21   12   13 ar   
    22   12   17 ar   
    23   13   14 ar   
    24   13   26 1    
    25   14   15 ar   
    26   14   27 1    
    27   15   16 ar   
    28   15   18 1    
    29   16   17 ar   
    30   16   28 1    
    31   17   29 1    
    32   18   30 1    
    33   19   31 1    
    34   20   32 1    
@<TRIPOS>SUBSTRUCTURE
     1 NAR301      1 GROUP   
@<TRIPOS>SET

