#    Name: 6k2l_2_FAD
#    Modification time : Fri May 22 19:26:35 2020

@<TRIPOS>MOLECULE
6k2l_2_FAD
   53    58     1     0     1
SMALL
NO_CHARGES


@<TRIPOS>ATOM
      1 PA         58.5650   27.0810   -8.7390 P.3       1 FAD301      0.0000 
      2 O1A        57.2140   27.5720   -9.1240 O.co2     1 FAD301      0.0000 
      3 O2A        59.5780   28.1750   -8.3320 O.co2     1 FAD301      0.0000 
      4 O5B        59.1640   26.2410   -9.9230 O.3       1 FAD301      0.0000 
      5 C5B        60.5890   26.1320  -10.1100 C.3       1 FAD301      0.0000 
      6 C4B        60.9220   24.8490  -10.8270 C.3       1 FAD301      0.0000 
      7 O4B        60.7530   23.7210   -9.9510 O.3       1 FAD301      0.0000 
      8 C3B        60.0670   24.4890  -12.0360 C.3       1 FAD301      0.0000 
      9 O3B        60.4940   25.1930  -13.1980 O.3       1 FAD301      0.0000 
     10 C2B        60.2720   22.9680  -12.1560 C.3       1 FAD301      0.0000 
     11 O2B        61.1900   22.6460  -13.1990 O.3       1 FAD301      0.0000 
     12 C1B        60.8380   22.5750  -10.7750 C.3       1 FAD301      0.0000 
     13 N9A        60.1720   21.4460  -10.1140 N.pl3     1 FAD301      0.0000 
     14 C8A        60.7280   20.2240   -9.8350 C.2       1 FAD301      0.0000 
     15 N7A        59.9130   19.3830   -9.2410 N.2       1 FAD301      0.0000 
     16 C5A        58.7340   20.1010   -9.1200 C.ar      1 FAD301      0.0000 
     17 C6A        57.4780   19.7760   -8.5700 C.ar      1 FAD301      0.0000 
     18 N6A        57.1870   18.5940   -8.0170 N.pl3     1 FAD301      0.0000 
     19 N1A        56.5160   20.7240   -8.6070 N.ar      1 FAD301      0.0000 
     20 C2A        56.7980   21.9070   -9.1620 C.ar      1 FAD301      0.0000 
     21 N3A        57.9410   22.3300   -9.7080 N.ar      1 FAD301      0.0000 
     22 C4A        58.8780   21.3750   -9.6530 C.ar      1 FAD301      0.0000 
     23 N1         51.8120   21.0440   -5.6390 N.2       1 FAD301      0.0000 
     24 C2         51.9280   20.4000   -4.4470 C.2       1 FAD301      0.0000 
     25 O2         53.0210   20.0120   -4.0270 O.2       1 FAD301      0.0000 
     26 N3         50.8040   20.1710   -3.6830 N.am      1 FAD301      0.0000 
     27 C4         49.5160   20.5440   -3.9940 C.2       1 FAD301      0.0000 
     28 O4         48.6060   20.2930   -3.2050 O.2       1 FAD301      0.0000 
     29 C4X        49.4020   21.2230   -5.2780 C.2       1 FAD301      0.0000 
     30 N5         48.2090   21.6120   -5.6800 N.2       1 FAD301      0.0000 
     31 C5X        48.1150   22.2720   -6.9090 C.ar      1 FAD301      0.0000 
     32 C6         46.8630   22.6950   -7.3670 C.ar      1 FAD301      0.0000 
     33 C7         46.7270   23.3460   -8.5940 C.ar      1 FAD301      0.0000 
     34 C7M        45.3680   23.8060   -9.0530 C.3       1 FAD301      0.0000 
     35 C8         47.8690   23.5990   -9.3700 C.ar      1 FAD301      0.0000 
     36 C8M        47.7660   24.3070  -10.6940 C.3       1 FAD301      0.0000 
     37 C9         49.1130   23.1810   -8.9150 C.ar      1 FAD301      0.0000 
     38 C9A        49.2400   22.5180   -7.7000 C.ar      1 FAD301      0.0000 
     39 N10        50.4890   22.0730   -7.2330 N.pl3     1 FAD301      0.0000 
     40 C10        50.6090   21.4250   -6.0260 C.2       1 FAD301      0.0000 
     41 C1'        51.6970   22.3030   -8.0270 C.3       1 FAD301      0.0000 
     42 C2'        52.5030   23.5140   -7.5600 C.3       1 FAD301      0.0000 
     43 O2'        52.0660   24.7070   -8.2160 O.3       1 FAD301      0.0000 
     44 C3'        53.9810   23.2640   -7.8560 C.3       1 FAD301      0.0000 
     45 O3'        54.5000   22.3370   -6.9030 O.3       1 FAD301      0.0000 
     46 C4'        54.8350   24.5310   -7.8500 C.3       1 FAD301      0.0000 
     47 O4'        55.2300   24.8210   -9.1930 O.3       1 FAD301      0.0000 
     48 C5'        56.0310   24.3620   -6.9370 C.3       1 FAD301      0.0000 
     49 O5'        56.3200   25.6110   -6.2790 O.3       1 FAD301      0.0000 
     50 P          57.8100   26.0840   -6.0640 P.3       1 FAD301      0.0000 
     51 O1P        57.6550   27.5510   -5.6360 O.co2     1 FAD301      0.0000 
     52 O2P        58.4790   25.0740   -5.1740 O.co2     1 FAD301      0.0000 
     53 O3P        58.4630   26.0180   -7.5590 O.3       1 FAD301      0.0000 
@<TRIPOS>BOND
     1    1    2 ar   
     2    1    3 ar   
     3    1    4 1    
     4    1   53 1    
     5    4    5 1    
     6    5    6 1    
     7    6    7 1    
     8    6    8 1    
     9    7   12 1    
    10    8    9 1    
    11    8   10 1    
    12   10   11 1    
    13   10   12 1    
    14   12   13 1    
    15   13   14 1    
    16   13   22 1    
    17   14   15 2    
    18   15   16 1    
    19   16   17 ar   
    20   16   22 ar   
    21   17   18 1    
    22   17   19 ar   
    23   19   20 ar   
    24   20   21 ar   
    25   21   22 ar   
    26   23   24 1    
    27   23   40 2    
    28   24   25 2    
    29   24   26 am   
    30   26   27 am   
    31   27   28 2    
    32   27   29 1    
    33   29   30 2    
    34   29   40 1    
    35   30   31 1    
    36   31   32 ar   
    37   31   38 ar   
    38   32   33 ar   
    39   33   34 1    
    40   33   35 ar   
    41   35   36 1    
    42   35   37 ar   
    43   37   38 ar   
    44   38   39 1    
    45   39   40 1    
    46   39   41 1    
    47   41   42 1    
    48   42   43 1    
    49   42   44 1    
    50   44   45 1    
    51   44   46 1    
    52   46   47 1    
    53   46   48 1    
    54   48   49 1    
    55   49   50 1    
    56   50   51 ar   
    57   50   52 ar   
    58   50   53 1    
@<TRIPOS>SUBSTRUCTURE
     1 FAD301      1 GROUP   
@<TRIPOS>SET
ATOM$ORANGE STATIC     ATOMS   COLORGROUP SYSTEM 
54 5 5 6 6 8 8 10 10 12 12 14 14 16 16 17 17 20 \
20 22 22 24 24 27 27 29 29 31 31 32 32 33 33 34 34 35 \
35 36 36 37 37 38 38 40 40 41 41 42 42 44 44 46 46 48 \
48 

