#    Name: 6k2l_1_FAD
#    Modification time : Fri May 22 19:26:29 2020

@<TRIPOS>MOLECULE
6k2l_1_FAD
   53    58     1     0     1
SMALL
NO_CHARGES


@<TRIPOS>ATOM
      1 PA          2.3520   26.1050   -1.6290 P.3       1 FAD301      0.0000 
      2 O1A         1.8010   27.2670   -2.3930 O.co2     1 FAD301      0.0000 
      3 O2A         3.2910   26.4520   -0.4660 O.co2     1 FAD301      0.0000 
      4 O5B         1.2310   25.1570   -0.9400 O.3       1 FAD301      0.0000 
      5 C5B         0.0690   24.7040   -1.6670 C.3       1 FAD301      0.0000 
      6 C4B        -0.5300   23.4510   -1.0610 C.3       1 FAD301      0.0000 
      7 O4B         0.2290   22.2890   -1.4660 O.3       1 FAD301      0.0000 
      8 C3B        -0.6100   23.3760    0.4620 C.3       1 FAD301      0.0000 
      9 O3B        -1.7940   22.6850    0.8560 O.3       1 FAD301      0.0000 
     10 C2B         0.6630   22.6020    0.8320 C.3       1 FAD301      0.0000 
     11 O2B         0.5890   21.8630    2.0490 O.3       1 FAD301      0.0000 
     12 C1B         0.7850   21.6320   -0.3380 C.3       1 FAD301      0.0000 
     13 N9A         2.1520   21.3200   -0.6740 N.pl3     1 FAD301      0.0000 
     14 C8A         3.2110   22.1920   -0.7070 C.2       1 FAD301      0.0000 
     15 N7A         4.3430   21.6440   -1.0850 N.2       1 FAD301      0.0000 
     16 C5A         3.9970   20.3220   -1.3290 C.ar      1 FAD301      0.0000 
     17 C6A         4.7460   19.2130   -1.7620 C.ar      1 FAD301      0.0000 
     18 N6A         6.0430   19.2760   -2.0690 N.pl3     1 FAD301      0.0000 
     19 N1A         4.0980   18.0270   -1.8930 N.ar      1 FAD301      0.0000 
     20 C2A         2.7950   17.9720   -1.6000 C.ar      1 FAD301      0.0000 
     21 N3A         1.9840   18.9570   -1.1940 N.ar      1 FAD301      0.0000 
     22 C4A         2.6490   20.1110   -1.0830 C.ar      1 FAD301      0.0000 
     23 N1         10.5830   21.5740   -1.5050 N.2       1 FAD301      0.0000 
     24 C2         11.0250   20.9820   -2.6540 C.2       1 FAD301      0.0000 
     25 O2         10.2460   20.5150   -3.4880 O.2       1 FAD301      0.0000 
     26 N3         12.3850   20.8820   -2.9010 N.am      1 FAD301      0.0000 
     27 C4         13.3920   21.3330   -2.0830 C.2       1 FAD301      0.0000 
     28 O4         14.5690   21.1930   -2.4160 O.2       1 FAD301      0.0000 
     29 C4X        12.9160   21.9750   -0.8700 C.2       1 FAD301      0.0000 
     30 N5         13.8190   22.4530   -0.0200 N.2       1 FAD301      0.0000 
     31 C5X        13.3640   23.0500    1.1290 C.ar      1 FAD301      0.0000 
     32 C6         14.2950   23.5330    2.0390 C.ar      1 FAD301      0.0000 
     33 C7         13.8930   24.1260    3.2330 C.ar      1 FAD301      0.0000 
     34 C7M        14.9390   24.6580    4.1800 C.3       1 FAD301      0.0000 
     35 C8         12.5190   24.2700    3.5070 C.ar      1 FAD301      0.0000 
     36 C8M        12.0390   24.9480    4.7670 C.3       1 FAD301      0.0000 
     37 C9         11.5850   23.8020    2.5880 C.ar      1 FAD301      0.0000 
     38 C9A        11.9930   23.1870    1.4120 C.ar      1 FAD301      0.0000 
     39 N10        11.0630   22.6680    0.4880 N.pl3     1 FAD301      0.0000 
     40 C10        11.4920   22.0410   -0.6650 C.2       1 FAD301      0.0000 
     41 C1'         9.6160   22.7550    0.7580 C.3       1 FAD301      0.0000 
     42 C2'         8.8640   23.7450   -0.1340 C.3       1 FAD301      0.0000 
     43 O2'         9.1700   25.1010    0.2050 O.3       1 FAD301      0.0000 
     44 C3'         7.3620   23.4980    0.0310 C.3       1 FAD301      0.0000 
     45 O3'         7.0330   22.2780   -0.6290 O.3       1 FAD301      0.0000 
     46 C4'         6.4690   24.6150   -0.5070 C.3       1 FAD301      0.0000 
     47 O4'         5.2180   24.5700    0.1850 O.3       1 FAD301      0.0000 
     48 C5'         6.2780   24.4980   -2.0040 C.3       1 FAD301      0.0000 
     49 O5'         5.5780   25.6610   -2.4830 O.3       1 FAD301      0.0000 
     50 P           4.3960   25.5410   -3.5220 P.3       1 FAD301      0.0000 
     51 O1P         4.1810   26.9570   -4.0720 O.co2     1 FAD301      0.0000 
     52 O2P         4.6420   24.5120   -4.5310 O.co2     1 FAD301      0.0000 
     53 O3P         3.1450   25.1370   -2.6120 O.3       1 FAD301      0.0000 
@<TRIPOS>BOND
     1    1    2 ar   
     2    1    3 ar   
     3    1    4 1    
     4    1   53 1    
     5    4    5 1    
     6    5    6 1    
     7    6    7 1    
     8    6    8 1    
     9    7   12 1    
    10    8    9 1    
    11    8   10 1    
    12   10   11 1    
    13   10   12 1    
    14   12   13 1    
    15   13   14 1    
    16   13   22 1    
    17   14   15 2    
    18   15   16 1    
    19   16   17 ar   
    20   16   22 ar   
    21   17   18 1    
    22   17   19 ar   
    23   19   20 ar   
    24   20   21 ar   
    25   21   22 ar   
    26   23   24 1    
    27   23   40 2    
    28   24   25 2    
    29   24   26 am   
    30   26   27 am   
    31   27   28 2    
    32   27   29 1    
    33   29   30 2    
    34   29   40 1    
    35   30   31 1    
    36   31   32 ar   
    37   31   38 ar   
    38   32   33 ar   
    39   33   34 1    
    40   33   35 ar   
    41   35   36 1    
    42   35   37 ar   
    43   37   38 ar   
    44   38   39 1    
    45   39   40 1    
    46   39   41 1    
    47   41   42 1    
    48   42   43 1    
    49   42   44 1    
    50   44   45 1    
    51   44   46 1    
    52   46   47 1    
    53   46   48 1    
    54   48   49 1    
    55   49   50 1    
    56   50   51 ar   
    57   50   52 ar   
    58   50   53 1    
@<TRIPOS>SUBSTRUCTURE
     1 FAD301      1 GROUP   
@<TRIPOS>SET
ATOM$ORANGE STATIC     ATOMS   COLORGROUP SYSTEM 
54 5 5 6 6 8 8 10 10 12 12 14 14 16 16 17 17 20 \
20 22 22 24 24 27 27 29 29 31 31 32 32 33 33 34 34 35 \
35 36 36 37 37 38 38 40 40 41 41 42 42 44 44 46 46 48 \
48 

