#    Name: 6e4e_1_MMV
#    Modification time : Fri May 22 19:24:05 2020

@<TRIPOS>MOLECULE
6e4e_1_MMV
   26    27     1     0     0
SMALL
NO_CHARGES


@<TRIPOS>ATOM
      1 C1         -4.4050   28.2090   -4.1560 C.ar      1 MMV202      0.0000 
      2 N2         -5.2830   27.2860   -3.7540 N.ar      1 MMV202      0.0000 
      3 C3         -6.4770   27.2330   -4.3640 C.ar      1 MMV202      0.0000 
      4 N4         -6.8330   28.0500   -5.3780 N.ar      1 MMV202      0.0000 
      5 C5         -5.9630   28.9870   -5.7880 C.ar      1 MMV202      0.0000 
      6 C6         -4.7150   29.0990   -5.1790 C.ar      1 MMV202      0.0000 
      7 N7         -3.2010   28.2780   -3.5290 N.pl3     1 MMV202      0.0000 
      8 N8         -7.3470   26.3040   -3.9550 N.pl3     1 MMV202      0.0000 
      9 C9         -6.4100   29.8880   -6.8860 C.3       1 MMV202      0.0000 
     10 C10        -7.5460   30.7800   -6.4170 C.3       1 MMV202      0.0000 
     11 O11        -3.7710   30.0210   -5.5630 O.3       1 MMV202      0.0000 
     12 C12        -3.7530   31.2730   -4.8590 C.3       1 MMV202      0.0000 
     13 C13        -2.4630   32.0010   -5.1540 C.3       1 MMV202      0.0000 
     14 C14        -2.3180   32.3830   -6.6040 C.3       1 MMV202      0.0000 
     15 O15        -3.5800   32.9540   -6.9770 O.3       1 MMV202      0.0000 
     16 C16        -3.6540   33.7000   -8.1250 C.ar      1 MMV202      0.0000 
     17 C17        -4.7490   34.5590   -8.2150 C.ar      1 MMV202      0.0000 
     18 C18        -4.8910   35.3410   -9.3600 C.ar      1 MMV202      0.0000 
     19 C19        -3.9660   35.2760  -10.3850 C.ar      1 MMV202      0.0000 
     20 C20        -2.8890   34.4230  -10.2840 C.ar      1 MMV202      0.0000 
     21 C21        -2.7240   33.6330   -9.1580 C.ar      1 MMV202      0.0000 
     22 C22        -5.7600   34.6240   -7.0850 C.3       1 MMV202      0.0000 
     23 C23        -6.6450   35.8550   -7.0870 C.3       1 MMV202      0.0000 
     24 C24        -7.8170   35.7310   -8.0470 C.2       1 MMV202      0.0000 
     25 O25        -8.6140   36.6970   -8.1410 O.co2     1 MMV202      0.0000 
     26 O26        -7.9380   34.6650   -8.6990 O.co2     1 MMV202      0.0000 
@<TRIPOS>BOND
     1    1    2 ar   
     2    1    6 ar   
     3    1    7 1    
     4    2    3 ar   
     5    3    4 ar   
     6    3    8 1    
     7    4    5 ar   
     8    5    6 ar   
     9    5    9 1    
    10    6   11 1    
    11    9   10 1    
    12   11   12 1    
    13   12   13 1    
    14   13   14 1    
    15   14   15 1    
    16   15   16 1    
    17   16   17 ar   
    18   16   21 ar   
    19   17   18 ar   
    20   17   22 1    
    21   18   19 ar   
    22   19   20 ar   
    23   20   21 ar   
    24   22   23 1    
    25   23   24 1    
    26   24   25 ar   
    27   24   26 ar   
@<TRIPOS>SUBSTRUCTURE
     1 MMV202      1 GROUP   
@<TRIPOS>SET

