#    Name: 5mru_1_TDC
#    Modification time : Fri May 22 19:21:13 2020

@<TRIPOS>MOLECULE
5mru_1_TDC
   31    34     1     0     0
SMALL
NO_CHARGES


@<TRIPOS>ATOM
      1 O12         0.6700   10.9260    8.5190 O.2       1 TDC301      0.0000 
      2 C12        -0.3200   10.3970    9.0970 C.2       1 TDC301      0.0000 
      3 C1B        -0.1220    9.5540   10.2980 C.ar      1 TDC301      0.0000 
      4 C11         1.1580    9.4100   10.8130 C.ar      1 TDC301      0.0000 
      5 O11         2.2430   10.0260   10.2080 O.co2     1 TDC301      0.0000 
      6 C1A         1.3840    8.6380   11.9390 C.ar      1 TDC301      0.0000 
      7 C10         2.6690    8.4970   12.4430 C.ar      1 TDC301      0.0000 
      8 O10         3.7770    9.0950   11.8620 O.3       1 TDC301      0.0000 
      9 C9          2.8890    7.6820   13.6440 C.ar      1 TDC301      0.0000 
     10 C8          1.8020    7.0800   14.2430 C.ar      1 TDC301      0.0000 
     11 C7          0.5370    7.2480   13.7050 C.ar      1 TDC301      0.0000 
     12 C61         0.3050    8.0120   12.5640 C.ar      1 TDC301      0.0000 
     13 C6         -0.9980    8.1670   12.0340 C.ar      1 TDC301      0.0000 
     14 C62        -2.2130    7.5290   12.6400 C.3       1 TDC301      0.0000 
     15 C51        -1.2150    8.9460   10.9020 C.ar      1 TDC301      0.0000 
     16 C5         -2.6140    9.0910   10.3310 C.3       1 TDC301      0.0000 
     17 C1C        -1.7320   10.6510    8.6500 C.3       1 TDC301      0.0000 
     18 C1         -2.3920   11.7070    9.5430 C.2       1 TDC301      0.0000 
     19 O1         -1.7250   12.2800   10.4010 O.2       1 TDC301      0.0000 
     20 O1C        -1.8040   10.9910    7.2870 O.3       1 TDC301      0.0000 
     21 C41        -2.5850    9.4340    8.8350 C.3       1 TDC301      0.0000 
     22 C4         -4.0420    9.6050    8.2970 C.3       1 TDC301      0.0000 
     23 N4         -4.3950    9.0790    6.9240 N.4       1 TDC301      0.0000 
     24 C43        -3.3340    9.2290    5.8890 C.3       1 TDC301      0.0000 
     25 C42        -4.6720    7.6110    7.0990 C.3       1 TDC301      0.0000 
     26 C3         -4.5770   11.0220    8.5520 C.2       1 TDC301      0.0000 
     27 O3         -5.7430   11.2120    8.2350 O.co2     1 TDC301      0.0000 
     28 C2         -3.7790   12.0080    9.2430 C.2       1 TDC301      0.0000 
     29 C21        -4.3500   13.3170    9.6000 C.2       1 TDC301      0.0000 
     30 O21        -5.5510   13.5520    9.3970 O.2       1 TDC301      0.0000 
     31 N21        -3.6290   14.2440   10.2670 N.am      1 TDC301      0.0000 
@<TRIPOS>BOND
     1    1    2 2    
     2    2    3 1    
     3    2   17 1    
     4    3    4 ar   
     5    3   15 ar   
     6    4    5 ar   
     7    4    6 ar   
     8    6    7 ar   
     9    6   12 ar   
    10    7    8 1    
    11    7    9 ar   
    12    9   10 ar   
    13   10   11 ar   
    14   11   12 ar   
    15   12   13 ar   
    16   13   14 1    
    17   13   15 ar   
    18   15   16 1    
    19   16   21 1    
    20   17   18 1    
    21   17   20 1    
    22   17   21 1    
    23   18   19 2    
    24   18   28 1    
    25   21   22 1    
    26   22   23 1    
    27   22   26 1    
    28   23   24 1    
    29   23   25 1    
    30   26   27 ar   
    31   26   28 2    
    32   28   29 1    
    33   29   30 2    
    34   29   31 am   
@<TRIPOS>SUBSTRUCTURE
     1 TDC301      1 GROUP   
@<TRIPOS>SET

