#    Name: 6mvh_3_FMN_CAVITY_N1_6
#    Modification time : Fri May 22 19:27:20 2020

@<TRIPOS>MOLECULE
6mvh_3_FMN_CAVITY_N1_6
   20     0     5     0     0
SMALL
NO_CHARGES


@<TRIPOS>ATOM
      1 OG         21.2400   65.0200   26.6000 O.3       1 SER1        0.0000 
      2 OG         21.2000   65.7100   28.6000 O.3       1 SER1        0.0000 
      3 OG         22.1800   66.3900   29.5100 O.3       1 SER1        0.0000 
      4 OG         23.6700   68.4100   28.8500 O.3       1 SER1        0.0000 
      5 OG         24.1700   67.0800   29.3200 O.3       1 SER1        0.0000 
      6 N          22.6500   68.4100   29.9500 N.am      2 ALA2        0.0000 
      7 N          22.6100   69.1000   31.9500 N.am      2 ALA2        0.0000 
      8 N          23.6300   69.1000   30.8600 N.am      2 ALA2        0.0000 
      9 N          25.1300   71.1200   30.2000 N.am      2 ALA2        0.0000 
     10 OD1        22.1500   69.7500   29.4800 O.co2     3 ASP3        0.0000 
     11 OD1        22.1000   70.4400   31.4800 O.co2     3 ASP3        0.0000 
     12 CZ         21.6500   71.0800   29.0100 C.ar      4 PHE5        0.0000 
     13 CZ         22.6300   71.7700   29.9200 C.ar      4 PHE5        0.0000 
     14 CZ         23.1300   70.4300   30.3900 C.ar      4 PHE5        0.0000 
     15 CZ         24.1500   70.4300   29.2900 C.ar      4 PHE5        0.0000 
     16 CZ         24.6500   69.1000   29.7600 C.ar      4 PHE5        0.0000 
     17 DU         23.0800   71.1200   32.3900 H         5 CUB7        0.0000 
     18 DU         24.1000   71.1200   31.3000 H         5 CUB7        0.0000 
     19 DU         24.5300   73.8300   33.7400 H         5 CUB7        0.0000 
     20 DU         25.0100   75.8500   34.1800 H         5 CUB7        0.0000 
@<TRIPOS>BOND
@<TRIPOS>SUBSTRUCTURE
     1 SER1        1 GROUP   
     2 ALA2        6 GROUP   
     3 ASP3       10 GROUP   
     4 PHE5       12 GROUP   
     5 CUB7       17 GROUP   
@<TRIPOS>SET

