#    Name: 6mvh_3_FMN_CAVITY_N1_12
#    Modification time : Fri May 22 19:27:20 2020

@<TRIPOS>MOLECULE
6mvh_3_FMN_CAVITY_N1_12
   96     0     7     0     0
SMALL
NO_CHARGES


@<TRIPOS>ATOM
      1 OG         21.2400   65.0200   26.6000 O.3       1 SER1        0.0000 
      2 OG         22.2700   65.0100   25.5000 O.3       1 SER1        0.0000 
      3 OG         22.7700   63.6800   25.9700 O.3       1 SER1        0.0000 
      4 OG         21.2000   65.7100   28.6000 O.3       1 SER1        0.0000 
      5 OG         22.7200   64.3700   27.9700 O.3       1 SER1        0.0000 
      6 OG         23.7400   64.3700   26.8800 O.3       1 SER1        0.0000 
      7 OG         22.1800   66.3900   29.5100 O.3       1 SER1        0.0000 
      8 OG         23.7000   65.0600   28.8800 O.3       1 SER1        0.0000 
      9 OG         24.7200   65.0500   27.7800 O.3       1 SER1        0.0000 
     10 OG         23.6700   68.4100   28.8500 O.3       1 SER1        0.0000 
     11 OG         24.1700   67.0800   29.3200 O.3       1 SER1        0.0000 
     12 OG         21.9700   72.5000   37.5000 O.3       1 SER1        0.0000 
     13 OG         22.9400   73.1900   38.4100 O.3       1 SER1        0.0000 
     14 O          21.7500   63.6800   27.0700 O.2       2 ALA2        0.0000 
     15 N          22.6500   68.4100   29.9500 N.am      2 ALA2        0.0000 
     16 N          24.6800   65.7400   29.7900 N.am      2 ALA2        0.0000 
     17 N          22.6100   69.1000   31.9500 N.am      2 ALA2        0.0000 
     18 N          23.6300   69.1000   30.8600 N.am      2 ALA2        0.0000 
     19 N          25.1500   67.7600   30.2300 N.am      2 ALA2        0.0000 
     20 N          25.6500   66.4300   30.7000 N.am      2 ALA2        0.0000 
     21 N          22.0600   71.1200   33.4900 N.am      2 ALA2        0.0000 
     22 O          23.5800   69.7900   32.8600 O.2       2 ALA2        0.0000 
     23 N          24.6000   69.7900   31.7700 N.am      2 ALA2        0.0000 
     24 N          25.1300   71.1200   30.2000 N.am      2 ALA2        0.0000 
     25 N          25.6300   69.7800   30.6700 N.am      2 ALA2        0.0000 
     26 N          26.1300   68.4500   31.1400 N.am      2 ALA2        0.0000 
     27 O          26.6300   67.1200   31.6100 O.2       2 ALA2        0.0000 
     28 O          27.6500   67.1100   30.5100 O.2       2 ALA2        0.0000 
     29 N          22.0100   71.8100   35.5000 N.am      2 ALA2        0.0000 
     30 N          23.0400   71.8100   34.4000 N.am      2 ALA2        0.0000 
     31 N          23.5400   70.4800   34.8700 N.am      2 ALA2        0.0000 
     32 N          25.0800   71.8100   32.2000 N.am      2 ALA2        0.0000 
     33 N          26.6000   70.4700   31.5800 N.am      2 ALA2        0.0000 
     34 N          28.1300   69.1300   30.9500 N.am      2 ALA2        0.0000 
     35 O          28.6300   67.8000   31.4200 O.2       2 ALA2        0.0000 
     36 N          23.4900   71.1700   36.8700 N.am      2 ALA2        0.0000 
     37 N          27.5800   71.1600   32.4800 N.am      2 ALA2        0.0000 
     38 N          29.1000   69.8200   31.8600 N.am      2 ALA2        0.0000 
     39 N          30.1300   69.8200   30.7600 N.am      2 ALA2        0.0000 
     40 N          30.6300   68.4800   31.2300 N.am      2 ALA2        0.0000 
     41 OD1        22.1500   69.7500   29.4800 O.co2     3 ASP3        0.0000 
     42 OD1        22.1000   70.4400   31.4800 O.co2     3 ASP3        0.0000 
     43 NZ         30.0800   70.5100   32.7600 N.4       4 LYS4        0.0000 
     44 NZ         27.5100   75.2000   34.4600 N.4       4 LYS4        0.0000 
     45 CZ         21.6500   71.0800   29.0100 C.ar      5 PHE5        0.0000 
     46 CZ         25.2000   67.0700   28.2200 C.ar      5 PHE5        0.0000 
     47 CZ         25.7000   65.7400   28.6900 C.ar      5 PHE5        0.0000 
     48 CZ         22.6300   71.7700   29.9200 C.ar      5 PHE5        0.0000 
     49 CZ         23.1300   70.4300   30.3900 C.ar      5 PHE5        0.0000 
     50 CZ         24.1500   70.4300   29.2900 C.ar      5 PHE5        0.0000 
     51 CZ         24.6500   69.1000   29.7600 C.ar      5 PHE5        0.0000 
     52 CA         21.2900   64.3300   24.5900 C.3       6 GLY6        0.0000 
     53 CA         21.7900   62.9900   25.0600 C.3       6 GLY6        0.0000 
     54 CA         21.7000   64.3700   29.0700 C.3       6 GLY6        0.0000 
     55 CA         24.5600   70.4800   33.7700 C.3       6 GLY6        0.0000 
     56 CA         25.5800   70.4700   32.6700 C.3       6 GLY6        0.0000 
     57 CA         27.1000   69.1400   32.0500 C.3       6 GLY6        0.0000 
     58 CA         27.6100   67.8000   32.5100 C.3       6 GLY6        0.0000 
     59 CA         22.4700   71.1700   37.9700 C.3       6 GLY6        0.0000 
     60 CA         24.5100   71.1600   35.7800 C.3       6 GLY6        0.0000 
     61 CA         25.5400   71.1600   34.6800 C.3       6 GLY6        0.0000 
     62 CA         26.0600   72.4900   33.1100 C.3       6 GLY6        0.0000 
     63 CA         26.5600   71.1600   33.5800 C.3       6 GLY6        0.0000 
     64 CA         28.0800   69.8200   32.9500 C.3       6 GLY6        0.0000 
     65 CA         29.6000   68.4900   32.3300 C.3       6 GLY6        0.0000 
     66 CA         23.4400   71.8600   38.8800 C.3       6 GLY6        0.0000 
     67 CA         24.4700   71.8500   37.7800 C.3       6 GLY6        0.0000 
     68 CA         25.4900   71.8500   36.6800 C.3       6 GLY6        0.0000 
     69 CA         26.0100   73.1800   35.1200 C.3       6 GLY6        0.0000 
     70 CA         26.5300   74.5100   33.5500 C.3       6 GLY6        0.0000 
     71 CA         27.0300   73.1800   34.0200 C.3       6 GLY6        0.0000 
     72 CA         27.5300   71.8500   34.4900 C.3       6 GLY6        0.0000 
     73 CA         25.4400   72.5400   38.6900 C.3       6 GLY6        0.0000 
     74 CA         26.4700   72.5400   37.5900 C.3       6 GLY6        0.0000 
     75 CA         25.9900   76.5400   35.0900 C.3       6 GLY6        0.0000 
     76 CA         27.4900   72.5300   36.5000 C.3       6 GLY6        0.0000 
     77 CA         28.0100   73.8700   34.9300 C.3       6 GLY6        0.0000 
     78 DU         26.6700   66.4300   29.6000 H         7 CUB7        0.0000 
     79 DU         23.0800   71.1200   32.3900 H         7 CUB7        0.0000 
     80 DU         24.1000   71.1200   31.3000 H         7 CUB7        0.0000 
     81 DU         24.0600   71.8100   33.3000 H         7 CUB7        0.0000 
     82 DU         29.6500   67.8000   30.3200 H         7 CUB7        0.0000 
     83 DU         22.9900   72.5000   36.4000 H         7 CUB7        0.0000 
     84 DU         24.0100   72.5000   35.3100 H         7 CUB7        0.0000 
     85 DU         24.5300   73.8300   33.7400 H         7 CUB7        0.0000 
     86 DU         25.0300   72.5000   34.2100 H         7 CUB7        0.0000 
     87 DU         23.9700   73.1900   37.3100 H         7 CUB7        0.0000 
     88 DU         24.9900   73.1800   36.2200 H         7 CUB7        0.0000 
     89 DU         25.0100   75.8500   34.1800 H         7 CUB7        0.0000 
     90 DU         25.5100   74.5200   34.6500 H         7 CUB7        0.0000 
     91 DU         24.9400   73.8700   38.2200 H         7 CUB7        0.0000 
     92 DU         24.9600   76.5400   36.1800 H         7 CUB7        0.0000 
     93 DU         25.4600   75.2000   36.6500 H         7 CUB7        0.0000 
     94 DU         25.9700   73.8700   37.1200 H         7 CUB7        0.0000 
     95 DU         26.4900   75.2000   35.5600 H         7 CUB7        0.0000 
     96 DU         26.9900   73.8700   36.0300 H         7 CUB7        0.0000 
@<TRIPOS>BOND
@<TRIPOS>SUBSTRUCTURE
     1 SER1        1 GROUP   
     2 ALA2       14 GROUP   
     3 ASP3       41 GROUP   
     4 LYS4       43 GROUP   
     5 PHE5       45 GROUP   
     6 GLY6       52 GROUP   
     7 CUB7       78 GROUP   
@<TRIPOS>SET

