#    Name: 6mvh_3_FMN_CAVITY_N1_4
#    Modification time : Fri May 22 19:27:20 2020

@<TRIPOS>MOLECULE
6mvh_3_FMN_CAVITY_N1_4
    3     0     2     0     0
SMALL
NO_CHARGES


@<TRIPOS>ATOM
      1 OD1        22.1500   69.7500   29.4800 O.co2     1 ASP3        0.0000 
      2 CZ         21.6500   71.0800   29.0100 C.ar      2 PHE5        0.0000 
      3 CZ         22.6300   71.7700   29.9200 C.ar      2 PHE5        0.0000 
@<TRIPOS>BOND
@<TRIPOS>SUBSTRUCTURE
     1 ASP3        1 GROUP   
     2 PHE5        2 GROUP   
@<TRIPOS>SET

