#    Name: 6mvh_3_FMN
#    Modification time : Fri May 22 19:27:19 2020

@<TRIPOS>MOLECULE
6mvh_3_FMN
   31    33     1     0     1
SMALL
NO_CHARGES


@<TRIPOS>ATOM
      1 N1         21.6950   76.2350   27.0740 N.2       1 FMN802      0.0000 
      2 C2         22.6140   76.5810   28.0610 C.2       1 FMN802      0.0000 
      3 O2         22.3290   76.4560   29.2490 O.2       1 FMN802      0.0000 
      4 N3         23.8620   77.0720   27.7300 N.am      1 FMN802      0.0000 
      5 C4         24.1990   77.2290   26.3970 C.2       1 FMN802      0.0000 
      6 O4         25.3100   77.6620   26.0850 O.2       1 FMN802      0.0000 
      7 C4A        23.2790   76.8950   25.3990 C.2       1 FMN802      0.0000 
      8 N5         23.6600   77.0570   24.0850 N.2       1 FMN802      0.0000 
      9 C5A        22.7750   76.7180   23.0830 C.ar      1 FMN802      0.0000 
     10 C6         23.1320   76.8710   21.7470 C.ar      1 FMN802      0.0000 
     11 C7         22.2330   76.5360   20.7430 C.ar      1 FMN802      0.0000 
     12 C7M        22.6400   76.7050   19.3100 C.3       1 FMN802      0.0000 
     13 C8         20.9730   76.0410   21.0690 C.ar      1 FMN802      0.0000 
     14 C8M        19.9750   75.6710   20.0050 C.3       1 FMN802      0.0000 
     15 C9         20.6260   75.8850   22.3970 C.ar      1 FMN802      0.0000 
     16 C9A        21.5160   76.2220   23.4030 C.ar      1 FMN802      0.0000 
     17 N10        21.1100   76.0760   24.7160 N.pl3     1 FMN802      0.0000 
     18 C10        22.0140   76.3840   25.7340 C.2       1 FMN802      0.0000 
     19 C1'        19.7290   75.4720   24.8690 C.3       1 FMN802      0.0000 
     20 C2'        18.6410   75.9620   25.8210 C.3       1 FMN802      0.0000 
     21 O2'        19.0890   76.8900   26.7910 O.3       1 FMN802      0.0000 
     22 C3'        18.0360   74.6700   26.4110 C.3       1 FMN802      0.0000 
     23 O3'        16.6460   74.6660   26.1520 O.3       1 FMN802      0.0000 
     24 C4'        18.3050   74.3820   27.9060 C.3       1 FMN802      0.0000 
     25 O4'        19.3050   75.2350   28.4450 O.3       1 FMN802      0.0000 
     26 C5'        18.7230   72.9300   28.1690 C.3       1 FMN802      0.0000 
     27 O5'        17.9610   72.0170   27.4090 O.3       1 FMN802      0.0000 
     28 P          18.4480   70.4890   27.1800 P.3       1 FMN802      0.0000 
     29 O1P        17.6270   69.5750   28.0550 O.co2     1 FMN802      0.0000 
     30 O2P        19.9200   70.3470   27.5230 O.co2     1 FMN802      0.0000 
     31 O3P        18.2030   70.0760   25.7440 O.co2     1 FMN802      0.0000 
@<TRIPOS>BOND
     1    1    2 1    
     2    1   18 2    
     3    2    3 2    
     4    2    4 am   
     5    4    5 am   
     6    5    6 2    
     7    5    7 1    
     8    7    8 2    
     9    7   18 1    
    10    8    9 1    
    11    9   10 ar   
    12    9   16 ar   
    13   10   11 ar   
    14   11   12 1    
    15   11   13 ar   
    16   13   14 1    
    17   13   15 ar   
    18   15   16 ar   
    19   16   17 1    
    20   17   18 1    
    21   17   19 1    
    22   19   20 1    
    23   20   21 1    
    24   20   22 1    
    25   22   23 1    
    26   22   24 1    
    27   24   25 1    
    28   24   26 1    
    29   26   27 1    
    30   27   28 1    
    31   28   29 ar   
    32   28   30 ar   
    33   28   31 ar   
@<TRIPOS>SUBSTRUCTURE
     1 FMN802      1 GROUP   
@<TRIPOS>SET
ATOM$ORANGE STATIC     ATOMS   COLORGROUP SYSTEM 
34 2 2 5 5 7 7 9 9 10 10 11 11 12 12 13 13 14 \
14 15 15 16 16 18 18 19 19 20 20 22 22 24 24 26 26 

