#    Name: 6mvh_3_FMN_CAVITY_N1_8
#    Modification time : Fri May 22 19:27:20 2020

@<TRIPOS>MOLECULE
6mvh_3_FMN_CAVITY_N1_8
   58     0     7     0     0
SMALL
NO_CHARGES


@<TRIPOS>ATOM
      1 OG         21.2400   65.0200   26.6000 O.3       1 SER1        0.0000 
      2 OG         22.2700   65.0100   25.5000 O.3       1 SER1        0.0000 
      3 OG         22.7700   63.6800   25.9700 O.3       1 SER1        0.0000 
      4 OG         21.2000   65.7100   28.6000 O.3       1 SER1        0.0000 
      5 OG         22.7200   64.3700   27.9700 O.3       1 SER1        0.0000 
      6 OG         23.7400   64.3700   26.8800 O.3       1 SER1        0.0000 
      7 OG         22.1800   66.3900   29.5100 O.3       1 SER1        0.0000 
      8 OG         23.7000   65.0600   28.8800 O.3       1 SER1        0.0000 
      9 OG         24.7200   65.0500   27.7800 O.3       1 SER1        0.0000 
     10 OG         23.6700   68.4100   28.8500 O.3       1 SER1        0.0000 
     11 OG         24.1700   67.0800   29.3200 O.3       1 SER1        0.0000 
     12 O          21.7500   63.6800   27.0700 O.2       2 ALA2        0.0000 
     13 N          22.6500   68.4100   29.9500 N.am      2 ALA2        0.0000 
     14 N          24.6800   65.7400   29.7900 N.am      2 ALA2        0.0000 
     15 N          22.6100   69.1000   31.9500 N.am      2 ALA2        0.0000 
     16 N          23.6300   69.1000   30.8600 N.am      2 ALA2        0.0000 
     17 N          25.1500   67.7600   30.2300 N.am      2 ALA2        0.0000 
     18 N          25.6500   66.4300   30.7000 N.am      2 ALA2        0.0000 
     19 N          22.0600   71.1200   33.4900 N.am      2 ALA2        0.0000 
     20 O          23.5800   69.7900   32.8600 O.2       2 ALA2        0.0000 
     21 N          24.6000   69.7900   31.7700 N.am      2 ALA2        0.0000 
     22 N          25.1300   71.1200   30.2000 N.am      2 ALA2        0.0000 
     23 N          25.6300   69.7800   30.6700 N.am      2 ALA2        0.0000 
     24 N          26.1300   68.4500   31.1400 N.am      2 ALA2        0.0000 
     25 N          22.0100   71.8100   35.5000 N.am      2 ALA2        0.0000 
     26 N          23.0400   71.8100   34.4000 N.am      2 ALA2        0.0000 
     27 N          25.0800   71.8100   32.2000 N.am      2 ALA2        0.0000 
     28 N          26.6000   70.4700   31.5800 N.am      2 ALA2        0.0000 
     29 OD1        22.1500   69.7500   29.4800 O.co2     3 ASP3        0.0000 
     30 OD1        22.1000   70.4400   31.4800 O.co2     3 ASP3        0.0000 
     31 NZ         27.5100   75.2000   34.4600 N.4       4 LYS4        0.0000 
     32 CZ         21.6500   71.0800   29.0100 C.ar      5 PHE5        0.0000 
     33 CZ         25.2000   67.0700   28.2200 C.ar      5 PHE5        0.0000 
     34 CZ         25.7000   65.7400   28.6900 C.ar      5 PHE5        0.0000 
     35 CZ         22.6300   71.7700   29.9200 C.ar      5 PHE5        0.0000 
     36 CZ         23.1300   70.4300   30.3900 C.ar      5 PHE5        0.0000 
     37 CZ         24.1500   70.4300   29.2900 C.ar      5 PHE5        0.0000 
     38 CZ         24.6500   69.1000   29.7600 C.ar      5 PHE5        0.0000 
     39 CA         21.2900   64.3300   24.5900 C.3       6 GLY6        0.0000 
     40 CA         21.7900   62.9900   25.0600 C.3       6 GLY6        0.0000 
     41 CA         21.7000   64.3700   29.0700 C.3       6 GLY6        0.0000 
     42 CA         24.5600   70.4800   33.7700 C.3       6 GLY6        0.0000 
     43 CA         25.5800   70.4700   32.6700 C.3       6 GLY6        0.0000 
     44 CA         26.0600   72.4900   33.1100 C.3       6 GLY6        0.0000 
     45 CA         26.0100   73.1800   35.1200 C.3       6 GLY6        0.0000 
     46 CA         26.5300   74.5100   33.5500 C.3       6 GLY6        0.0000 
     47 CA         27.0300   73.1800   34.0200 C.3       6 GLY6        0.0000 
     48 CA         25.9900   76.5400   35.0900 C.3       6 GLY6        0.0000 
     49 DU         23.0800   71.1200   32.3900 H         7 CUB7        0.0000 
     50 DU         24.1000   71.1200   31.3000 H         7 CUB7        0.0000 
     51 DU         24.0600   71.8100   33.3000 H         7 CUB7        0.0000 
     52 DU         24.0100   72.5000   35.3100 H         7 CUB7        0.0000 
     53 DU         24.5300   73.8300   33.7400 H         7 CUB7        0.0000 
     54 DU         25.0300   72.5000   34.2100 H         7 CUB7        0.0000 
     55 DU         25.0100   75.8500   34.1800 H         7 CUB7        0.0000 
     56 DU         25.5100   74.5200   34.6500 H         7 CUB7        0.0000 
     57 DU         24.9600   76.5400   36.1800 H         7 CUB7        0.0000 
     58 DU         26.4900   75.2000   35.5600 H         7 CUB7        0.0000 
@<TRIPOS>BOND
@<TRIPOS>SUBSTRUCTURE
     1 SER1        1 GROUP   
     2 ALA2       12 GROUP   
     3 ASP3       29 GROUP   
     4 LYS4       31 GROUP   
     5 PHE5       32 GROUP   
     6 GLY6       39 GROUP   
     7 CUB7       49 GROUP   
@<TRIPOS>SET

