#    Name: 6cgd_4_GNP
#    Modification time : Fri May 22 19:27:20 2020

@<TRIPOS>MOLECULE
6cgd_4_GNP
   32    34     1     0     1
SMALL
NO_CHARGES


@<TRIPOS>ATOM
      1 PG         71.0850   34.1670   40.3080 P.3       1 GNP500      0.0000 
      2 O1G        71.2480   35.3600   41.1230 O.co2     1 GNP500      0.0000 
      3 O2G        72.0850   34.1520   39.0800 O.co2     1 GNP500      0.0000 
      4 O3G        69.6070   34.1600   39.7650 O.co2     1 GNP500      0.0000 
      5 N3B        71.2970   32.7770   41.1430 N.3       1 GNP500      0.0000 
      6 PB         70.4510   31.3760   41.1280 P.3       1 GNP500      0.0000 
      7 O1B        69.5970   31.2420   42.2950 O.co2     1 GNP500      0.0000 
      8 O2B        69.5740   31.2590   39.8120 O.co2     1 GNP500      0.0000 
      9 O3A        71.4430   30.1230   41.2010 O.3       1 GNP500      0.0000 
     10 PA         72.5290   29.4960   40.2220 P.3       1 GNP500      0.0000 
     11 O1A        73.2100   30.5890   39.5060 O.co2     1 GNP500      0.0000 
     12 O2A        71.9000   28.4120   39.4510 O.co2     1 GNP500      0.0000 
     13 O5'        73.4410   28.8720   41.4450 O.3       1 GNP500      0.0000 
     14 C5'        74.0130   29.8180   42.3920 C.3       1 GNP500      0.0000 
     15 C4'        75.5090   29.6030   42.4530 C.3       1 GNP500      0.0000 
     16 O4'        75.7880   28.2480   42.8810 O.3       1 GNP500      0.0000 
     17 C3'        76.2160   29.7380   41.1060 C.3       1 GNP500      0.0000 
     18 O3'        76.5160   31.0960   40.7960 O.3       1 GNP500      0.0000 
     19 C2'        77.4520   28.8700   41.3120 C.3       1 GNP500      0.0000 
     20 O2'        78.4270   29.5500   42.0660 O.3       1 GNP500      0.0000 
     21 C1'        76.9000   27.7320   42.1720 C.3       1 GNP500      0.0000 
     22 N9         76.4740   26.5810   41.3760 N.pl3     1 GNP500      0.0000 
     23 C8         75.2170   26.1730   40.9790 C.2       1 GNP500      0.0000 
     24 N7         75.2210   25.0800   40.2330 N.2       1 GNP500      0.0000 
     25 C5         76.5580   24.7340   40.1430 C.2       1 GNP500      0.0000 
     26 C6         77.2380   23.6290   39.4800 C.2       1 GNP500      0.0000 
     27 O6         76.7490   22.6660   38.8710 O.2       1 GNP500      0.0000 
     28 N1         78.6130   23.7240   39.6200 N.am      1 GNP500      0.0000 
     29 C2         79.2860   24.6970   40.3230 C.2       1 GNP500      0.0000 
     30 N2         80.6040   24.5890   40.3710 N.pl3     1 GNP500      0.0000 
     31 N3         78.6890   25.7000   40.9690 N.2       1 GNP500      0.0000 
     32 C4         77.3490   25.6710   40.8400 C.2       1 GNP500      0.0000 
@<TRIPOS>BOND
     1    1    2 ar   
     2    1    3 ar   
     3    1    4 ar   
     4    1    5 1    
     5    5    6 1    
     6    6    7 ar   
     7    6    8 ar   
     8    6    9 1    
     9    9   10 1    
    10   10   11 ar   
    11   10   12 ar   
    12   10   13 1    
    13   13   14 1    
    14   14   15 1    
    15   15   16 1    
    16   15   17 1    
    17   16   21 1    
    18   17   18 1    
    19   17   19 1    
    20   19   20 1    
    21   19   21 1    
    22   21   22 1    
    23   22   23 1    
    24   22   32 1    
    25   23   24 2    
    26   24   25 1    
    27   25   26 1    
    28   25   32 2    
    29   26   27 2    
    30   26   28 am   
    31   28   29 1    
    32   29   30 1    
    33   29   31 2    
    34   31   32 1    
@<TRIPOS>SUBSTRUCTURE
     1 GNP500      1 GROUP   
@<TRIPOS>SET
ATOM$ORANGE STATIC     ATOMS   COLORGROUP SYSTEM 
20 14 14 15 15 17 17 19 19 21 21 23 23 25 25 26 26 29 \
29 32 32 

