#    Name: 6cgd_2_GNP
#    Modification time : Fri May 22 19:27:14 2020

@<TRIPOS>MOLECULE
6cgd_2_GNP
   32    34     1     0     1
SMALL
NO_CHARGES


@<TRIPOS>ATOM
      1 PG         43.1280    1.5200   20.9370 P.3       1 GNP500      0.0000 
      2 O1G        43.4180    0.1570   20.5160 O.co2     1 GNP500      0.0000 
      3 O2G        44.3100    2.0300   21.9220 O.co2     1 GNP500      0.0000 
      4 O3G        42.8960    2.4430   19.7660 O.co2     1 GNP500      0.0000 
      5 N3B        41.8240    1.6430   21.9250 N.3       1 GNP500      0.0000 
      6 PB         40.2300    1.7390   21.5810 P.3       1 GNP500      0.0000 
      7 O1B        39.8090    1.0150   20.3870 O.co2     1 GNP500      0.0000 
      8 O2B        39.4460    1.2320   22.7870 O.co2     1 GNP500      0.0000 
      9 O3A        39.8590    3.2910   21.3370 O.3       1 GNP500      0.0000 
     10 PA         38.7240    4.0000   20.4690 P.3       1 GNP500      0.0000 
     11 O1A        38.0000    3.0810   19.5770 O.co2     1 GNP500      0.0000 
     12 O2A        39.4790    5.0710   19.7860 O.co2     1 GNP500      0.0000 
     13 O5'        37.7920    4.5430   21.6630 O.3       1 GNP500      0.0000 
     14 C5'        37.1330    3.6080   22.5300 C.3       1 GNP500      0.0000 
     15 C4'        35.6480    3.9180   22.5750 C.3       1 GNP500      0.0000 
     16 O4'        35.4320    5.2910   23.0110 O.3       1 GNP500      0.0000 
     17 C3'        34.9240    3.8260   21.2620 C.3       1 GNP500      0.0000 
     18 O3'        34.4820    2.5200   20.9790 O.3       1 GNP500      0.0000 
     19 C2'        33.7040    4.7180   21.5180 C.3       1 GNP500      0.0000 
     20 O2'        32.7680    4.0060   22.2900 O.3       1 GNP500      0.0000 
     21 C1'        34.2910    5.8270   22.3850 C.3       1 GNP500      0.0000 
     22 N9         34.7010    6.9960   21.6210 N.pl3     1 GNP500      0.0000 
     23 C8         35.9750    7.3480   21.2620 C.2       1 GNP500      0.0000 
     24 N7         36.0280    8.4600   20.5780 N.2       1 GNP500      0.0000 
     25 C5         34.7050    8.8670   20.4720 C.2       1 GNP500      0.0000 
     26 C6         34.0920   10.0290   19.8080 C.2       1 GNP500      0.0000 
     27 O6         34.6590   10.9690   19.2820 O.2       1 GNP500      0.0000 
     28 N1         32.7230   10.0260   19.9000 N.am      1 GNP500      0.0000 
     29 C2         31.9880    9.0960   20.5810 C.2       1 GNP500      0.0000 
     30 N2         30.6800    9.2540   20.5570 N.pl3     1 GNP500      0.0000 
     31 N3         32.5230    8.0490   21.2250 N.2       1 GNP500      0.0000 
     32 C4         33.8770    7.9880   21.1120 C.2       1 GNP500      0.0000 
@<TRIPOS>BOND
     1    1    2 ar   
     2    1    3 ar   
     3    1    4 ar   
     4    1    5 1    
     5    5    6 1    
     6    6    7 ar   
     7    6    8 ar   
     8    6    9 1    
     9    9   10 1    
    10   10   11 ar   
    11   10   12 ar   
    12   10   13 1    
    13   13   14 1    
    14   14   15 1    
    15   15   16 1    
    16   15   17 1    
    17   16   21 1    
    18   17   18 1    
    19   17   19 1    
    20   19   20 1    
    21   19   21 1    
    22   21   22 1    
    23   22   23 1    
    24   22   32 1    
    25   23   24 2    
    26   24   25 1    
    27   25   26 1    
    28   25   32 2    
    29   26   27 2    
    30   26   28 am   
    31   28   29 1    
    32   29   30 1    
    33   29   31 2    
    34   31   32 1    
@<TRIPOS>SUBSTRUCTURE
     1 GNP500      1 GROUP   
@<TRIPOS>SET
ATOM$ORANGE STATIC     ATOMS   COLORGROUP SYSTEM 
20 14 14 15 15 17 17 19 19 21 21 23 23 25 25 26 26 29 \
29 32 32 

