#    Name: 6alj_1_NAD
#    Modification time : Fri May 22 19:33:08 2020

@<TRIPOS>MOLECULE
6alj_1_NAD
   44    48     1     0     1
SMALL
NO_CHARGES


@<TRIPOS>ATOM
      1 PA        435.7570 -133.8220  141.9840 P.3       1 NAD601      0.0000 
      2 O1A       435.7750 -132.9200  143.2060 O.co2     1 NAD601      0.0000 
      3 O2A       434.4460 -133.7780  141.2600 O.co2     1 NAD601      0.0000 
      4 O5B       436.9490 -133.1640  141.0720 O.3       1 NAD601      0.0000 
      5 C5B       436.8490 -132.9670  139.6480 C.3       1 NAD601      0.0000 
      6 C4B       437.3740 -131.5450  139.2310 C.3       1 NAD601      0.0000 
      7 O4B       436.5000 -130.6930  139.6610 O.3       1 NAD601      0.0000 
      8 C3B       438.7130 -131.1160  139.8130 C.3       1 NAD601      0.0000 
      9 O3B       439.4160 -130.4110  138.8440 O.3       1 NAD601      0.0000 
     10 C2B       438.2450 -130.2270  141.0080 C.3       1 NAD601      0.0000 
     11 O2B       439.3320 -129.2780  141.3150 O.3       1 NAD601      0.0000 
     12 C1B       437.2010 -129.5830  140.5720 C.3       1 NAD601      0.0000 
     13 N9A       436.2980 -129.1050  141.5880 N.pl3     1 NAD601      0.0000 
     14 C8A       436.1400 -129.5690  142.8500 C.2       1 NAD601      0.0000 
     15 N7A       435.2290 -128.7950  143.4930 N.2       1 NAD601      0.0000 
     16 C5A       434.8230 -127.8370  142.6270 C.ar      1 NAD601      0.0000 
     17 C6A       433.9170 -126.8040  142.7520 C.ar      1 NAD601      0.0000 
     18 N6A       433.1420 -126.5120  143.9080 N.pl3     1 NAD601      0.0000 
     19 N1A       433.6640 -125.9780  141.7310 N.ar      1 NAD601      0.0000 
     20 C2A       434.3310 -126.1680  140.5710 C.ar      1 NAD601      0.0000 
     21 N3A       435.2390 -127.1660  140.4370 N.ar      1 NAD601      0.0000 
     22 C4A       435.4860 -128.0150  141.4730 C.ar      1 NAD601      0.0000 
     23 O3        436.0120 -135.3810  142.3170 O.3       1 NAD601      0.0000 
     24 PN        436.8910 -136.0790  143.5000 P.3       1 NAD601      0.0000 
     25 O1N       436.5130 -135.5490  144.8850 O.co2     1 NAD601      0.0000 
     26 O2N       438.3790 -135.9180  143.2570 O.co2     1 NAD601      0.0000 
     27 O5D       436.5420 -137.6310  143.4660 O.3       1 NAD601      0.0000 
     28 C5D       435.4350 -138.1130  144.2200 C.3       1 NAD601      0.0000 
     29 C4D       434.6230 -139.0590  143.3210 C.3       1 NAD601      0.0000 
     30 O4D       434.2390 -138.4060  142.2380 O.3       1 NAD601      0.0000 
     31 C3D       435.4640 -140.2210  142.8040 C.3       1 NAD601      0.0000 
     32 O3D       435.5240 -141.2250  143.7380 O.3       1 NAD601      0.0000 
     33 C2D       434.6340 -140.5980  141.5390 C.3       1 NAD601      0.0000 
     34 O2D       433.5540 -141.4890  142.0340 O.3       1 NAD601      0.0000 
     35 C1D       434.1460 -139.4680  141.0470 C.3       1 NAD601      0.0000 
     36 N1N       434.9590 -139.0220  139.9340 N.pl3     1 NAD601      0.0000 
     37 C2N       434.4760 -139.1710  138.6530 C.ar      1 NAD601      0.0000 
     38 C3N       435.2950 -138.7760  137.6010 C.ar      1 NAD601      0.0000 
     39 C7N       434.7970 -138.9180  136.1460 C.2       1 NAD601      0.0000 
     40 O7N       433.6450 -138.6790  135.8210 O.2       1 NAD601      0.0000 
     41 N7N       435.7800 -139.3510  135.2020 N.am      1 NAD601      0.0000 
     42 C4N       436.5560 -138.2600  137.8120 C.ar      1 NAD601      0.0000 
     43 C5N       437.0490 -138.0990  139.0970 C.ar      1 NAD601      0.0000 
     44 C6N       436.2220 -138.4920  140.1520 C.ar      1 NAD601      0.0000 
@<TRIPOS>BOND
     1    1    2 ar   
     2    1    3 ar   
     3    1    4 1    
     4    1   23 1    
     5    4    5 1    
     6    5    6 1    
     7    6    7 1    
     8    6    8 1    
     9    7   12 1    
    10    8    9 1    
    11    8   10 1    
    12   10   11 1    
    13   10   12 1    
    14   12   13 1    
    15   13   14 1    
    16   13   22 1    
    17   14   15 2    
    18   15   16 1    
    19   16   17 ar   
    20   16   22 ar   
    21   17   18 1    
    22   17   19 ar   
    23   19   20 ar   
    24   20   21 ar   
    25   21   22 ar   
    26   23   24 1    
    27   24   25 ar   
    28   24   26 ar   
    29   24   27 1    
    30   27   28 1    
    31   28   29 1    
    32   29   30 1    
    33   29   31 1    
    34   30   35 1    
    35   31   32 1    
    36   31   33 1    
    37   33   34 1    
    38   33   35 1    
    39   35   36 1    
    40   36   37 ar   
    41   36   44 ar   
    42   37   38 ar   
    43   38   39 1    
    44   38   42 ar   
    45   39   40 2    
    46   39   41 am   
    47   42   43 ar   
    48   43   44 ar   
@<TRIPOS>SUBSTRUCTURE
     1 NAD601      1 GROUP   
@<TRIPOS>SET
ATOM$ORANGE STATIC     ATOMS   COLORGROUP SYSTEM 
42 5 5 6 6 8 8 10 10 12 12 14 14 16 16 17 17 20 \
20 22 22 28 28 29 29 31 31 33 33 35 35 37 37 38 38 39 \
39 42 42 43 43 44 44 

