#    Name: 6alj_3_NAD
#    Modification time : Fri May 22 19:33:21 2020

@<TRIPOS>MOLECULE
6alj_3_NAD
   44    48     1     0     1
SMALL
NO_CHARGES


@<TRIPOS>ATOM
      1 PA        440.6170 -134.0660   75.0120 P.3       1 NAD602      0.0000 
      2 O1A       439.1860 -134.1700   75.5000 O.co2     1 NAD602      0.0000 
      3 O2A       440.8910 -134.8890   73.7730 O.co2     1 NAD602      0.0000 
      4 O5B       441.6740 -134.6510   76.1150 O.3       1 NAD602      0.0000 
      5 C5B       441.3910 -134.7780   77.5190 C.3       1 NAD602      0.0000 
      6 C4B       441.8390 -136.2040   78.0150 C.3       1 NAD602      0.0000 
      7 O4B       441.0720 -137.0780   77.4170 O.3       1 NAD602      0.0000 
      8 C3B       443.2690 -136.5850   77.6460 C.3       1 NAD602      0.0000 
      9 O3B       443.8940 -137.2560   78.6860 O.3       1 NAD602      0.0000 
     10 C2B       443.0460 -137.4890   76.3940 C.3       1 NAD602      0.0000 
     11 O2B       444.2240 -138.3870   76.2540 O.3       1 NAD602      0.0000 
     12 C1B       441.9660 -138.1520   76.6460 C.3       1 NAD602      0.0000 
     13 N9A       441.2600 -138.6740   75.5010 N.pl3     1 NAD602      0.0000 
     14 C8A       441.2770 -138.2110   74.2230 C.2       1 NAD602      0.0000 
     15 N7A       440.4960 -138.9980   73.4510 N.2       1 NAD602      0.0000 
     16 C5A       439.9910 -139.9710   74.2480 C.ar      1 NAD602      0.0000 
     17 C6A       439.1510 -141.0320   73.9930 C.ar      1 NAD602      0.0000 
     18 N6A       438.6050 -141.3290   72.7270 N.pl3     1 NAD602      0.0000 
     19 N1A       438.7540 -141.8790   74.9560 N.ar      1 NAD602      0.0000 
     20 C2A       439.2110 -141.6780   76.2090 C.ar      1 NAD602      0.0000 
     21 N3A       440.0500 -140.6470   76.4780 N.ar      1 NAD602      0.0000 
     22 C4A       440.4470 -139.7770   75.5000 C.ar      1 NAD602      0.0000 
     23 O3        440.9250 -132.4930   74.7900 O.3       1 NAD602      0.0000 
     24 PN        441.8940 -131.7050   73.7380 P.3       1 NAD602      0.0000 
     25 O1N       441.7220 -132.1440   72.2890 O.co2     1 NAD602      0.0000 
     26 O2N       443.3390 -131.7900   74.1710 O.co2     1 NAD602      0.0000 
     27 O5D       441.4400 -130.1700   73.8100 O.3       1 NAD602      0.0000 
     28 C5D       440.5050 -129.6990   72.8470 C.3       1 NAD602      0.0000 
     29 C4D       439.5130 -128.7730   73.5710 C.3       1 NAD602      0.0000 
     30 O4D       438.9840 -129.4550   74.5780 O.3       1 NAD602      0.0000 
     31 C3D       440.2540 -127.6170   74.2300 C.3       1 NAD602      0.0000 
     32 O3D       440.4830 -126.5910   73.3520 O.3       1 NAD602      0.0000 
     33 C2D       439.2200 -127.2630   75.3400 C.3       1 NAD602      0.0000 
     34 O2D       438.1520 -126.4610   74.6730 O.3       1 NAD602      0.0000 
     35 C1D       438.7530 -128.4210   75.7620 C.3       1 NAD602      0.0000 
     36 N1N       439.4340 -128.8310   76.9650 N.pl3     1 NAD602      0.0000 
     37 C2N       438.7380 -128.7130   78.1490 C.ar      1 NAD602      0.0000 
     38 C3N       439.3630 -129.0620   79.3390 C.ar      1 NAD602      0.0000 
     39 C7N       438.5930 -128.9600   80.6750 C.2       1 NAD602      0.0000 
     40 O7N       437.4180 -129.3000   80.8170 O.2       1 NAD602      0.0000 
     41 N7N       439.3680 -128.4410   81.7530 N.am      1 NAD602      0.0000 
     42 C4N       440.6800 -129.4670   79.3720 C.ar      1 NAD602      0.0000 
     43 C5N       441.3860 -129.5750   78.1860 C.ar      1 NAD602      0.0000 
     44 C6N       440.7500 -129.2430   76.9740 C.ar      1 NAD602      0.0000 
@<TRIPOS>BOND
     1    1    2 ar   
     2    1    3 ar   
     3    1    4 1    
     4    1   23 1    
     5    4    5 1    
     6    5    6 1    
     7    6    7 1    
     8    6    8 1    
     9    7   12 1    
    10    8    9 1    
    11    8   10 1    
    12   10   11 1    
    13   10   12 1    
    14   12   13 1    
    15   13   14 1    
    16   13   22 1    
    17   14   15 2    
    18   15   16 1    
    19   16   17 ar   
    20   16   22 ar   
    21   17   18 1    
    22   17   19 ar   
    23   19   20 ar   
    24   20   21 ar   
    25   21   22 ar   
    26   23   24 1    
    27   24   25 ar   
    28   24   26 ar   
    29   24   27 1    
    30   27   28 1    
    31   28   29 1    
    32   29   30 1    
    33   29   31 1    
    34   30   35 1    
    35   31   32 1    
    36   31   33 1    
    37   33   34 1    
    38   33   35 1    
    39   35   36 1    
    40   36   37 ar   
    41   36   44 ar   
    42   37   38 ar   
    43   38   39 1    
    44   38   42 ar   
    45   39   40 2    
    46   39   41 am   
    47   42   43 ar   
    48   43   44 ar   
@<TRIPOS>SUBSTRUCTURE
     1 NAD602      1 GROUP   
@<TRIPOS>SET
ATOM$ORANGE STATIC     ATOMS   COLORGROUP SYSTEM 
42 5 5 6 6 8 8 10 10 12 12 14 14 16 16 17 17 20 \
20 22 22 28 28 29 29 31 31 33 33 35 35 37 37 38 38 39 \
39 42 42 43 43 44 44 

