#    Name: 6alj_2_NAD
#    Modification time : Fri May 22 19:33:15 2020

@<TRIPOS>MOLECULE
6alj_2_NAD
   44    48     1     0     1
SMALL
NO_CHARGES


@<TRIPOS>ATOM
      1 PA        407.3610 -115.4620  134.1130 P.3       1 NAD601      0.0000 
      2 O1A       408.7700 -115.8270  133.7130 O.co2     1 NAD601      0.0000 
      3 O2A       407.1710 -115.3820  135.6130 O.co2     1 NAD601      0.0000 
      4 O5B       406.2830 -116.5910  133.6620 O.3       1 NAD601      0.0000 
      5 C5B       406.5160 -117.4620  132.5510 C.3       1 NAD601      0.0000 
      6 C4B       406.0360 -118.9140  132.8970 C.3       1 NAD601      0.0000 
      7 O4B       406.7870 -119.4040  133.8500 O.3       1 NAD601      0.0000 
      8 C3B       404.6020 -118.9430  133.4190 C.3       1 NAD601      0.0000 
      9 O3B       403.9910 -120.0750  132.9660 O.3       1 NAD601      0.0000 
     10 C2B       404.8120 -119.0360  134.9480 C.3       1 NAD601      0.0000 
     11 O2B       403.5990 -119.6530  135.5330 O.3       1 NAD601      0.0000 
     12 C1B       405.8460 -119.8130  135.0850 C.3       1 NAD601      0.0000 
     13 N9A       406.5760 -119.5670  136.2900 N.pl3     1 NAD601      0.0000 
     14 C8A       406.5930 -118.4110  137.0060 C.2       1 NAD601      0.0000 
     15 N7A       407.3990 -118.5940  138.0850 N.2       1 NAD601      0.0000 
     16 C5A       407.8980 -119.8550  138.0140 C.ar      1 NAD601      0.0000 
     17 C6A       408.7590 -120.5430  138.8440 C.ar      1 NAD601      0.0000 
     18 N6A       409.3480 -120.0060  140.0370 N.pl3     1 NAD601      0.0000 
     19 N1A       409.1060 -121.8130  138.5470 N.ar      1 NAD601      0.0000 
     20 C2A       408.6100 -122.4110  137.4340 C.ar      1 NAD601      0.0000 
     21 N3A       407.7460 -121.7400  136.6230 N.ar      1 NAD601      0.0000 
     22 C4A       407.3900 -120.4570  136.9150 C.ar      1 NAD601      0.0000 
     23 O3        407.1210 -114.0510  133.4100 O.3       1 NAD601      0.0000 
     24 PN        406.1250 -112.8790  133.8730 P.3       1 NAD601      0.0000 
     25 O1N       406.3430 -112.5100  135.3370 O.co2     1 NAD601      0.0000 
     26 O2N       404.7080 -113.3290  133.6210 O.co2     1 NAD601      0.0000 
     27 O5D       406.4550 -111.6030  132.9920 O.3       1 NAD601      0.0000 
     28 C5D       407.3950 -110.6720  133.5290 C.3       1 NAD601      0.0000 
     29 C4D       408.4070 -110.3510  132.4180 C.3       1 NAD601      0.0000 
     30 O4D       408.8940 -111.4880  131.9440 O.3       1 NAD601      0.0000 
     31 C3D       407.6990 -109.7200  131.2290 C.3       1 NAD601      0.0000 
     32 O3D       407.5370 -108.3760  131.4100 O.3       1 NAD601      0.0000 
     33 C2D       408.7040 -110.0810  130.1000 C.3       1 NAD601      0.0000 
     34 O2D       409.7670 -109.0500  130.1110 O.3       1 NAD601      0.0000 
     35 C1D       409.1900 -111.2730  130.3860 C.3       1 NAD601      0.0000 
     36 N1N       408.5380 -112.3030  129.5960 N.pl3     1 NAD601      0.0000 
     37 C2N       409.1900 -112.8710  128.5080 C.ar      1 NAD601      0.0000 
     38 C3N       408.5260 -113.8410  127.7390 C.ar      1 NAD601      0.0000 
     39 C7N       409.2210 -114.5160  126.5310 C.2       1 NAD601      0.0000 
     40 O7N       410.3570 -114.9620  126.5930 O.2       1 NAD601      0.0000 
     41 N7N       408.4660 -114.6310  125.3300 N.am      1 NAD601      0.0000 
     42 C4N       407.2360 -114.2240  128.0320 C.ar      1 NAD601      0.0000 
     43 C5N       406.5810 -113.6610  129.1160 C.ar      1 NAD601      0.0000 
     44 C6N       407.2540 -112.7070  129.8930 C.ar      1 NAD601      0.0000 
@<TRIPOS>BOND
     1    1    2 ar   
     2    1    3 ar   
     3    1    4 1    
     4    1   23 1    
     5    4    5 1    
     6    5    6 1    
     7    6    7 1    
     8    6    8 1    
     9    7   12 1    
    10    8    9 1    
    11    8   10 1    
    12   10   11 1    
    13   10   12 1    
    14   12   13 1    
    15   13   14 1    
    16   13   22 1    
    17   14   15 2    
    18   15   16 1    
    19   16   17 ar   
    20   16   22 ar   
    21   17   18 1    
    22   17   19 ar   
    23   19   20 ar   
    24   20   21 ar   
    25   21   22 ar   
    26   23   24 1    
    27   24   25 ar   
    28   24   26 ar   
    29   24   27 1    
    30   27   28 1    
    31   28   29 1    
    32   29   30 1    
    33   29   31 1    
    34   30   35 1    
    35   31   32 1    
    36   31   33 1    
    37   33   34 1    
    38   33   35 1    
    39   35   36 1    
    40   36   37 ar   
    41   36   44 ar   
    42   37   38 ar   
    43   38   39 1    
    44   38   42 ar   
    45   39   40 2    
    46   39   41 am   
    47   42   43 ar   
    48   43   44 ar   
@<TRIPOS>SUBSTRUCTURE
     1 NAD601      1 GROUP   
@<TRIPOS>SET
ATOM$ORANGE STATIC     ATOMS   COLORGROUP SYSTEM 
42 5 5 6 6 8 8 10 10 12 12 14 14 16 16 17 17 20 \
20 22 22 28 28 29 29 31 31 33 33 35 35 37 37 38 38 39 \
39 42 42 43 43 44 44 

