#    Name: 6qyi_1_FAD
#    Modification time : Fri May 22 19:39:59 2020

@<TRIPOS>MOLECULE
6qyi_1_FAD
   53    58     1     0     1
SMALL
NO_CHARGES


@<TRIPOS>ATOM
      1 PA         76.6570  -18.5550  -33.3110 P.3       1 FAD601      0.0000 
      2 O1A        76.2410  -17.8530  -32.0780 O.co2     1 FAD601      0.0000 
      3 O2A        75.5100  -19.3210  -33.9530 O.co2     1 FAD601      0.0000 
      4 O5B        77.3380  -17.5560  -34.3730 O.3       1 FAD601      0.0000 
      5 C5B        77.4980  -17.8590  -35.7710 C.3       1 FAD601      0.0000 
      6 C4B        77.2760  -16.5660  -36.5300 C.3       1 FAD601      0.0000 
      7 O4B        75.8840  -16.1870  -36.4460 O.3       1 FAD601      0.0000 
      8 C3B        78.0700  -15.3400  -36.0700 C.3       1 FAD601      0.0000 
      9 O3B        78.3970  -14.4960  -37.1720 O.3       1 FAD601      0.0000 
     10 C2B        77.0810  -14.6300  -35.1430 C.3       1 FAD601      0.0000 
     11 O2B        77.2880  -13.2300  -34.9980 O.3       1 FAD601      0.0000 
     12 C1B        75.7650  -14.9030  -35.8620 C.3       1 FAD601      0.0000 
     13 N9A        74.6010  -14.8840  -34.9860 N.pl3     1 FAD601      0.0000 
     14 C8A        74.1260  -15.8980  -34.1940 C.2       1 FAD601      0.0000 
     15 N7A        73.0680  -15.5750  -33.4900 N.2       1 FAD601      0.0000 
     16 C5A        72.8300  -14.2550  -33.8400 C.ar      1 FAD601      0.0000 
     17 C6A        71.8360  -13.3330  -33.4520 C.ar      1 FAD601      0.0000 
     18 N6A        70.8370  -13.6260  -32.6140 N.pl3     1 FAD601      0.0000 
     19 N1A        71.8720  -12.0980  -34.0080 N.ar      1 FAD601      0.0000 
     20 C2A        72.8250  -11.8220  -34.9080 C.ar      1 FAD601      0.0000 
     21 N3A        73.8090  -12.6110  -35.3540 N.ar      1 FAD601      0.0000 
     22 C4A        73.7630  -13.8180  -34.7680 C.ar      1 FAD601      0.0000 
     23 N1         80.0430  -25.4030  -26.0190 N.2       1 FAD601      0.0000 
     24 C2         79.7400  -26.0320  -24.8370 C.2       1 FAD601      0.0000 
     25 O2         78.6600  -25.8500  -24.2680 O.2       1 FAD601      0.0000 
     26 N3         80.6300  -26.9360  -24.2770 N.am      1 FAD601      0.0000 
     27 C4         81.8320  -27.3410  -24.8320 C.2       1 FAD601      0.0000 
     28 O4         82.4960  -28.2130  -24.2690 O.2       1 FAD601      0.0000 
     29 C4X        82.1450  -26.6740  -26.1270 C.2       1 FAD601      0.0000 
     30 N5         83.2370  -27.0310  -26.7660 N.2       1 FAD601      0.0000 
     31 C5X        83.4820  -26.4580  -28.0190 C.ar      1 FAD601      0.0000 
     32 C6         84.5720  -26.9150  -28.7770 C.ar      1 FAD601      0.0000 
     33 C7         84.8280  -26.4200  -30.0560 C.ar      1 FAD601      0.0000 
     34 C7M        85.9460  -27.0180  -30.8770 C.3       1 FAD601      0.0000 
     35 C8         83.9890  -25.4090  -30.5850 C.ar      1 FAD601      0.0000 
     36 C8M        84.2420  -24.7960  -31.9430 C.3       1 FAD601      0.0000 
     37 C9         82.9050  -24.9650  -29.8350 C.ar      1 FAD601      0.0000 
     38 C9A        82.6300  -25.4850  -28.5700 C.ar      1 FAD601      0.0000 
     39 N10        81.4650  -25.1200  -27.8320 N.pl3     1 FAD601      0.0000 
     40 C10        81.1850  -25.7060  -26.6290 C.2       1 FAD601      0.0000 
     41 C1'        80.5300  -24.1180  -28.3830 C.3       1 FAD601      0.0000 
     42 C2'        81.0460  -22.6810  -28.3720 C.3       1 FAD601      0.0000 
     43 O2'        80.8710  -22.1080  -27.0730 O.3       1 FAD601      0.0000 
     44 C3'        80.2760  -21.8640  -29.4100 C.3       1 FAD601      0.0000 
     45 O3'        80.7000  -22.2830  -30.7040 O.3       1 FAD601      0.0000 
     46 C4'        80.3250  -20.3400  -29.3000 C.3       1 FAD601      0.0000 
     47 O4'        79.6480  -19.9690  -28.0970 O.3       1 FAD601      0.0000 
     48 C5'        79.7110  -19.6400  -30.4930 C.3       1 FAD601      0.0000 
     49 O5'        78.3170  -20.0020  -30.5210 O.3       1 FAD601      0.0000 
     50 P          77.8100  -20.7420  -31.8600 P.3       1 FAD601      0.0000 
     51 O1P        78.6380  -21.8570  -32.3490 O.co2     1 FAD601      0.0000 
     52 O2P        76.3780  -21.1630  -31.6210 O.co2     1 FAD601      0.0000 
     53 O3P        77.8130  -19.5880  -32.9640 O.3       1 FAD601      0.0000 
@<TRIPOS>BOND
     1    1    2 ar   
     2    1    3 ar   
     3    1    4 1    
     4    1   53 1    
     5    4    5 1    
     6    5    6 1    
     7    6    7 1    
     8    6    8 1    
     9    7   12 1    
    10    8    9 1    
    11    8   10 1    
    12   10   11 1    
    13   10   12 1    
    14   12   13 1    
    15   13   14 1    
    16   13   22 1    
    17   14   15 2    
    18   15   16 1    
    19   16   17 ar   
    20   16   22 ar   
    21   17   18 1    
    22   17   19 ar   
    23   19   20 ar   
    24   20   21 ar   
    25   21   22 ar   
    26   23   24 1    
    27   23   40 2    
    28   24   25 2    
    29   24   26 am   
    30   26   27 am   
    31   27   28 2    
    32   27   29 1    
    33   29   30 2    
    34   29   40 1    
    35   30   31 1    
    36   31   32 ar   
    37   31   38 ar   
    38   32   33 ar   
    39   33   34 1    
    40   33   35 ar   
    41   35   36 1    
    42   35   37 ar   
    43   37   38 ar   
    44   38   39 1    
    45   39   40 1    
    46   39   41 1    
    47   41   42 1    
    48   42   43 1    
    49   42   44 1    
    50   44   45 1    
    51   44   46 1    
    52   46   47 1    
    53   46   48 1    
    54   48   49 1    
    55   49   50 1    
    56   50   51 ar   
    57   50   52 ar   
    58   50   53 1    
@<TRIPOS>SUBSTRUCTURE
     1 FAD601      1 GROUP   
@<TRIPOS>SET
ATOM$ORANGE STATIC     ATOMS   COLORGROUP SYSTEM 
54 5 5 6 6 8 8 10 10 12 12 14 14 16 16 17 17 20 \
20 22 22 24 24 27 27 29 29 31 31 32 32 33 33 34 34 35 \
35 36 36 37 37 38 38 40 40 41 41 42 42 44 44 46 46 48 \
48 

