#    Name: 6qyi_2_FAD
#    Modification time : Fri May 22 19:40:08 2020

@<TRIPOS>MOLECULE
6qyi_2_FAD
   53    58     1     0     1
SMALL
NO_CHARGES


@<TRIPOS>ATOM
      1 PA        113.0190    4.3490  -40.0180 P.3       1 FAD601      0.0000 
      2 O1A       113.8440    3.6380  -39.0110 O.co2     1 FAD601      0.0000 
      3 O2A       113.8780    5.1180  -41.0020 O.co2     1 FAD601      0.0000 
      4 O5B       111.9750    3.3500  -40.7320 O.3       1 FAD601      0.0000 
      5 C5B       111.3490    3.6860  -41.9890 C.3       1 FAD601      0.0000 
      6 C4B       111.3080    2.4120  -42.8070 C.3       1 FAD601      0.0000 
      7 O4B       112.6580    2.0460  -43.1840 O.3       1 FAD601      0.0000 
      8 C3B       110.7280    1.1870  -42.0910 C.3       1 FAD601      0.0000 
      9 O3B       110.0130    0.3230  -42.9660 O.3       1 FAD601      0.0000 
     10 C2B       111.9780    0.4960  -41.5500 C.3       1 FAD601      0.0000 
     11 O2B       111.8280   -0.8850  -41.2630 O.3       1 FAD601      0.0000 
     12 C1B       112.9610    0.7510  -42.6880 C.3       1 FAD601      0.0000 
     13 N9A       114.3580    0.7120  -42.2690 N.pl3     1 FAD601      0.0000 
     14 C8A       115.0650    1.7330  -41.6850 C.2       1 FAD601      0.0000 
     15 N7A       116.3020    1.4190  -41.3770 N.2       1 FAD601      0.0000 
     16 C5A       116.4160    0.0970  -41.7780 C.ar      1 FAD601      0.0000 
     17 C6A       117.4850   -0.8270  -41.7240 C.ar      1 FAD601      0.0000 
     18 N6A       118.6980   -0.5300  -41.2480 N.pl3     1 FAD601      0.0000 
     19 N1A       117.2680   -2.0730  -42.2130 N.ar      1 FAD601      0.0000 
     20 C2A       116.0650   -2.3640  -42.7230 C.ar      1 FAD601      0.0000 
     21 N3A       114.9870   -1.5800  -42.8250 N.ar      1 FAD601      0.0000 
     22 C4A       115.2260   -0.3540  -42.3330 C.ar      1 FAD601      0.0000 
     23 N1        112.4140   11.0570  -31.9950 N.2       1 FAD601      0.0000 
     24 C2        113.1140   11.6510  -30.9620 C.2       1 FAD601      0.0000 
     25 O2        114.3100   11.4130  -30.7750 O.2       1 FAD601      0.0000 
     26 N3        112.4800   12.5580  -30.1190 N.am      1 FAD601      0.0000 
     27 C4        111.1610   12.9780  -30.2230 C.2       1 FAD601      0.0000 
     28 O4        110.7170   13.8110  -29.4330 O.2       1 FAD601      0.0000 
     29 C4X       110.4180   12.3550  -31.3450 C.2       1 FAD601      0.0000 
     30 N5        109.1690   12.7170  -31.5450 N.2       1 FAD601      0.0000 
     31 C5X       108.4950   12.1650  -32.6430 C.ar      1 FAD601      0.0000 
     32 C6        107.2190   12.6470  -32.9670 C.ar      1 FAD601      0.0000 
     33 C7        106.5370   12.1990  -34.0970 C.ar      1 FAD601      0.0000 
     34 C7M       105.1890   12.7910  -34.4300 C.3       1 FAD601      0.0000 
     35 C8        107.1380   11.2190  -34.9250 C.ar      1 FAD601      0.0000 
     36 C8M       106.4240   10.6450  -36.1270 C.3       1 FAD601      0.0000 
     37 C9        108.4040   10.7430  -34.6030 C.ar      1 FAD601      0.0000 
     38 C9A       109.0950   11.2050  -33.4830 C.ar      1 FAD601      0.0000 
     39 N10       110.4420   10.8240  -33.2110 N.pl3     1 FAD601      0.0000 
     40 C10       111.1360   11.3910  -32.1740 C.2       1 FAD601      0.0000 
     41 C1'       111.0860    9.8270  -34.0890 C.3       1 FAD601      0.0000 
     42 C2'       110.5770    8.4040  -33.8930 C.3       1 FAD601      0.0000 
     43 O2'       111.1290    7.8650  -32.6890 O.3       1 FAD601      0.0000 
     44 C3'       110.9260    7.5690  -35.1260 C.3       1 FAD601      0.0000 
     45 O3'       110.0360    7.9580  -36.1690 O.3       1 FAD601      0.0000 
     46 C4'       110.9370    6.0440  -35.0090 C.3       1 FAD601      0.0000 
     47 O4'       111.9520    5.6880  -34.0690 O.3       1 FAD601      0.0000 
     48 C5'       111.1760    5.3340  -36.3250 C.3       1 FAD601      0.0000 
     49 O5'       112.4620    5.7690  -36.8160 O.3       1 FAD601      0.0000 
     50 P         112.4870    6.5340  -38.2380 P.3       1 FAD601      0.0000 
     51 O1P       111.5360    7.6480  -38.4040 O.co2     1 FAD601      0.0000 
     52 O2P       113.9110    6.9500  -38.5010 O.co2     1 FAD601      0.0000 
     53 O3P       112.0830    5.4080  -39.2950 O.3       1 FAD601      0.0000 
@<TRIPOS>BOND
     1    1    2 ar   
     2    1    3 ar   
     3    1    4 1    
     4    1   53 1    
     5    4    5 1    
     6    5    6 1    
     7    6    7 1    
     8    6    8 1    
     9    7   12 1    
    10    8    9 1    
    11    8   10 1    
    12   10   11 1    
    13   10   12 1    
    14   12   13 1    
    15   13   14 1    
    16   13   22 1    
    17   14   15 2    
    18   15   16 1    
    19   16   17 ar   
    20   16   22 ar   
    21   17   18 1    
    22   17   19 ar   
    23   19   20 ar   
    24   20   21 ar   
    25   21   22 ar   
    26   23   24 1    
    27   23   40 2    
    28   24   25 2    
    29   24   26 am   
    30   26   27 am   
    31   27   28 2    
    32   27   29 1    
    33   29   30 2    
    34   29   40 1    
    35   30   31 1    
    36   31   32 ar   
    37   31   38 ar   
    38   32   33 ar   
    39   33   34 1    
    40   33   35 ar   
    41   35   36 1    
    42   35   37 ar   
    43   37   38 ar   
    44   38   39 1    
    45   39   40 1    
    46   39   41 1    
    47   41   42 1    
    48   42   43 1    
    49   42   44 1    
    50   44   45 1    
    51   44   46 1    
    52   46   47 1    
    53   46   48 1    
    54   48   49 1    
    55   49   50 1    
    56   50   51 ar   
    57   50   52 ar   
    58   50   53 1    
@<TRIPOS>SUBSTRUCTURE
     1 FAD601      1 GROUP   
@<TRIPOS>SET
ATOM$ORANGE STATIC     ATOMS   COLORGROUP SYSTEM 
54 5 5 6 6 8 8 10 10 12 12 14 14 16 16 17 17 20 \
20 22 22 24 24 27 27 29 29 31 31 32 32 33 33 34 34 35 \
35 36 36 37 37 38 38 40 40 41 41 42 42 44 44 46 46 48 \
48 

