#    Name: 5o31_1_FMN
#    Modification time : Fri May 22 19:13:11 2020

@<TRIPOS>MOLECULE
5o31_1_FMN
   31    33     1     0     1
SMALL
NO_CHARGES


@<TRIPOS>ATOM
      1 N1        272.7260  178.8540  344.2030 N.2       1 FMN501      0.0000 
      2 C2        273.4170  178.8070  345.3760 C.2       1 FMN501      0.0000 
      3 O2        274.3270  177.9640  345.5020 O.2       1 FMN501      0.0000 
      4 N3        273.1570  179.6360  346.4080 N.am      1 FMN501      0.0000 
      5 C4        272.1940  180.5690  346.3490 C.2       1 FMN501      0.0000 
      6 O4        271.9820  181.3200  347.3250 O.2       1 FMN501      0.0000 
      7 C4A       271.3900  180.6860  345.1000 C.2       1 FMN501      0.0000 
      8 N5        270.4030  181.6030  344.9680 N.2       1 FMN501      0.0000 
      9 C5A       269.6810  181.7040  343.8260 C.ar      1 FMN501      0.0000 
     10 C6        268.6750  182.6700  343.7470 C.ar      1 FMN501      0.0000 
     11 C7        267.9080  182.8030  342.5880 C.ar      1 FMN501      0.0000 
     12 C7M       266.8330  183.8630  342.5530 C.3       1 FMN501      0.0000 
     13 C8        268.1710  181.8960  341.4210 C.ar      1 FMN501      0.0000 
     14 C8M       267.3780  181.9840  340.1400 C.3       1 FMN501      0.0000 
     15 C9        269.1770  180.9320  341.5040 C.ar      1 FMN501      0.0000 
     16 C9A       269.9540  180.7890  342.6630 C.ar      1 FMN501      0.0000 
     17 N10       270.9920  179.8120  342.7720 N.pl3     1 FMN501      0.0000 
     18 C10       271.7220  179.7450  343.9910 C.2       1 FMN501      0.0000 
     19 C1'       271.3120  178.8800  341.6670 C.3       1 FMN501      0.0000 
     20 C2'       272.3640  179.4840  340.7300 C.3       1 FMN501      0.0000 
     21 O2'       271.8850  179.4760  339.3750 O.3       1 FMN501      0.0000 
     22 C3'       273.7630  178.8480  340.8690 C.3       1 FMN501      0.0000 
     23 O3'       274.7390  179.8200  340.4680 O.3       1 FMN501      0.0000 
     24 C4'       274.0600  177.5300  340.1240 C.3       1 FMN501      0.0000 
     25 O4'       273.1970  177.2950  339.0000 O.3       1 FMN501      0.0000 
     26 C5'       274.0000  176.3350  341.0700 C.3       1 FMN501      0.0000 
     27 O5'       274.3950  175.1570  340.3660 O.3       1 FMN501      0.0000 
     28 P         274.0680  173.6760  340.9180 P.3       1 FMN501      0.0000 
     29 O1P       272.5620  173.6330  341.0470 O.co2     1 FMN501      0.0000 
     30 O2P       274.6190  172.7720  339.8410 O.co2     1 FMN501      0.0000 
     31 O3P       274.8100  173.5920  342.2310 O.co2     1 FMN501      0.0000 
@<TRIPOS>BOND
     1    1    2 1    
     2    1   18 2    
     3    2    3 2    
     4    2    4 am   
     5    4    5 am   
     6    5    6 2    
     7    5    7 1    
     8    7    8 2    
     9    7   18 1    
    10    8    9 1    
    11    9   10 ar   
    12    9   16 ar   
    13   10   11 ar   
    14   11   12 1    
    15   11   13 ar   
    16   13   14 1    
    17   13   15 ar   
    18   15   16 ar   
    19   16   17 1    
    20   17   18 1    
    21   17   19 1    
    22   19   20 1    
    23   20   21 1    
    24   20   22 1    
    25   22   23 1    
    26   22   24 1    
    27   24   25 1    
    28   24   26 1    
    29   26   27 1    
    30   27   28 1    
    31   28   29 ar   
    32   28   30 ar   
    33   28   31 ar   
@<TRIPOS>SUBSTRUCTURE
     1 FMN501      1 GROUP   
@<TRIPOS>SET
ATOM$ORANGE STATIC     ATOMS   COLORGROUP SYSTEM 
34 2 2 5 5 7 7 9 9 10 10 11 11 12 12 13 13 14 \
14 15 15 16 16 18 18 19 19 20 20 22 22 24 24 26 26 

