#    Name: 5o31_2_NAP
#    Modification time : Fri May 22 19:13:20 2020

@<TRIPOS>MOLECULE
5o31_2_NAP
   48    52     1     0     1
SMALL
NO_CHARGES


@<TRIPOS>ATOM
      1 PA        264.9980  273.9910  299.1420 P.3       1 NAP501      0.0000 
      2 O1A       264.5320  273.2130  297.9350 O.co2     1 NAP501      0.0000 
      3 O2A       264.8700  275.4960  299.1530 O.co2     1 NAP501      0.0000 
      4 O5B       264.2380  273.3940  300.4330 O.3       1 NAP501      0.0000 
      5 C5B       264.5560  273.8360  301.7530 C.3       1 NAP501      0.0000 
      6 C4B       263.8700  272.9460  302.7870 C.3       1 NAP501      0.0000 
      7 O4B       264.5550  273.0440  304.0410 O.3       1 NAP501      0.0000 
      8 C3B       262.4250  273.3640  303.0190 C.3       1 NAP501      0.0000 
      9 O3B       261.5620  272.2370  302.8230 O.3       1 NAP501      0.0000 
     10 C2B       262.3600  273.8850  304.4470 C.3       1 NAP501      0.0000 
     11 O2B       261.3000  273.2990  305.2060 O.3       1 NAP501      0.0000 
     12 C1B       263.7070  273.5560  305.0770 C.3       1 NAP501      0.0000 
     13 N9A       264.2900  274.7840  305.6860 N.pl3     1 NAP501      0.0000 
     14 C8A       265.1200  275.6560  305.0790 C.2       1 NAP501      0.0000 
     15 N7A       265.4700  276.6710  305.9090 N.2       1 NAP501      0.0000 
     16 C5A       264.8540  276.4580  307.0850 C.ar      1 NAP501      0.0000 
     17 C6A       264.7850  277.1430  308.4040 C.ar      1 NAP501      0.0000 
     18 N6A       265.4670  278.2910  308.6310 N.pl3     1 NAP501      0.0000 
     19 N1A       264.0170  276.5820  309.3750 N.ar      1 NAP501      0.0000 
     20 C2A       263.3280  275.4370  309.1710 C.ar      1 NAP501      0.0000 
     21 N3A       263.3470  274.7650  307.9990 N.ar      1 NAP501      0.0000 
     22 C4A       264.0760  275.2120  306.9370 C.ar      1 NAP501      0.0000 
     23 O3        266.5380  273.6090  299.4300 O.3       1 NAP501      0.0000 
     24 PN        267.6610  273.6930  298.2800 P.3       1 NAP501      0.0000 
     25 O1N       267.7820  275.1350  297.8470 O.co2     1 NAP501      0.0000 
     26 O2N       267.3840  272.6200  297.2540 O.co2     1 NAP501      0.0000 
     27 O5D       268.9970  273.2840  299.0810 O.3       1 NAP501      0.0000 
     28 C5D       270.2600  273.2930  298.4160 C.3       1 NAP501      0.0000 
     29 C4D       271.3450  273.9920  299.2380 C.3       1 NAP501      0.0000 
     30 O4D       272.5330  274.0990  298.4440 O.3       1 NAP501      0.0000 
     31 C3D       270.9620  275.4020  299.6720 C.3       1 NAP501      0.0000 
     32 O3D       270.9950  275.4830  301.1010 O.3       1 NAP501      0.0000 
     33 C2D       271.9590  276.3480  299.0170 C.3       1 NAP501      0.0000 
     34 O2D       272.6730  277.1370  299.9750 O.3       1 NAP501      0.0000 
     35 C1D       272.9320  275.4630  298.2430 C.3       1 NAP501      0.0000 
     36 N1N       272.9810  275.8140  296.8080 N.pl3     1 NAP501      0.0000 
     37 C2N       271.9900  275.4530  295.9560 C.ar      1 NAP501      0.0000 
     38 C3N       272.0490  275.7890  294.6010 C.ar      1 NAP501      0.0000 
     39 C7N       270.9390  275.3830  293.6780 C.2       1 NAP501      0.0000 
     40 O7N       269.8500  275.9240  293.7790 O.2       1 NAP501      0.0000 
     41 N7N       271.1730  274.4360  292.7710 N.am      1 NAP501      0.0000 
     42 C4N       273.1480  276.5040  294.1180 C.ar      1 NAP501      0.0000 
     43 C5N       274.1630  276.8660  295.0070 C.ar      1 NAP501      0.0000 
     44 C6N       274.0510  276.5030  296.3550 C.ar      1 NAP501      0.0000 
     45 P2B       260.0510  274.1670  305.7500 P.3       1 NAP501      0.0000 
     46 O1X       259.3130  274.5900  304.5000 O.co2     1 NAP501      0.0000 
     47 O2X       259.2900  273.1880  306.6110 O.co2     1 NAP501      0.0000 
     48 O3X       260.6650  275.3100  306.5280 O.co2     1 NAP501      0.0000 
@<TRIPOS>BOND
     1    1    2 ar   
     2    1    3 ar   
     3    1    4 1    
     4    1   23 1    
     5    4    5 1    
     6    5    6 1    
     7    6    7 1    
     8    6    8 1    
     9    7   12 1    
    10    8    9 1    
    11    8   10 1    
    12   10   11 1    
    13   10   12 1    
    14   11   45 1    
    15   12   13 1    
    16   13   14 1    
    17   13   22 1    
    18   14   15 2    
    19   15   16 1    
    20   16   17 ar   
    21   16   22 ar   
    22   17   18 1    
    23   17   19 ar   
    24   19   20 ar   
    25   20   21 ar   
    26   21   22 ar   
    27   23   24 1    
    28   24   25 ar   
    29   24   26 ar   
    30   24   27 1    
    31   27   28 1    
    32   28   29 1    
    33   29   30 1    
    34   29   31 1    
    35   30   35 1    
    36   31   32 1    
    37   31   33 1    
    38   33   34 1    
    39   33   35 1    
    40   35   36 1    
    41   36   37 ar   
    42   36   44 ar   
    43   37   38 ar   
    44   38   39 1    
    45   38   42 ar   
    46   39   40 2    
    47   39   41 am   
    48   42   43 ar   
    49   43   44 ar   
    50   45   46 ar   
    51   45   47 ar   
    52   45   48 ar   
@<TRIPOS>SUBSTRUCTURE
     1 NAP501      1 GROUP   
@<TRIPOS>SET
ATOM$ORANGE STATIC     ATOMS   COLORGROUP SYSTEM 
42 5 5 6 6 8 8 10 10 12 12 14 14 16 16 17 17 20 \
20 22 22 28 28 29 29 31 31 33 33 35 35 37 37 38 38 39 \
39 42 42 43 43 44 44 

