#    Name: 5oaj_2_TKT_CAVITY_N1_8
#    Modification time : Fri May 22 19:13:06 2020

@<TRIPOS>MOLECULE
5oaj_2_TKT_CAVITY_N1_8
   70     0     6     0     0
SMALL
NO_CHARGES


@<TRIPOS>ATOM
      1 OG         30.9000   20.2000  115.3000 O.3       1 SER1        0.0000 
      2 OG         29.7600   20.7200  116.1300 O.3       1 SER1        0.0000 
      3 OG         30.8800   23.8500  115.6900 O.3       1 SER1        0.0000 
      4 OG         31.8800   20.7100  116.3200 O.3       1 SER1        0.0000 
      5 OG         30.7400   21.2300  117.1500 O.3       1 SER1        0.0000 
      6 OG         29.6000   21.7500  117.9700 O.3       1 SER1        0.0000 
      7 OG         28.3800   20.9600  119.5200 O.3       1 SER1        0.0000 
      8 OG         30.7100   24.8900  117.5400 O.3       1 SER1        0.0000 
      9 OG         31.7100   21.7500  118.1700 O.3       1 SER1        0.0000 
     10 OG         30.4900   20.9600  119.7200 O.3       1 SER1        0.0000 
     11 N          26.5600   26.2100  116.4200 N.am      2 ALA2        0.0000 
     12 N          26.4900   24.9000  117.1400 N.am      2 ALA2        0.0000 
     13 N          28.7000   22.5500  116.2200 N.am      2 ALA2        0.0000 
     14 N          27.5600   23.0700  117.0500 N.am      2 ALA2        0.0000 
     15 N          29.7400   24.3700  116.5200 N.am      2 ALA2        0.0000 
     16 N          28.6000   24.8900  117.3400 N.am      2 ALA2        0.0000 
     17 N          27.4600   25.4100  118.1700 N.am      2 ALA2        0.0000 
     18 N          31.7800   23.0600  117.4400 N.am      2 ALA2        0.0000 
     19 N          30.6400   23.5800  118.2700 N.am      2 ALA2        0.0000 
     20 N          29.5000   24.1000  119.0900 N.am      2 ALA2        0.0000 
     21 N          28.3600   24.6200  119.9100 N.am      2 ALA2        0.0000 
     22 N          30.5700   22.2700  118.9900 N.am      2 ALA2        0.0000 
     23 N          29.4300   22.7900  119.8200 N.am      2 ALA2        0.0000 
     24 N          32.7500   23.5700  118.4600 N.am      2 ALA2        0.0000 
     25 N          32.6800   22.2600  119.1900 N.am      2 ALA2        0.0000 
     26 N          31.5400   22.7800  120.0100 N.am      2 ALA2        0.0000 
     27 N          34.8600   23.5600  118.6600 N.am      2 ALA2        0.0000 
     28 N          33.6500   22.7700  120.2100 N.am      2 ALA2        0.0000 
     29 N          33.5800   21.4600  120.9400 N.am      2 ALA2        0.0000 
     30 N          35.7600   22.7600  120.4100 N.am      2 ALA2        0.0000 
     31 N          34.5500   21.9800  121.9600 N.am      2 ALA2        0.0000 
     32 OD1        35.6200   20.1400  121.8600 O.co2     3 ASP3        0.0000 
     33 OD1        34.4800   20.6700  122.6900 O.co2     3 ASP3        0.0000 
     34 CZ         25.3500   25.4200  117.9700 C.ar      4 PHE5        0.0000 
     35 CZ         26.4100   23.5900  117.8700 C.ar      4 PHE5        0.0000 
     36 CZ         25.2700   24.1100  118.7000 C.ar      4 PHE5        0.0000 
     37 CZ         28.6700   26.2000  116.6100 C.ar      4 PHE5        0.0000 
     38 CZ         27.5300   26.7200  117.4400 C.ar      4 PHE5        0.0000 
     39 CZ         26.3200   25.9300  118.9900 C.ar      4 PHE5        0.0000 
     40 CZ         26.2500   24.6200  119.7200 C.ar      4 PHE5        0.0000 
     41 CZ         27.3100   22.7900  119.6200 C.ar      4 PHE5        0.0000 
     42 CZ         28.5000   27.2400  118.4600 C.ar      4 PHE5        0.0000 
     43 CZ         29.5700   25.4100  118.3600 C.ar      4 PHE5        0.0000 
     44 CZ         28.4300   25.9300  119.1900 C.ar      4 PHE5        0.0000 
     45 CZ         27.2200   25.1400  120.7400 C.ar      4 PHE5        0.0000 
     46 CZ         28.2900   23.3100  120.6400 C.ar      4 PHE5        0.0000 
     47 CZ         29.3500   21.4800  120.5400 C.ar      4 PHE5        0.0000 
     48 CA         28.8600   21.5200  114.3800 C.3       5 GLY6        0.0000 
     49 CA         29.9100   23.3400  114.6700 C.3       5 GLY6        0.0000 
     50 CA         30.9800   21.5100  114.5800 C.3       5 GLY6        0.0000 
     51 CA         29.8400   22.0300  115.4000 C.3       5 GLY6        0.0000 
     52 CA         27.4800   21.7600  117.7800 C.3       5 GLY6        0.0000 
     53 CA         31.9500   22.0200  115.6000 C.3       5 GLY6        0.0000 
     54 CA         28.4500   22.2700  118.8000 C.3       5 GLY6        0.0000 
     55 CA         32.8500   21.2200  117.3500 C.3       5 GLY6        0.0000 
     56 CA         33.8200   21.7400  118.3700 C.3       5 GLY6        0.0000 
     57 CA         33.7500   20.4300  119.0900 C.3       5 GLY6        0.0000 
     58 CA         32.6100   20.9500  119.9200 C.3       5 GLY6        0.0000 
     59 CA         31.4700   21.4700  120.7400 C.3       5 GLY6        0.0000 
     60 CA         30.3300   21.9900  121.5700 C.3       5 GLY6        0.0000 
     61 CA         34.7900   22.2500  119.3900 C.3       5 GLY6        0.0000 
     62 CA         34.7200   20.9400  120.1100 C.3       5 GLY6        0.0000 
     63 CA         32.4400   21.9800  121.7600 C.3       5 GLY6        0.0000 
     64 CA         32.3700   20.6700  122.4900 C.3       5 GLY6        0.0000 
     65 CA         36.9000   22.2400  119.5800 C.3       5 GLY6        0.0000 
     66 CA         36.8300   20.9300  120.3100 C.3       5 GLY6        0.0000 
     67 CA         35.6900   21.4500  121.1400 C.3       5 GLY6        0.0000 
     68 DU         30.8100   22.5400  116.4200 H         6 CUB7        0.0000 
     69 DU         28.5300   23.5800  118.0700 H         6 CUB7        0.0000 
     70 DU         27.3900   24.1000  118.8900 H         6 CUB7        0.0000 
@<TRIPOS>BOND
@<TRIPOS>SUBSTRUCTURE
     1 SER1        1 GROUP   
     2 ALA2       11 GROUP   
     3 ASP3       32 GROUP   
     4 PHE5       34 GROUP   
     5 GLY6       48 GROUP   
     6 CUB7       68 GROUP   
@<TRIPOS>SET

