#    Name: 5oaj_2_TKT
#    Modification time : Fri May 22 19:13:04 2020

@<TRIPOS>MOLECULE
5oaj_2_TKT
   21    24     1     0     0
SMALL
NO_CHARGES


@<TRIPOS>ATOM
      1 C12        30.7390   21.5850  120.0740 C.2       1 TKT302      0.0000 
      2 O4         31.5330   22.5180  118.0300 O.2       1 TKT302      0.0000 
      3 C8         26.3830   26.7210  117.0440 C.3       1 TKT302      0.0000 
      4 C9         30.6060   22.3030  118.7910 C.2       1 TKT302      0.0000 
      5 C11        29.6870   21.2750  120.9010 C.2       1 TKT302      0.0000 
      6 O3         29.2950   22.7240  118.6200 O.3       1 TKT302      0.0000 
      7 C7         28.1630   25.4130  119.1480 C.3       1 TKT302      0.0000 
      8 C6         26.9030   24.5080  119.1510 C.3       1 TKT302      0.0000 
      9 N1         27.1620   25.4900  116.9820 N.4       1 TKT302      0.0000 
     10 C5         26.6160   24.2920  117.6580 C.3       1 TKT302      0.0000 
     11 C4         27.3570   23.0870  117.1080 C.3       1 TKT302      0.0000 
     12 C1         28.4590   25.6440  117.6640 C.3       1 TKT302      0.0000 
     13 C2         29.3880   24.5990  117.0820 C.3       1 TKT302      0.0000 
     14 C3         28.8710   23.1830  117.2810 C.3       1 TKT302      0.0000 
     15 C13        33.7960   20.3880  122.7340 C.ar      1 TKT302      0.0000 
     16 C15        31.5260   20.7430  122.0600 C.ar      1 TKT302      0.0000 
     17 C16        31.9470   21.2450  120.8100 C.ar      1 TKT302      0.0000 
     18 C17        33.3210   21.3270  120.5510 C.ar      1 TKT302      0.0000 
     19 C18        34.2300   20.9080  121.5160 C.ar      1 TKT302      0.0000 
     20 N10        30.1450   20.7800  122.0820 N.pl3     1 TKT302      0.0000 
     21 C21        32.4430   20.3030  123.0280 C.ar      1 TKT302      0.0000 
@<TRIPOS>BOND
     1    1    4 1    
     2    1    5 2    
     3    1   17 1    
     4    2    4 2    
     5    3    9 1    
     6    4    6 1    
     7    5   20 1    
     8    6   14 1    
     9    7    8 1    
    10    7   12 1    
    11    8   10 1    
    12    9   10 1    
    13    9   12 1    
    14   10   11 1    
    15   11   14 1    
    16   12   13 1    
    17   13   14 1    
    18   15   19 ar   
    19   15   21 ar   
    20   16   17 ar   
    21   16   20 1    
    22   16   21 ar   
    23   17   18 ar   
    24   18   19 ar   
@<TRIPOS>SUBSTRUCTURE
     1 TKT302      1 GROUP   
@<TRIPOS>SET

