#    Name: 6qsn_1_SAH
#    Modification time : Fri May 22 19:27:21 2020

@<TRIPOS>MOLECULE
6qsn_1_SAH
   26    28     1     0     0
SMALL
NO_CHARGES


@<TRIPOS>ATOM
      1 N          82.4880   11.1600   47.6400 N.4       1 SAH1001     0.0000 
      2 CA         81.8430   10.7700   48.8880 C.3       1 SAH1001     0.0000 
      3 CB         82.8380   10.8590   50.0420 C.3       1 SAH1001     0.0000 
      4 CG         83.9830   11.8490   49.8470 C.3       1 SAH1001     0.0000 
      5 SD         83.6220   13.5230   50.4340 S.3       1 SAH1001     0.0000 
      6 C          80.6090   11.6210   49.1780 C.2       1 SAH1001     0.0000 
      7 O          80.6840   12.6700   49.8180 O.co2     1 SAH1001     0.0000 
      8 OXT        79.4980   11.2700   48.7800 O.co2     1 SAH1001     0.0000 
      9 C5'        84.6650   13.2260   51.8840 C.3       1 SAH1001     0.0000 
     10 C4'        83.8470   13.1990   53.1690 C.3       1 SAH1001     0.0000 
     11 O4'        84.5880   12.6370   54.2340 O.3       1 SAH1001     0.0000 
     12 C3'        83.4440   14.5960   53.6170 C.3       1 SAH1001     0.0000 
     13 O3'        82.0910   14.8380   53.3090 O.3       1 SAH1001     0.0000 
     14 C2'        83.6490   14.5990   55.1190 C.3       1 SAH1001     0.0000 
     15 O2'        82.4230   14.8380   55.7670 O.3       1 SAH1001     0.0000 
     16 C1'        84.1520   13.2040   55.4540 C.3       1 SAH1001     0.0000 
     17 N9         85.2510   13.2640   56.4360 N.pl3     1 SAH1001     0.0000 
     18 C8         86.1460   14.2890   56.5970 C.2       1 SAH1001     0.0000 
     19 N7         86.9930   13.9680   57.6020 N.2       1 SAH1001     0.0000 
     20 C5         86.6520   12.7530   58.0850 C.ar      1 SAH1001     0.0000 
     21 C6         87.1820   11.9650   59.1000 C.ar      1 SAH1001     0.0000 
     22 N6         88.2310   12.3920   59.7970 N.pl3     1 SAH1001     0.0000 
     23 N1         86.6160   10.7390   59.3810 N.ar      1 SAH1001     0.0000 
     24 C2         85.5280   10.3040   58.6520 C.ar      1 SAH1001     0.0000 
     25 N3         85.0060   11.0920   57.6450 N.ar      1 SAH1001     0.0000 
     26 C4         85.5570   12.2990   57.3630 C.ar      1 SAH1001     0.0000 
@<TRIPOS>BOND
     1    1    2 1    
     2    2    3 1    
     3    2    6 1    
     4    3    4 1    
     5    4    5 1    
     6    5    9 1    
     7    6    7 ar   
     8    6    8 ar   
     9    9   10 1    
    10   10   11 1    
    11   10   12 1    
    12   11   16 1    
    13   12   13 1    
    14   12   14 1    
    15   14   15 1    
    16   14   16 1    
    17   16   17 1    
    18   17   18 1    
    19   17   26 1    
    20   18   19 2    
    21   19   20 1    
    22   20   21 ar   
    23   20   26 ar   
    24   21   22 1    
    25   21   23 ar   
    26   23   24 ar   
    27   24   25 ar   
    28   25   26 ar   
@<TRIPOS>SUBSTRUCTURE
     1 SAH1001     1 GROUP   
@<TRIPOS>SET

