#    Name: 6qsn_2_SAH
#    Modification time : Fri May 22 19:27:33 2020

@<TRIPOS>MOLECULE
6qsn_2_SAH
   26    28     1     0     0
SMALL
NO_CHARGES


@<TRIPOS>ATOM
      1 N          63.3060   44.6760   48.7960 N.4       1 SAH1001     0.0000 
      2 CA         62.9510   43.6640   47.8080 C.3       1 SAH1001     0.0000 
      3 CB         64.0430   43.5480   46.7490 C.3       1 SAH1001     0.0000 
      4 CG         65.3450   44.2620   47.0940 C.3       1 SAH1001     0.0000 
      5 SD         66.7420   43.6810   46.1000 S.3       1 SAH1001     0.0000 
      6 C          62.6950   42.3070   48.4580 C.2       1 SAH1001     0.0000 
      7 O          62.9270   41.2570   47.8560 O.co2     1 SAH1001     0.0000 
      8 OXT        62.2450   42.2290   49.6010 O.co2     1 SAH1001     0.0000 
      9 C5'        66.4530   44.9670   44.8570 C.3       1 SAH1001     0.0000 
     10 C4'        66.1630   44.3730   43.4820 C.3       1 SAH1001     0.0000 
     11 O4'        65.9380   45.3830   42.5160 O.3       1 SAH1001     0.0000 
     12 C3'        67.3310   43.5420   42.9690 C.3       1 SAH1001     0.0000 
     13 O3'        67.0480   42.1680   43.0980 O.3       1 SAH1001     0.0000 
     14 C2'        67.4710   43.9100   41.5070 C.3       1 SAH1001     0.0000 
     15 O2'        67.2790   42.7700   40.7040 O.3       1 SAH1001     0.0000 
     16 C1'        66.3690   44.9250   41.2480 C.3       1 SAH1001     0.0000 
     17 N9         66.8730   46.0310   40.4090 N.pl3     1 SAH1001     0.0000 
     18 C8         68.1060   46.6240   40.4970 C.2       1 SAH1001     0.0000 
     19 N7         68.1900   47.5900   39.5540 N.2       1 SAH1001     0.0000 
     20 C5         67.0300   47.6240   38.8620 C.ar      1 SAH1001     0.0000 
     21 C6         66.5930   48.4130   37.8040 C.ar      1 SAH1001     0.0000 
     22 N6         67.3850   49.3510   37.2930 N.pl3     1 SAH1001     0.0000 
     23 N1         65.3290   48.2180   37.2850 N.ar      1 SAH1001     0.0000 
     24 C2         64.5110   47.2430   37.8200 C.ar      1 SAH1001     0.0000 
     25 N3         64.9520   46.4630   38.8700 N.ar      1 SAH1001     0.0000 
     26 C4         66.1930   46.6480   39.3860 C.ar      1 SAH1001     0.0000 
@<TRIPOS>BOND
     1    1    2 1    
     2    2    3 1    
     3    2    6 1    
     4    3    4 1    
     5    4    5 1    
     6    5    9 1    
     7    6    7 ar   
     8    6    8 ar   
     9    9   10 1    
    10   10   11 1    
    11   10   12 1    
    12   11   16 1    
    13   12   13 1    
    14   12   14 1    
    15   14   15 1    
    16   14   16 1    
    17   16   17 1    
    18   17   18 1    
    19   17   26 1    
    20   18   19 2    
    21   19   20 1    
    22   20   21 ar   
    23   20   26 ar   
    24   21   22 1    
    25   21   23 ar   
    26   23   24 ar   
    27   24   25 ar   
    28   25   26 ar   
@<TRIPOS>SUBSTRUCTURE
     1 SAH1001     1 GROUP   
@<TRIPOS>SET

