#    Name: 5oms_1_261
#    Modification time : Fri May 22 19:16:16 2020

@<TRIPOS>MOLECULE
5oms_1_261
   10    10     1     0     0
SMALL
NO_CHARGES


@<TRIPOS>ATOM
      1 CAA        41.0590   79.3130   41.8680 Du        1 261502      0.0000 
      2 CAG        41.7390   79.9620   40.6830 C.3       1 261502      0.0000 
      3 OAH        42.2810   78.9530   39.8800 O.3       1 261502      0.0000 
      4 CAJ        42.7470   79.4010   38.6580 C.ar      1 261502      0.0000 
      5 CAF        42.8510   80.7550   38.3600 C.ar      1 261502      0.0000 
      6 CAD        43.3320   81.1210   37.1090 C.ar      1 261502      0.0000 
      7 CAC        43.7100   80.1460   36.1940 C.ar      1 261502      0.0000 
      8 CAE        43.6020   78.7860   36.5110 C.ar      1 261502      0.0000 
      9 CAI        43.1150   78.4360   37.7500 C.ar      1 261502      0.0000 
     10 OAB        42.9690   77.1090   38.1560 Du        1 261502      0.0000 
@<TRIPOS>BOND
     1    1    2 du   
     2    2    3 1    
     3    3    4 1    
     4    4    5 ar   
     5    4    9 ar   
     6    5    6 ar   
     7    6    7 ar   
     8    7    8 ar   
     9    8    9 ar   
    10    9   10 du   
@<TRIPOS>SUBSTRUCTURE
     1 261502      1 GROUP   
@<TRIPOS>SET

