#    Name: 6kp2_1_NDP
#    Modification time : Fri May 22 19:25:08 2020

@<TRIPOS>MOLECULE
6kp2_1_NDP
   48    52     1     0     1
SMALL
NO_CHARGES


@<TRIPOS>ATOM
      1 PA         -5.9600   -4.2100   68.8310 P.3       1 NDP701      0.0000 
      2 O1A        -6.9880   -3.4510   68.0970 O.co2     1 NDP701      0.0000 
      3 O2A        -4.4630   -4.2150   68.2320 O.co2     1 NDP701      0.0000 
      4 O5B        -5.6070   -3.6250   70.3080 O.3       1 NDP701      0.0000 
      5 C5B        -6.6680   -3.3690   71.3250 C.3       1 NDP701      0.0000 
      6 C4B        -6.0890   -2.4580   72.3220 C.3       1 NDP701      0.0000 
      7 O4B        -5.7270   -1.1240   71.9150 O.3       1 NDP701      0.0000 
      8 C3B        -7.2160   -2.2080   73.4860 C.3       1 NDP701      0.0000 
      9 O3B        -7.3420   -3.3510   74.3570 O.3       1 NDP701      0.0000 
     10 C2B        -6.5420   -1.0490   74.1400 C.3       1 NDP701      0.0000 
     11 O2B        -5.3670   -1.3890   74.8750 O.3       1 NDP701      0.0000 
     12 C1B        -6.1320   -0.2020   72.9800 C.3       1 NDP701      0.0000 
     13 N9A        -7.1790    0.6540   72.3930 N.pl3     1 NDP701      0.0000 
     14 C8A        -7.9730    0.5220   71.2740 C.2       1 NDP701      0.0000 
     15 N7A        -8.7110    1.6290   71.1290 N.2       1 NDP701      0.0000 
     16 C5A        -8.3850    2.4800   72.1490 C.ar      1 NDP701      0.0000 
     17 C6A        -8.8400    3.7180   72.5180 C.ar      1 NDP701      0.0000 
     18 N6A        -9.7630    4.3250   71.7290 N.pl3     1 NDP701      0.0000 
     19 N1A        -8.3030    4.4120   73.5570 N.ar      1 NDP701      0.0000 
     20 C2A        -7.3400    3.7300   74.3340 C.ar      1 NDP701      0.0000 
     21 N3A        -6.8670    2.4410   74.0060 N.ar      1 NDP701      0.0000 
     22 C4A        -7.4050    1.8580   72.8940 C.ar      1 NDP701      0.0000 
     23 O3         -6.3780   -5.7300   69.2590 O.3       1 NDP701      0.0000 
     24 PN         -7.2750   -6.9290   68.4920 P.3       1 NDP701      0.0000 
     25 O1N        -7.0380   -7.8630   69.5880 O.co2     1 NDP701      0.0000 
     26 O2N        -8.4380   -6.1240   68.1260 O.co2     1 NDP701      0.0000 
     27 O5D        -6.1420   -7.0700   67.3160 O.3       1 NDP701      0.0000 
     28 C5D        -4.9270   -7.8390   67.4610 C.3       1 NDP701      0.0000 
     29 C4D        -4.9670   -8.9340   66.3870 C.3       1 NDP701      0.0000 
     30 O4D        -4.9740   -8.3480   65.0590 O.3       1 NDP701      0.0000 
     31 C3D        -3.7030   -9.7300   66.4680 C.3       1 NDP701      0.0000 
     32 O3D        -4.0290  -11.1730   66.1660 O.3       1 NDP701      0.0000 
     33 C2D        -2.7500   -9.1110   65.4160 C.3       1 NDP701      0.0000 
     34 O2D        -1.8290  -10.0730   64.9500 O.3       1 NDP701      0.0000 
     35 C1D        -3.7440   -8.8890   64.3420 C.3       1 NDP701      0.0000 
     36 N1N        -3.4970   -7.8090   63.3930 N.pl3     1 NDP701      0.0000 
     37 C2N        -3.7040   -8.0750   62.0110 C.2       1 NDP701      0.0000 
     38 C3N        -3.5770   -7.0810   61.0560 C.2       1 NDP701      0.0000 
     39 C7N        -3.7350   -7.3650   59.6370 C.2       1 NDP701      0.0000 
     40 O7N        -3.7270   -6.4410   58.8070 O.2       1 NDP701      0.0000 
     41 N7N        -3.8260   -8.6750   59.3090 N.am      1 NDP701      0.0000 
     42 C4N        -3.3600   -5.7350   61.5090 C.3       1 NDP701      0.0000 
     43 C5N        -3.1970   -5.4990   62.9320 C.2       1 NDP701      0.0000 
     44 C6N        -3.1990   -6.5320   63.8220 C.2       1 NDP701      0.0000 
     45 P2B        -5.3550   -1.7010   76.5080 P.3       1 NDP701      0.0000 
     46 O1X        -6.0740   -2.9620   76.6520 O.co2     1 NDP701      0.0000 
     47 O2X        -3.8900   -1.7590   76.7720 O.co2     1 NDP701      0.0000 
     48 O3X        -6.0940   -0.5120   76.9170 O.co2     1 NDP701      0.0000 
@<TRIPOS>BOND
     1    1    2 ar   
     2    1    3 ar   
     3    1    4 1    
     4    1   23 1    
     5    4    5 1    
     6    5    6 1    
     7    6    7 1    
     8    6    8 1    
     9    7   12 1    
    10    8    9 1    
    11    8   10 1    
    12   10   11 1    
    13   10   12 1    
    14   11   45 1    
    15   12   13 1    
    16   13   14 1    
    17   13   22 1    
    18   14   15 2    
    19   15   16 1    
    20   16   17 ar   
    21   16   22 ar   
    22   17   18 1    
    23   17   19 ar   
    24   19   20 ar   
    25   20   21 ar   
    26   21   22 ar   
    27   23   24 1    
    28   24   25 ar   
    29   24   26 ar   
    30   24   27 1    
    31   27   28 1    
    32   28   29 1    
    33   29   30 1    
    34   29   31 1    
    35   30   35 1    
    36   31   32 1    
    37   31   33 1    
    38   33   34 1    
    39   33   35 1    
    40   35   36 1    
    41   36   37 1    
    42   36   44 1    
    43   37   38 2    
    44   38   39 1    
    45   38   42 1    
    46   39   40 2    
    47   39   41 am   
    48   42   43 1    
    49   43   44 2    
    50   45   46 ar   
    51   45   47 ar   
    52   45   48 ar   
@<TRIPOS>SUBSTRUCTURE
     1 NDP701      1 GROUP   
@<TRIPOS>SET
ATOM$ORANGE STATIC     ATOMS   COLORGROUP SYSTEM 
42 5 5 6 6 8 8 10 10 12 12 14 14 16 16 17 17 20 \
20 22 22 28 28 29 29 31 31 33 33 35 35 37 37 38 38 39 \
39 42 42 43 43 44 44 

