#    Name: 6f56_4_MYA
#    Modification time : Fri May 22 19:26:52 2020

@<TRIPOS>MOLECULE
6f56_4_MYA
   63    65     1     0     0
SMALL
NO_CHARGES


@<TRIPOS>ATOM
      1 S1         24.9710    0.8290   42.3390 S.3       1 MYA501      0.0000 
      2 C2         24.9560   -0.6080   41.2350 C.3       1 MYA501      0.0000 
      3 C3         23.5000   -0.8500   40.7390 C.3       1 MYA501      0.0000 
      4 N4         23.3970   -2.1580   40.0970 N.am      1 MYA501      0.0000 
      5 C5         23.4920   -2.3210   38.7600 C.2       1 MYA501      0.0000 
      6 O5         23.6700   -1.3460   37.9730 O.2       1 MYA501      0.0000 
      7 C6         23.3590   -3.7890   38.3050 C.3       1 MYA501      0.0000 
      8 C7         22.6510   -3.9920   36.9340 C.3       1 MYA501      0.0000 
      9 N8         21.3840   -3.2960   36.9970 N.am      1 MYA501      0.0000 
     10 C9         20.3080   -3.7840   37.6410 C.2       1 MYA501      0.0000 
     11 O9         20.3710   -4.9120   38.2220 O.2       1 MYA501      0.0000 
     12 C10        19.0710   -2.9770   37.6340 C.3       1 MYA501      0.0000 
     13 O10        19.1450   -2.0910   36.4820 O.3       1 MYA501      0.0000 
     14 C11        18.8300   -2.1210   38.8560 C.3       1 MYA501      0.0000 
     15 C12        17.5990   -1.2760   38.6930 C.3       1 MYA501      0.0000 
     16 C13        19.9650   -1.1140   39.1320 C.3       1 MYA501      0.0000 
     17 C14        18.5910   -3.0610   40.0640 C.3       1 MYA501      0.0000 
     18 N1A        20.5300    3.3310   42.4900 N.ar      1 MYA501      0.0000 
     19 O1A        12.2040   -0.4810   37.1960 O.co2     1 MYA501      0.0000 
     20 P1A        13.2600   -0.6150   38.2680 P.3       1 MYA501      0.0000 
     21 C1X        15.9150    3.7090   40.2720 C.3       1 MYA501      0.0000 
     22 C2A        19.3690    3.8680   42.9700 C.ar      1 MYA501      0.0000 
     23 O2A        13.1580   -1.7770   39.1440 O.co2     1 MYA501      0.0000 
     24 P2A        15.5940   -1.8360   37.0720 P.3       1 MYA501      0.0000 
     25 C2M        24.4410    0.2200   43.9040 C.2       1 MYA501      0.0000 
     26 O2M        24.5070   -0.9920   44.1540 O.2       1 MYA501      0.0000 
     27 C2X        15.5220    4.5280   39.0690 C.3       1 MYA501      0.0000 
     28 O2X        16.0570    5.8720   39.2340 O.3       1 MYA501      0.0000 
     29 N3A        18.2410    3.8560   42.1820 N.ar      1 MYA501      0.0000 
     30 O3A        14.6970   -0.5880   37.5140 O.3       1 MYA501      0.0000 
     31 C3M        23.9670    1.1490   44.9850 C.3       1 MYA501      0.0000 
     32 C3X        14.0020    4.4610   39.1310 C.3       1 MYA501      0.0000 
     33 O3X        13.5500    5.3500   40.1400 O.3       1 MYA501      0.0000 
     34 P3X        12.7630    6.6470   39.6470 P.3       1 MYA501      0.0000 
     35 C4A        18.2870    3.3210   40.9770 C.ar      1 MYA501      0.0000 
     36 O4A        14.7140   -3.0180   36.8030 O.co2     1 MYA501      0.0000 
     37 C4M        22.4340    1.1690   44.9360 C.3       1 MYA501      0.0000 
     38 C4X        13.7880    3.0140   39.6030 C.3       1 MYA501      0.0000 
     39 O4X        15.0480    2.5510   40.2010 O.3       1 MYA501      0.0000 
     40 C5A        19.4720    2.7610   40.4600 C.ar      1 MYA501      0.0000 
     41 O5A        16.4600   -1.2350   35.9780 O.co2     1 MYA501      0.0000 
     42 C5M        21.9430    2.2320   45.9510 C.3       1 MYA501      0.0000 
     43 C5X        13.4450    2.0880   38.4580 C.3       1 MYA501      0.0000 
     44 O5X        13.3460    0.7590   39.0870 O.3       1 MYA501      0.0000 
     45 C6A        20.6300    2.7750   41.2680 C.ar      1 MYA501      0.0000 
     46 N6A        21.8230    2.2610   40.8640 N.pl3     1 MYA501      0.0000 
     47 O6A        16.4500   -2.1090   38.4010 O.3       1 MYA501      0.0000 
     48 C6M        20.3950    2.3010   45.9540 C.3       1 MYA501      0.0000 
     49 N7A        19.1930    2.2930   39.1870 N.2       1 MYA501      0.0000 
     50 O7A        12.6720    7.5280   40.8190 O.co2     1 MYA501      0.0000 
     51 C7M        19.8310    3.4300   46.8360 C.3       1 MYA501      0.0000 
     52 C8A        17.8740    2.5790   38.9710 C.2       1 MYA501      0.0000 
     53 O8A        11.4520    6.0450   39.1510 O.co2     1 MYA501      0.0000 
     54 C8M        20.1410    3.1170   48.3070 C.3       1 MYA501      0.0000 
     55 N9A        17.3250    3.1990   40.0620 N.pl3     1 MYA501      0.0000 
     56 O9A        13.5690    7.2220   38.5470 O.co2     1 MYA501      0.0000 
     57 C9M        19.5330    4.2510   49.1940 C.3       1 MYA501      0.0000 
     58 CAM        19.7880    4.0430   50.7330 C.3       1 MYA501      0.0000 
     59 CBM        18.8440    2.9150   51.2790 C.3       1 MYA501      0.0000 
     60 CCM        19.1750    2.6960   52.7970 C.3       1 MYA501      0.0000 
     61 CDM        18.8370    3.9310   53.7110 C.3       1 MYA501      0.0000 
     62 CEM        18.9500    3.4950   55.1950 C.3       1 MYA501      0.0000 
     63 CFM        18.8090    4.7470   56.1280 C.3       1 MYA501      0.0000 
@<TRIPOS>BOND
     1    1    2 1    
     2    1   25 1    
     3    2    3 1    
     4    3    4 1    
     5    4    5 am   
     6    5    6 2    
     7    5    7 1    
     8    7    8 1    
     9    8    9 1    
    10    9   10 am   
    11   10   11 2    
    12   10   12 1    
    13   12   13 1    
    14   12   14 1    
    15   14   15 1    
    16   14   16 1    
    17   14   17 1    
    18   15   47 1    
    19   18   22 ar   
    20   18   45 ar   
    21   19   20 ar   
    22   20   23 ar   
    23   20   30 1    
    24   20   44 1    
    25   21   27 1    
    26   21   39 1    
    27   21   55 1    
    28   22   29 ar   
    29   24   30 1    
    30   24   36 ar   
    31   24   41 ar   
    32   24   47 1    
    33   25   26 2    
    34   25   31 1    
    35   27   28 1    
    36   27   32 1    
    37   29   35 ar   
    38   31   37 1    
    39   32   33 1    
    40   32   38 1    
    41   33   34 1    
    42   34   50 ar   
    43   34   53 ar   
    44   34   56 ar   
    45   35   40 ar   
    46   35   55 1    
    47   37   42 1    
    48   38   39 1    
    49   38   43 1    
    50   40   45 ar   
    51   40   49 1    
    52   42   48 1    
    53   43   44 1    
    54   45   46 1    
    55   48   51 1    
    56   49   52 2    
    57   51   54 1    
    58   52   55 1    
    59   54   57 1    
    60   57   58 1    
    61   58   59 1    
    62   59   60 1    
    63   60   61 1    
    64   61   62 1    
    65   62   63 1    
@<TRIPOS>SUBSTRUCTURE
     1 MYA501      1 GROUP   
@<TRIPOS>SET

