#    Name: 6f56_2_MYA
#    Modification time : Fri May 22 19:26:33 2020

@<TRIPOS>MOLECULE
6f56_2_MYA
   63    65     1     0     0
SMALL
NO_CHARGES


@<TRIPOS>ATOM
      1 S1         -2.7920  -40.2310   18.9170 S.3       1 MYA501      0.0000 
      2 C2         -2.6630  -41.8590   18.1340 C.3       1 MYA501      0.0000 
      3 C3         -4.0620  -42.1660   17.5340 C.3       1 MYA501      0.0000 
      4 N4         -4.1770  -43.5320   17.0270 N.am      1 MYA501      0.0000 
      5 C5         -4.0320  -43.8240   15.7170 C.2       1 MYA501      0.0000 
      6 O5         -3.7710  -42.9360   14.8480 O.2       1 MYA501      0.0000 
      7 C6         -4.2080  -45.3260   15.4100 C.3       1 MYA501      0.0000 
      8 C7         -4.9990  -45.6630   14.1050 C.3       1 MYA501      0.0000 
      9 N8         -6.2730  -44.9640   14.1110 N.am      1 MYA501      0.0000 
     10 C9         -7.3400  -45.3320   14.8500 C.2       1 MYA501      0.0000 
     11 O9         -7.2790  -46.3510   15.5990 O.2       1 MYA501      0.0000 
     12 C10        -8.5830  -44.5380   14.7530 C.3       1 MYA501      0.0000 
     13 O10        -8.6130  -43.8860   13.4470 O.3       1 MYA501      0.0000 
     14 C11        -8.7670  -43.4700   15.8060 C.3       1 MYA501      0.0000 
     15 C12       -10.0270  -42.6920   15.5390 C.3       1 MYA501      0.0000 
     16 C13        -7.6270  -42.4300   15.8280 C.3       1 MYA501      0.0000 
     17 C14        -8.8970  -44.1660   17.1840 C.3       1 MYA501      0.0000 
     18 N1A        -7.1340  -37.9540   18.6930 N.ar      1 MYA501      0.0000 
     19 O1A       -15.4690  -42.1520   13.9910 O.co2     1 MYA501      0.0000 
     20 P1A       -14.3840  -42.2180   15.0440 P.3       1 MYA501      0.0000 
     21 C1X       -11.5840  -37.5230   16.2910 C.3       1 MYA501      0.0000 
     22 C2A        -8.3140  -37.4210   19.1140 C.ar      1 MYA501      0.0000 
     23 O2A       -14.4840  -43.3070   16.0020 O.co2     1 MYA501      0.0000 
     24 P2A       -12.0440  -43.5470   14.0030 P.3       1 MYA501      0.0000 
     25 C2M        -3.1960  -40.6160   20.5870 C.2       1 MYA501      0.0000 
     26 O2M        -3.1670  -41.7940   20.9700 O.2       1 MYA501      0.0000 
     27 C2X       -12.1390  -36.9740   15.0020 C.3       1 MYA501      0.0000 
     28 O2X       -11.6760  -35.6010   14.8510 O.3       1 MYA501      0.0000 
     29 N3A        -9.3900  -37.4240   18.2660 N.ar      1 MYA501      0.0000 
     30 O3A       -12.9720  -42.2690   14.2420 O.3       1 MYA501      0.0000 
     31 C3M        -3.6260  -39.5510   21.5570 C.3       1 MYA501      0.0000 
     32 C3X       -13.6320  -37.0890   15.2780 C.3       1 MYA501      0.0000 
     33 O3X       -13.9930  -36.0890   16.2180 O.3       1 MYA501      0.0000 
     34 P3X       -14.8250  -34.8520   15.6610 P.3       1 MYA501      0.0000 
     35 C4A        -9.2660  -37.9390   17.0580 C.ar      1 MYA501      0.0000 
     36 O4A       -12.9140  -44.7670   13.9460 O.co2     1 MYA501      0.0000 
     37 C4M        -5.1560  -39.5570   21.5520 C.3       1 MYA501      0.0000 
     38 C4X       -13.6950  -38.4660   15.9600 C.3       1 MYA501      0.0000 
     39 O4X       -12.3620  -38.7190   16.5270 O.3       1 MYA501      0.0000 
     40 C5A        -8.0620  -38.4940   16.5940 C.ar      1 MYA501      0.0000 
     41 O5A       -11.1930  -43.1410   12.8100 O.co2     1 MYA501      0.0000 
     42 C5M        -5.6710  -38.3790   22.4160 C.3       1 MYA501      0.0000 
     43 C5X       -14.0070  -39.5540   14.9570 C.3       1 MYA501      0.0000 
     44 O5X       -14.2640  -40.7790   15.7350 O.3       1 MYA501      0.0000 
     45 C6A        -6.9590  -38.4900   17.4730 C.ar      1 MYA501      0.0000 
     46 N6A        -5.7400  -38.9920   17.1420 N.pl3     1 MYA501      0.0000 
     47 O6A       -11.1610  -43.5810   15.3500 O.3       1 MYA501      0.0000 
     48 C6M        -7.2050  -38.5130   22.5550 C.3       1 MYA501      0.0000 
     49 N7A        -8.2740  -38.9400   15.2930 N.2       1 MYA501      0.0000 
     50 O7A       -14.0940  -34.4150   14.4630 O.co2     1 MYA501      0.0000 
     51 C7M        -7.8820  -37.2940   23.2150 C.3       1 MYA501      0.0000 
     52 C8A        -9.5800  -38.6420   15.0140 C.2       1 MYA501      0.0000 
     53 O8A       -14.8420  -33.8890   16.8440 O.co2     1 MYA501      0.0000 
     54 C8M        -7.4480  -37.2750   24.6850 C.3       1 MYA501      0.0000 
     55 N9A       -10.1750  -38.0340   16.0950 N.pl3     1 MYA501      0.0000 
     56 O9A       -16.1780  -35.3810   15.3540 O.co2     1 MYA501      0.0000 
     57 C9M        -8.2000  -36.1310   25.4350 C.3       1 MYA501      0.0000 
     58 CAM        -7.8640  -36.0910   26.9730 C.3       1 MYA501      0.0000 
     59 CBM        -8.7380  -37.1590   27.7240 C.3       1 MYA501      0.0000 
     60 CCM        -8.2850  -37.1670   29.2270 C.3       1 MYA501      0.0000 
     61 CDM        -8.7030  -35.8560   29.9870 C.3       1 MYA501      0.0000 
     62 CEM        -8.5910  -36.0790   31.5160 C.3       1 MYA501      0.0000 
     63 CFM        -8.7630  -34.6980   32.2320 C.3       1 MYA501      0.0000 
@<TRIPOS>BOND
     1    1    2 1    
     2    1   25 1    
     3    2    3 1    
     4    3    4 1    
     5    4    5 am   
     6    5    6 2    
     7    5    7 1    
     8    7    8 1    
     9    8    9 1    
    10    9   10 am   
    11   10   11 2    
    12   10   12 1    
    13   12   13 1    
    14   12   14 1    
    15   14   15 1    
    16   14   16 1    
    17   14   17 1    
    18   15   47 1    
    19   18   22 ar   
    20   18   45 ar   
    21   19   20 ar   
    22   20   23 ar   
    23   20   30 1    
    24   20   44 1    
    25   21   27 1    
    26   21   39 1    
    27   21   55 1    
    28   22   29 ar   
    29   24   30 1    
    30   24   36 ar   
    31   24   41 ar   
    32   24   47 1    
    33   25   26 2    
    34   25   31 1    
    35   27   28 1    
    36   27   32 1    
    37   29   35 ar   
    38   31   37 1    
    39   32   33 1    
    40   32   38 1    
    41   33   34 1    
    42   34   50 ar   
    43   34   53 ar   
    44   34   56 ar   
    45   35   40 ar   
    46   35   55 1    
    47   37   42 1    
    48   38   39 1    
    49   38   43 1    
    50   40   45 ar   
    51   40   49 1    
    52   42   48 1    
    53   43   44 1    
    54   45   46 1    
    55   48   51 1    
    56   49   52 2    
    57   51   54 1    
    58   52   55 1    
    59   54   57 1    
    60   57   58 1    
    61   58   59 1    
    62   59   60 1    
    63   60   61 1    
    64   61   62 1    
    65   62   63 1    
@<TRIPOS>SUBSTRUCTURE
     1 MYA501      1 GROUP   
@<TRIPOS>SET

