#    Name: 6f56_3_MYA
#    Modification time : Fri May 22 19:26:42 2020

@<TRIPOS>MOLECULE
6f56_3_MYA
   63    65     1     0     0
SMALL
NO_CHARGES


@<TRIPOS>ATOM
      1 S1         30.5430   -2.7100   89.3810 S.3       1 MYA501      0.0000 
      2 C2         30.5330   -4.3560   90.1380 C.3       1 MYA501      0.0000 
      3 C3         31.9790   -4.6990   90.6050 C.3       1 MYA501      0.0000 
      4 N4         32.0330   -6.0660   91.1230 N.am      1 MYA501      0.0000 
      5 C5         31.8900   -6.3660   92.4300 C.2       1 MYA501      0.0000 
      6 O5         31.7030   -5.4870   93.3230 O.2       1 MYA501      0.0000 
      7 C6         31.9790   -7.8810   92.7030 C.3       1 MYA501      0.0000 
      8 C7         32.7920   -8.2920   93.9660 C.3       1 MYA501      0.0000 
      9 N8         34.0770   -7.6190   93.9600 N.am      1 MYA501      0.0000 
     10 C9         35.1140   -7.9850   93.1840 C.2       1 MYA501      0.0000 
     11 O9         34.9970   -8.9790   92.4070 O.2       1 MYA501      0.0000 
     12 C10        36.3830   -7.2300   93.2790 C.3       1 MYA501      0.0000 
     13 O10        36.5020   -6.7180   94.6400 O.3       1 MYA501      0.0000 
     14 C11        36.5430   -6.0720   92.3200 C.3       1 MYA501      0.0000 
     15 C12        37.7510   -5.2410   92.6560 C.3       1 MYA501      0.0000 
     16 C13        35.3750   -5.0690   92.3590 C.3       1 MYA501      0.0000 
     17 C14        36.7390   -6.6630   90.9020 C.3       1 MYA501      0.0000 
     18 N1A        34.8930   -0.3190   89.5780 N.ar      1 MYA501      0.0000 
     19 O1A        43.2280   -4.6490   94.1160 O.co2     1 MYA501      0.0000 
     20 P1A        42.1140   -4.6100   93.1020 P.3       1 MYA501      0.0000 
     21 C1X        39.4020    0.0660   91.9560 C.3       1 MYA501      0.0000 
     22 C2A        36.0520    0.2830   89.1810 C.ar      1 MYA501      0.0000 
     23 O2A        42.1690   -5.6030   92.0380 O.co2     1 MYA501      0.0000 
     24 P2A        39.8450   -6.1000   94.0270 P.3       1 MYA501      0.0000 
     25 C2M        30.8860   -3.0140   87.6740 C.2       1 MYA501      0.0000 
     26 O2M        30.9360   -4.1820   87.2630 O.2       1 MYA501      0.0000 
     27 C2X        39.8850    0.6500   93.2610 C.3       1 MYA501      0.0000 
     28 O2X        39.3770    2.0110   93.3800 O.3       1 MYA501      0.0000 
     29 N3A        37.1480    0.2530   90.0110 N.ar      1 MYA501      0.0000 
     30 O3A        40.7160   -4.7660   93.9020 O.3       1 MYA501      0.0000 
     31 C3M        31.3100   -1.9050   86.7470 C.3       1 MYA501      0.0000 
     32 C3X        41.4000    0.5570   93.1050 C.3       1 MYA501      0.0000 
     33 O3X        41.8540    1.5520   92.1950 O.3       1 MYA501      0.0000 
     34 P3X        42.6830    2.7700   92.8010 P.3       1 MYA501      0.0000 
     35 C4A        37.0700   -0.3610   91.1760 C.ar      1 MYA501      0.0000 
     36 O4A        40.7380   -7.3000   93.9640 O.co2     1 MYA501      0.0000 
     37 C4M        32.8470   -1.9060   86.7070 C.3       1 MYA501      0.0000 
     38 C4X        41.5340   -0.8090   92.4180 C.3       1 MYA501      0.0000 
     39 O4X        40.2560   -1.0840   91.7370 O.3       1 MYA501      0.0000 
     40 C5A        35.8870   -0.9880   91.6130 C.ar      1 MYA501      0.0000 
     41 O5A        38.9990   -5.8250   95.2590 O.co2     1 MYA501      0.0000 
     42 C5M        33.3530   -0.6520   85.9460 C.3       1 MYA501      0.0000 
     43 C5X        41.8120   -1.9240   93.4010 C.3       1 MYA501      0.0000 
     44 O5X        41.9880   -3.1130   92.5480 O.3       1 MYA501      0.0000 
     45 C6A        34.7610   -0.9530   90.7580 C.ar      1 MYA501      0.0000 
     46 N6A        33.5660   -1.5210   91.0630 N.pl3     1 MYA501      0.0000 
     47 O6A        38.9560   -6.0460   92.6880 O.3       1 MYA501      0.0000 
     48 C6M        34.8940   -0.7320   85.7780 C.3       1 MYA501      0.0000 
     49 N7A        36.1400   -1.5250   92.8680 N.2       1 MYA501      0.0000 
     50 O7A        42.6560    3.8130   91.7680 O.co2     1 MYA501      0.0000 
     51 C7M        35.5250    0.5040   85.0980 C.3       1 MYA501      0.0000 
     52 C8A        37.4430   -1.2120   93.1480 C.2       1 MYA501      0.0000 
     53 O8A        44.0320    2.1110   93.0900 O.co2     1 MYA501      0.0000 
     54 C8M        35.1280    0.5350   83.6130 C.3       1 MYA501      0.0000 
     55 N9A        38.0040   -0.5020   92.1160 N.pl3     1 MYA501      0.0000 
     56 O9A        41.9780    3.1680   94.0410 O.co2     1 MYA501      0.0000 
     57 C9M        35.8340    1.7590   82.9470 C.3       1 MYA501      0.0000 
     58 CAM        35.5840    1.8820   81.3990 C.3       1 MYA501      0.0000 
     59 CBM        36.3570    0.7500   80.6390 C.3       1 MYA501      0.0000 
     60 CCM        35.8930    0.7890   79.1430 C.3       1 MYA501      0.0000 
     61 CDM        36.3520    2.0910   78.3870 C.3       1 MYA501      0.0000 
     62 CEM        36.1330    1.9120   76.8680 C.3       1 MYA501      0.0000 
     63 CFM        36.3150    3.2980   76.1600 C.3       1 MYA501      0.0000 
@<TRIPOS>BOND
     1    1    2 1    
     2    1   25 1    
     3    2    3 1    
     4    3    4 1    
     5    4    5 am   
     6    5    6 2    
     7    5    7 1    
     8    7    8 1    
     9    8    9 1    
    10    9   10 am   
    11   10   11 2    
    12   10   12 1    
    13   12   13 1    
    14   12   14 1    
    15   14   15 1    
    16   14   16 1    
    17   14   17 1    
    18   15   47 1    
    19   18   22 ar   
    20   18   45 ar   
    21   19   20 ar   
    22   20   23 ar   
    23   20   30 1    
    24   20   44 1    
    25   21   27 1    
    26   21   39 1    
    27   21   55 1    
    28   22   29 ar   
    29   24   30 1    
    30   24   36 ar   
    31   24   41 ar   
    32   24   47 1    
    33   25   26 2    
    34   25   31 1    
    35   27   28 1    
    36   27   32 1    
    37   29   35 ar   
    38   31   37 1    
    39   32   33 1    
    40   32   38 1    
    41   33   34 1    
    42   34   50 ar   
    43   34   53 ar   
    44   34   56 ar   
    45   35   40 ar   
    46   35   55 1    
    47   37   42 1    
    48   38   39 1    
    49   38   43 1    
    50   40   45 ar   
    51   40   49 1    
    52   42   48 1    
    53   43   44 1    
    54   45   46 1    
    55   48   51 1    
    56   49   52 2    
    57   51   54 1    
    58   52   55 1    
    59   54   57 1    
    60   57   58 1    
    61   58   59 1    
    62   59   60 1    
    63   60   61 1    
    64   61   62 1    
    65   62   63 1    
@<TRIPOS>SUBSTRUCTURE
     1 MYA501      1 GROUP   
@<TRIPOS>SET

