#    Name: 6f56_1_MYA
#    Modification time : Fri May 22 19:26:25 2020

@<TRIPOS>MOLECULE
6f56_1_MYA
   63    65     1     0     0
SMALL
NO_CHARGES


@<TRIPOS>ATOM
      1 S1          2.7180  -38.9020   66.0890 S.3       1 MYA501      0.0000 
      2 C2          2.7140  -40.4890   66.9660 C.3       1 MYA501      0.0000 
      3 C3          4.1670  -40.7890   67.4460 C.3       1 MYA501      0.0000 
      4 N4          4.2580  -42.1120   68.0640 N.am      1 MYA501      0.0000 
      5 C5          4.1050  -42.3040   69.3930 C.2       1 MYA501      0.0000 
      6 O5          3.8720  -41.3520   70.2040 O.2       1 MYA501      0.0000 
      7 C6          4.2440  -43.7820   69.8080 C.3       1 MYA501      0.0000 
      8 C7          5.0060  -44.0240   71.1440 C.3       1 MYA501      0.0000 
      9 N8          6.2780  -43.3240   71.0910 N.am      1 MYA501      0.0000 
     10 C9          7.3670  -43.7970   70.4560 C.2       1 MYA501      0.0000 
     11 O9          7.3180  -44.9200   69.8650 O.2       1 MYA501      0.0000 
     12 C10         8.6110  -42.9960   70.4810 C.3       1 MYA501      0.0000 
     13 O10         8.6670  -42.2690   71.7400 O.3       1 MYA501      0.0000 
     14 C11         8.7810  -41.9850   69.3700 C.3       1 MYA501      0.0000 
     15 C12        10.0220  -41.1580   69.5730 C.3       1 MYA501      0.0000 
     16 C13         7.6420  -40.9510   69.2890 C.3       1 MYA501      0.0000 
     17 C14         8.9280  -42.7680   68.0440 C.3       1 MYA501      0.0000 
     18 N1A         7.2000  -36.5780   66.0900 N.ar      1 MYA501      0.0000 
     19 O1A        15.4550  -40.6010   71.1200 O.co2     1 MYA501      0.0000 
     20 P1A        14.3920  -40.6380   70.0480 P.3       1 MYA501      0.0000 
     21 C1X        11.7250  -36.0630   68.4330 C.3       1 MYA501      0.0000 
     22 C2A         8.3610  -36.0200   65.6350 C.ar      1 MYA501      0.0000 
     23 O2A        14.4240  -41.7590   69.1170 O.co2     1 MYA501      0.0000 
     24 P2A        12.0470  -41.8520   71.1260 P.3       1 MYA501      0.0000 
     25 C2M         3.0710  -39.3600   64.4290 C.2       1 MYA501      0.0000 
     26 O2M         3.1390  -40.5640   64.1500 O.2       1 MYA501      0.0000 
     27 C2X        12.2010  -35.4180   69.7070 C.3       1 MYA501      0.0000 
     28 O2X        11.7260  -34.0400   69.7340 O.3       1 MYA501      0.0000 
     29 N3A         9.4640  -35.9970   66.4580 N.ar      1 MYA501      0.0000 
     30 O3A        12.9590  -40.5850   70.8110 O.3       1 MYA501      0.0000 
     31 C3M         3.5750  -38.3540   63.4310 C.3       1 MYA501      0.0000 
     32 C3X        13.7120  -35.5520   69.5600 C.3       1 MYA501      0.0000 
     33 O3X        14.1710  -34.6630   68.5560 O.3       1 MYA501      0.0000 
     34 P3X        14.9230  -33.3540   69.0500 P.3       1 MYA501      0.0000 
     35 C4A         9.3900  -36.5150   67.6720 C.ar      1 MYA501      0.0000 
     36 O4A        12.9240  -43.0560   71.2840 O.co2     1 MYA501      0.0000 
     37 C4M         5.1070  -38.4260   63.4200 C.3       1 MYA501      0.0000 
     38 C4X        13.8140  -36.9670   68.9860 C.3       1 MYA501      0.0000 
     39 O4X        12.5480  -37.2470   68.2960 O.3       1 MYA501      0.0000 
     40 C5A         8.2080  -37.0960   68.1600 C.ar      1 MYA501      0.0000 
     41 O5A        11.1650  -41.3580   72.2650 O.co2     1 MYA501      0.0000 
     42 C5M         5.6360  -37.3750   62.4080 C.3       1 MYA501      0.0000 
     43 C5X        13.9950  -37.9980   70.0680 C.3       1 MYA501      0.0000 
     44 O5X        14.3530  -39.2160   69.3270 O.3       1 MYA501      0.0000 
     45 C6A         7.0750  -37.1180   67.3160 C.ar      1 MYA501      0.0000 
     46 N6A         5.8850  -37.6560   67.6940 N.pl3     1 MYA501      0.0000 
     47 O6A        11.1940  -41.9900   69.7660 O.3       1 MYA501      0.0000 
     48 C6M         7.1860  -37.3850   62.3910 C.3       1 MYA501      0.0000 
     49 N7A         8.4560  -37.5360   69.4500 N.2       1 MYA501      0.0000 
     50 O7A        14.8210  -32.4090   67.9340 O.co2     1 MYA501      0.0000 
     51 C7M         7.8170  -36.2190   61.5990 C.3       1 MYA501      0.0000 
     52 C8A         9.7610  -37.2190   69.7070 C.2       1 MYA501      0.0000 
     53 O8A        16.3110  -33.8970   69.3820 O.co2     1 MYA501      0.0000 
     54 C8M         7.5740  -36.4310   60.0900 C.3       1 MYA501      0.0000 
     55 N9A        10.3240  -36.5970   68.6210 N.pl3     1 MYA501      0.0000 
     56 O9A        14.2050  -32.8960   70.2660 O.co2     1 MYA501      0.0000 
     57 C9M         8.1530  -35.2020   59.3210 C.3       1 MYA501      0.0000 
     58 CAM         7.9280  -35.2570   57.7610 C.3       1 MYA501      0.0000 
     59 CBM         8.8040  -36.4020   57.1420 C.3       1 MYA501      0.0000 
     60 CCM         8.4300  -36.5180   55.6210 C.3       1 MYA501      0.0000 
     61 CDM         8.9470  -35.3150   54.7480 C.3       1 MYA501      0.0000 
     62 CEM         8.5140  -35.5480   53.2760 C.3       1 MYA501      0.0000 
     63 CFM         8.9060  -34.2960   52.4200 C.3       1 MYA501      0.0000 
@<TRIPOS>BOND
     1    1    2 1    
     2    1   25 1    
     3    2    3 1    
     4    3    4 1    
     5    4    5 am   
     6    5    6 2    
     7    5    7 1    
     8    7    8 1    
     9    8    9 1    
    10    9   10 am   
    11   10   11 2    
    12   10   12 1    
    13   12   13 1    
    14   12   14 1    
    15   14   15 1    
    16   14   16 1    
    17   14   17 1    
    18   15   47 1    
    19   18   22 ar   
    20   18   45 ar   
    21   19   20 ar   
    22   20   23 ar   
    23   20   30 1    
    24   20   44 1    
    25   21   27 1    
    26   21   39 1    
    27   21   55 1    
    28   22   29 ar   
    29   24   30 1    
    30   24   36 ar   
    31   24   41 ar   
    32   24   47 1    
    33   25   26 2    
    34   25   31 1    
    35   27   28 1    
    36   27   32 1    
    37   29   35 ar   
    38   31   37 1    
    39   32   33 1    
    40   32   38 1    
    41   33   34 1    
    42   34   50 ar   
    43   34   53 ar   
    44   34   56 ar   
    45   35   40 ar   
    46   35   55 1    
    47   37   42 1    
    48   38   39 1    
    49   38   43 1    
    50   40   45 ar   
    51   40   49 1    
    52   42   48 1    
    53   43   44 1    
    54   45   46 1    
    55   48   51 1    
    56   49   52 2    
    57   51   54 1    
    58   52   55 1    
    59   54   57 1    
    60   57   58 1    
    61   58   59 1    
    62   59   60 1    
    63   60   61 1    
    64   61   62 1    
    65   62   63 1    
@<TRIPOS>SUBSTRUCTURE
     1 MYA501      1 GROUP   
@<TRIPOS>SET

