#    Name: 6h3o_6_FAD
#    Modification time : Fri May 22 19:30:28 2020

@<TRIPOS>MOLECULE
6h3o_6_FAD
   53    58     1     0     1
SMALL
NO_CHARGES


@<TRIPOS>ATOM
      1 PA         35.9670  101.5010  116.9170 P.3       1 FAD701      0.0000 
      2 O1A        36.9720  101.5970  115.8000 O.co2     1 FAD701      0.0000 
      3 O2A        34.5530  101.3820  116.4180 O.co2     1 FAD701      0.0000 
      4 O5B        36.0850  102.8220  117.7870 O.3       1 FAD701      0.0000 
      5 C5B        37.3720  103.2200  118.2390 C.3       1 FAD701      0.0000 
      6 C4B        37.1430  104.6360  118.7250 C.3       1 FAD701      0.0000 
      7 O4B        38.3120  105.1780  119.3370 O.3       1 FAD701      0.0000 
      8 C3B        36.7820  105.5620  117.5760 C.3       1 FAD701      0.0000 
      9 O3B        35.7050  106.3760  117.9910 O.3       1 FAD701      0.0000 
     10 C2B        37.9840  106.4450  117.3570 C.3       1 FAD701      0.0000 
     11 O2B        37.5850  107.7660  117.0140 O.3       1 FAD701      0.0000 
     12 C1B        38.6240  106.4410  118.7210 C.3       1 FAD701      0.0000 
     13 N9A        40.0830  106.5380  118.7620 N.pl3     1 FAD701      0.0000 
     14 C8A        40.9900  105.9500  117.9690 C.2       1 FAD701      0.0000 
     15 N7A        42.2340  106.2750  118.3710 N.2       1 FAD701      0.0000 
     16 C5A        42.1100  107.0620  119.4500 C.ar      1 FAD701      0.0000 
     17 C6A        43.0250  107.7480  120.3740 C.ar      1 FAD701      0.0000 
     18 N6A        44.3710  107.6310  120.1950 N.pl3     1 FAD701      0.0000 
     19 N1A        42.4640  108.4840  121.3780 N.ar      1 FAD701      0.0000 
     20 C2A        41.1270  108.5910  121.5480 C.ar      1 FAD701      0.0000 
     21 N3A        40.2400  107.9860  120.7440 N.ar      1 FAD701      0.0000 
     22 C4A        40.6810  107.2230  119.7090 C.ar      1 FAD701      0.0000 
     23 N1         29.5590   96.1140  111.7690 N.2       1 FAD701      0.0000 
     24 C2         28.3430   95.5470  111.6370 C.2       1 FAD701      0.0000 
     25 O2         27.9770   94.7540  112.5410 O.2       1 FAD701      0.0000 
     26 N3         27.5480   95.8020  110.5520 N.am      1 FAD701      0.0000 
     27 C4         27.9140   96.6410  109.5480 C.2       1 FAD701      0.0000 
     28 O4         27.1620   96.8440  108.5630 O.2       1 FAD701      0.0000 
     29 C4X        29.2470   97.2940  109.6470 C.2       1 FAD701      0.0000 
     30 N5         29.7250   98.1390  108.7080 N.2       1 FAD701      0.0000 
     31 C5X        31.0040   98.5860  108.7690 C.ar      1 FAD701      0.0000 
     32 C6         31.3040   99.6290  107.9000 C.ar      1 FAD701      0.0000 
     33 C7         32.2230  100.6220  108.2130 C.ar      1 FAD701      0.0000 
     34 C7M        32.4760  101.7140  107.2180 C.3       1 FAD701      0.0000 
     35 C8         32.9300  100.5920  109.5190 C.ar      1 FAD701      0.0000 
     36 C8M        33.9370  101.6630  109.8960 C.3       1 FAD701      0.0000 
     37 C9         32.6440   99.5360  110.4070 C.ar      1 FAD701      0.0000 
     38 C9A        31.7210   98.5330  110.0800 C.ar      1 FAD701      0.0000 
     39 N10        31.3120   97.5610  111.0230 N.pl3     1 FAD701      0.0000 
     40 C10        30.0520   96.9700  110.8490 C.2       1 FAD701      0.0000 
     41 C1'        32.2280   96.9890  112.0200 C.3       1 FAD701      0.0000 
     42 C2'        31.9750   97.5510  113.4130 C.3       1 FAD701      0.0000 
     43 O2'        31.3520   98.8230  113.3290 O.3       1 FAD701      0.0000 
     44 C3'        33.2840   97.7620  114.1510 C.3       1 FAD701      0.0000 
     45 O3'        34.0080   96.5230  114.1940 O.3       1 FAD701      0.0000 
     46 C4'        33.0210   98.2820  115.5650 C.3       1 FAD701      0.0000 
     47 O4'        32.6690   99.6710  115.5460 O.3       1 FAD701      0.0000 
     48 C5'        34.2340   98.0960  116.4620 C.3       1 FAD701      0.0000 
     49 O5'        34.0950   98.8880  117.6330 O.3       1 FAD701      0.0000 
     50 P          35.4320   99.1240  118.4700 P.3       1 FAD701      0.0000 
     51 O1P        36.2060   97.8220  118.4250 O.co2     1 FAD701      0.0000 
     52 O2P        35.0620   99.5660  119.8600 O.co2     1 FAD701      0.0000 
     53 O3P        36.4010  100.2470  117.8360 O.3       1 FAD701      0.0000 
@<TRIPOS>BOND
     1    1    2 ar   
     2    1    3 ar   
     3    1    4 1    
     4    1   53 1    
     5    4    5 1    
     6    5    6 1    
     7    6    7 1    
     8    6    8 1    
     9    7   12 1    
    10    8    9 1    
    11    8   10 1    
    12   10   11 1    
    13   10   12 1    
    14   12   13 1    
    15   13   14 1    
    16   13   22 1    
    17   14   15 2    
    18   15   16 1    
    19   16   17 ar   
    20   16   22 ar   
    21   17   18 1    
    22   17   19 ar   
    23   19   20 ar   
    24   20   21 ar   
    25   21   22 ar   
    26   23   24 1    
    27   23   40 2    
    28   24   25 2    
    29   24   26 am   
    30   26   27 am   
    31   27   28 2    
    32   27   29 1    
    33   29   30 2    
    34   29   40 1    
    35   30   31 1    
    36   31   32 ar   
    37   31   38 ar   
    38   32   33 ar   
    39   33   34 1    
    40   33   35 ar   
    41   35   36 1    
    42   35   37 ar   
    43   37   38 ar   
    44   38   39 1    
    45   39   40 1    
    46   39   41 1    
    47   41   42 1    
    48   42   43 1    
    49   42   44 1    
    50   44   45 1    
    51   44   46 1    
    52   46   47 1    
    53   46   48 1    
    54   48   49 1    
    55   49   50 1    
    56   50   51 ar   
    57   50   52 ar   
    58   50   53 1    
@<TRIPOS>SUBSTRUCTURE
     1 FAD701      1 GROUP   
@<TRIPOS>SET
ATOM$ORANGE STATIC     ATOMS   COLORGROUP SYSTEM 
54 5 5 6 6 8 8 10 10 12 12 14 14 16 16 17 17 20 \
20 22 22 24 24 27 27 29 29 31 31 32 32 33 33 34 34 35 \
35 36 36 37 37 38 38 40 40 41 41 42 42 44 44 46 46 48 \
48 

