#    Name: 6h3o_2_FAD
#    Modification time : Fri May 22 19:29:45 2020

@<TRIPOS>MOLECULE
6h3o_2_FAD
   53    58     1     0     1
SMALL
NO_CHARGES


@<TRIPOS>ATOM
      1 PA          8.6170  168.3200   69.4750 P.3       1 FAD701      0.0000 
      2 O1A         7.8080  168.3120   70.7570 O.co2     1 FAD701      0.0000 
      3 O2A         8.3800  167.0940   68.6260 O.co2     1 FAD701      0.0000 
      4 O5B        10.1910  168.3710   69.8160 O.3       1 FAD701      0.0000 
      5 C5B        10.7460  169.5380   70.4150 C.3       1 FAD701      0.0000 
      6 C4B        12.1790  169.2900   70.8830 C.3       1 FAD701      0.0000 
      7 O4B        12.6790  170.4610   71.5370 O.3       1 FAD701      0.0000 
      8 C3B        12.3760  168.1580   71.8970 C.3       1 FAD701      0.0000 
      9 O3B        13.3510  167.2570   71.3870 O.3       1 FAD701      0.0000 
     10 C2B        12.9150  168.7850   73.1790 C.3       1 FAD701      0.0000 
     11 O2B        13.8740  167.9300   73.8210 O.3       1 FAD701      0.0000 
     12 C1B        13.5330  170.0660   72.6320 C.3       1 FAD701      0.0000 
     13 N9A        13.5950  171.2480   73.5020 N.pl3     1 FAD701      0.0000 
     14 C8A        12.5410  171.8170   74.0910 C.2       1 FAD701      0.0000 
     15 N7A        12.9220  172.9190   74.7770 N.2       1 FAD701      0.0000 
     16 C5A        14.2410  173.0820   74.5970 C.ar      1 FAD701      0.0000 
     17 C6A        15.2510  174.0650   75.0340 C.ar      1 FAD701      0.0000 
     18 N6A        14.9090  175.1010   75.8270 N.pl3     1 FAD701      0.0000 
     19 N1A        16.5220  173.8690   74.6170 N.ar      1 FAD701      0.0000 
     20 C2A        16.8630  172.8200   73.8250 C.ar      1 FAD701      0.0000 
     21 N3A        15.9780  171.9000   73.3870 N.ar      1 FAD701      0.0000 
     22 C4A        14.6790  171.9760   73.7380 C.ar      1 FAD701      0.0000 
     23 N1          1.9660  162.5090   66.5760 N.2       1 FAD701      0.0000 
     24 C2          1.6060  161.6130   65.6430 C.2       1 FAD701      0.0000 
     25 O2          1.5700  162.0200   64.4770 O.2       1 FAD701      0.0000 
     26 N3          1.2800  160.3310   65.9260 N.am      1 FAD701      0.0000 
     27 C4          1.3020  159.8840   67.2020 C.2       1 FAD701      0.0000 
     28 O4          1.0060  158.7140   67.5010 O.2       1 FAD701      0.0000 
     29 C4X         1.6800  160.8020   68.2860 C.2       1 FAD701      0.0000 
     30 N5          1.7180  160.4000   69.5720 N.2       1 FAD701      0.0000 
     31 C5X         2.2230  161.2410   70.5090 C.ar      1 FAD701      0.0000 
     32 C6          2.5880  160.7020   71.7360 C.ar      1 FAD701      0.0000 
     33 C7          3.5150  161.3470   72.5520 C.ar      1 FAD701      0.0000 
     34 C7M         3.8810  160.7330   73.8730 C.3       1 FAD701      0.0000 
     35 C8          4.1280  162.6290   72.1110 C.ar      1 FAD701      0.0000 
     36 C8M         5.1280  163.3750   72.9580 C.3       1 FAD701      0.0000 
     37 C9          3.7790  163.1680   70.8840 C.ar      1 FAD701      0.0000 
     38 C9A         2.8430  162.5370   70.0750 C.ar      1 FAD701      0.0000 
     39 N10         2.4240  163.0980   68.8480 N.pl3     1 FAD701      0.0000 
     40 C10         2.0330  162.1780   67.8730 C.2       1 FAD701      0.0000 
     41 C1'         2.5580  164.5200   68.5110 C.3       1 FAD701      0.0000 
     42 C2'         3.8480  164.8100   67.7400 C.3       1 FAD701      0.0000 
     43 O2'         4.9220  163.9250   68.1340 O.3       1 FAD701      0.0000 
     44 C3'         4.2390  166.2860   67.9120 C.3       1 FAD701      0.0000 
     45 O3'         3.1870  167.1100   67.3830 O.3       1 FAD701      0.0000 
     46 C4'         5.5300  166.5940   67.1620 C.3       1 FAD701      0.0000 
     47 O4'         6.6220  165.8480   67.7100 O.3       1 FAD701      0.0000 
     48 C5'         5.7920  168.0970   67.1590 C.3       1 FAD701      0.0000 
     49 O5'         7.0810  168.3600   66.6260 O.3       1 FAD701      0.0000 
     50 P           7.7970  169.7060   67.1050 P.3       1 FAD701      0.0000 
     51 O1P         6.7220  170.7370   66.8770 O.co2     1 FAD701      0.0000 
     52 O2P         9.1120  169.9680   66.4080 O.co2     1 FAD701      0.0000 
     53 O3P         8.2020  169.6530   68.6650 O.3       1 FAD701      0.0000 
@<TRIPOS>BOND
     1    1    2 ar   
     2    1    3 ar   
     3    1    4 1    
     4    1   53 1    
     5    4    5 1    
     6    5    6 1    
     7    6    7 1    
     8    6    8 1    
     9    7   12 1    
    10    8    9 1    
    11    8   10 1    
    12   10   11 1    
    13   10   12 1    
    14   12   13 1    
    15   13   14 1    
    16   13   22 1    
    17   14   15 2    
    18   15   16 1    
    19   16   17 ar   
    20   16   22 ar   
    21   17   18 1    
    22   17   19 ar   
    23   19   20 ar   
    24   20   21 ar   
    25   21   22 ar   
    26   23   24 1    
    27   23   40 2    
    28   24   25 2    
    29   24   26 am   
    30   26   27 am   
    31   27   28 2    
    32   27   29 1    
    33   29   30 2    
    34   29   40 1    
    35   30   31 1    
    36   31   32 ar   
    37   31   38 ar   
    38   32   33 ar   
    39   33   34 1    
    40   33   35 ar   
    41   35   36 1    
    42   35   37 ar   
    43   37   38 ar   
    44   38   39 1    
    45   39   40 1    
    46   39   41 1    
    47   41   42 1    
    48   42   43 1    
    49   42   44 1    
    50   44   45 1    
    51   44   46 1    
    52   46   47 1    
    53   46   48 1    
    54   48   49 1    
    55   49   50 1    
    56   50   51 ar   
    57   50   52 ar   
    58   50   53 1    
@<TRIPOS>SUBSTRUCTURE
     1 FAD701      1 GROUP   
@<TRIPOS>SET
ATOM$ORANGE STATIC     ATOMS   COLORGROUP SYSTEM 
54 5 5 6 6 8 8 10 10 12 12 14 14 16 16 17 17 20 \
20 22 22 24 24 27 27 29 29 31 31 32 32 33 33 34 34 35 \
35 36 36 37 37 38 38 40 40 41 41 42 42 44 44 46 46 48 \
48 

