#    Name: 6h3o_7_FAD
#    Modification time : Fri May 22 19:30:39 2020

@<TRIPOS>MOLECULE
6h3o_7_FAD
   53    58     1     0     1
SMALL
NO_CHARGES


@<TRIPOS>ATOM
      1 PA        -29.3490  127.4000  108.6790 P.3       1 FAD701      0.0000 
      2 O1A       -29.7150  128.1560  107.4230 O.co2     1 FAD701      0.0000 
      3 O2A       -27.9270  127.6650  109.1310 O.co2     1 FAD701      0.0000 
      4 O5B       -29.5170  125.8690  108.2490 O.3       1 FAD701      0.0000 
      5 C5B       -30.6730  125.5130  107.5100 C.3       1 FAD701      0.0000 
      6 C4B       -30.4230  124.1120  107.0020 C.3       1 FAD701      0.0000 
      7 O4B       -31.6280  123.5830  106.4640 O.3       1 FAD701      0.0000 
      8 C3B       -29.4050  124.0960  105.8860 C.3       1 FAD701      0.0000 
      9 O3B       -28.5500  122.9670  106.0490 O.3       1 FAD701      0.0000 
     10 C2B       -30.2220  123.9190  104.6270 C.3       1 FAD701      0.0000 
     11 O2B       -29.4570  123.2270  103.6410 O.3       1 FAD701      0.0000 
     12 C1B       -31.4150  123.1250  105.1370 C.3       1 FAD701      0.0000 
     13 N9A       -32.7090  123.3180  104.4560 N.pl3     1 FAD701      0.0000 
     14 C8A       -33.2930  124.4750  104.1020 C.2       1 FAD701      0.0000 
     15 N7A       -34.4910  124.2370  103.5270 N.2       1 FAD701      0.0000 
     16 C5A       -34.6830  122.9110  103.5460 C.ar      1 FAD701      0.0000 
     17 C6A       -35.7320  121.9760  103.1090 C.ar      1 FAD701      0.0000 
     18 N6A       -36.8510  122.4550  102.5280 N.pl3     1 FAD701      0.0000 
     19 N1A       -35.5340  120.6460  103.3130 N.ar      1 FAD701      0.0000 
     20 C2A       -34.4180  120.1620  103.8930 C.ar      1 FAD701      0.0000 
     21 N3A       -33.4260  120.9690  104.3080 N.ar      1 FAD701      0.0000 
     22 C4A       -33.5080  122.3120  104.1650 C.ar      1 FAD701      0.0000 
     23 N1        -22.2950  133.4750  111.7870 N.2       1 FAD701      0.0000 
     24 C2        -21.2760  133.7700  112.6370 C.2       1 FAD701      0.0000 
     25 O2        -21.5180  133.7600  113.8650 O.2       1 FAD701      0.0000 
     26 N3        -20.0320  134.1010  112.1810 N.am      1 FAD701      0.0000 
     27 C4        -19.7430  134.1320  110.8540 C.2       1 FAD701      0.0000 
     28 O4        -18.5930  134.4160  110.4610 O.2       1 FAD701      0.0000 
     29 C4X       -20.8050  133.8200  109.8760 C.2       1 FAD701      0.0000 
     30 N5        -20.6080  133.8310  108.5400 N.2       1 FAD701      0.0000 
     31 C5X       -21.6500  133.6470  107.6700 C.ar      1 FAD701      0.0000 
     32 C6        -21.4140  133.5890  106.2830 C.ar      1 FAD701      0.0000 
     33 C7        -22.2940  132.9240  105.4180 C.ar      1 FAD701      0.0000 
     34 C7M       -22.0010  132.8730  103.9360 C.3       1 FAD701      0.0000 
     35 C8        -23.5000  132.2500  105.9710 C.ar      1 FAD701      0.0000 
     36 C8M       -24.4810  131.5130  105.0970 C.3       1 FAD701      0.0000 
     37 C9        -23.7440  132.2980  107.3340 C.ar      1 FAD701      0.0000 
     38 C9A       -22.8760  132.9780  108.1960 C.ar      1 FAD701      0.0000 
     39 N10       -23.1780  133.1690  109.5610 N.pl3     1 FAD701      0.0000 
     40 C10       -22.1280  133.4800  110.4390 C.2       1 FAD701      0.0000 
     41 C1'       -24.5590  133.2300  110.0290 C.3       1 FAD701      0.0000 
     42 C2'       -24.9870  131.9040  110.6410 C.3       1 FAD701      0.0000 
     43 O2'       -24.1380  130.8160  110.2440 O.3       1 FAD701      0.0000 
     44 C3'       -26.4220  131.6050  110.2480 C.3       1 FAD701      0.0000 
     45 O3'       -27.2880  132.7070  110.5630 O.3       1 FAD701      0.0000 
     46 C4'       -26.8290  130.3720  111.0220 C.3       1 FAD701      0.0000 
     47 O4'       -25.9580  129.2980  110.6560 O.3       1 FAD701      0.0000 
     48 C5'       -28.2960  130.0330  110.7740 C.3       1 FAD701      0.0000 
     49 O5'       -28.5560  128.7710  111.3780 O.3       1 FAD701      0.0000 
     50 P         -30.0050  128.0970  111.2890 P.3       1 FAD701      0.0000 
     51 O1P       -30.9860  129.1250  111.7790 O.co2     1 FAD701      0.0000 
     52 O2P       -30.0100  126.8540  112.1440 O.co2     1 FAD701      0.0000 
     53 O3P       -30.4300  127.7180  109.8020 O.3       1 FAD701      0.0000 
@<TRIPOS>BOND
     1    1    2 ar   
     2    1    3 ar   
     3    1    4 1    
     4    1   53 1    
     5    4    5 1    
     6    5    6 1    
     7    6    7 1    
     8    6    8 1    
     9    7   12 1    
    10    8    9 1    
    11    8   10 1    
    12   10   11 1    
    13   10   12 1    
    14   12   13 1    
    15   13   14 1    
    16   13   22 1    
    17   14   15 2    
    18   15   16 1    
    19   16   17 ar   
    20   16   22 ar   
    21   17   18 1    
    22   17   19 ar   
    23   19   20 ar   
    24   20   21 ar   
    25   21   22 ar   
    26   23   24 1    
    27   23   40 2    
    28   24   25 2    
    29   24   26 am   
    30   26   27 am   
    31   27   28 2    
    32   27   29 1    
    33   29   30 2    
    34   29   40 1    
    35   30   31 1    
    36   31   32 ar   
    37   31   38 ar   
    38   32   33 ar   
    39   33   34 1    
    40   33   35 ar   
    41   35   36 1    
    42   35   37 ar   
    43   37   38 ar   
    44   38   39 1    
    45   39   40 1    
    46   39   41 1    
    47   41   42 1    
    48   42   43 1    
    49   42   44 1    
    50   44   45 1    
    51   44   46 1    
    52   46   47 1    
    53   46   48 1    
    54   48   49 1    
    55   49   50 1    
    56   50   51 ar   
    57   50   52 ar   
    58   50   53 1    
@<TRIPOS>SUBSTRUCTURE
     1 FAD701      1 GROUP   
@<TRIPOS>SET
ATOM$ORANGE STATIC     ATOMS   COLORGROUP SYSTEM 
54 5 5 6 6 8 8 10 10 12 12 14 14 16 16 17 17 20 \
20 22 22 24 24 27 27 29 29 31 31 32 32 33 33 34 34 35 \
35 36 36 37 37 38 38 40 40 41 41 42 42 44 44 46 46 48 \
48 

