#    Name: 6h3o_3_FAD
#    Modification time : Fri May 22 19:29:57 2020

@<TRIPOS>MOLECULE
6h3o_3_FAD
   53    58     1     0     1
SMALL
NO_CHARGES


@<TRIPOS>ATOM
      1 PA         29.2740  104.0740   49.2320 P.3       1 FAD701      0.0000 
      2 O1A        29.4570  102.9990   50.2730 O.co2     1 FAD701      0.0000 
      3 O2A        29.5610  105.4760   49.7370 O.co2     1 FAD701      0.0000 
      4 O5B        27.7600  104.0560   48.7740 O.3       1 FAD701      0.0000 
      5 C5B        27.2120  102.8970   48.1690 C.3       1 FAD701      0.0000 
      6 C4B        25.7660  103.2680   47.8770 C.3       1 FAD701      0.0000 
      7 O4B        25.1010  102.2430   47.1510 O.3       1 FAD701      0.0000 
      8 C3B        24.9780  103.4780   49.1550 C.3       1 FAD701      0.0000 
      9 O3B        24.2370  104.6850   48.9590 O.3       1 FAD701      0.0000 
     10 C2B        24.1300  102.2290   49.2800 C.3       1 FAD701      0.0000 
     11 O2B        22.8550  102.4930   49.8470 O.3       1 FAD701      0.0000 
     12 C1B        23.9440  101.8240   47.8390 C.3       1 FAD701      0.0000 
     13 N9A        23.7910  100.3840   47.6150 N.pl3     1 FAD701      0.0000 
     14 C8A        24.4730   99.3660   48.1810 C.2       1 FAD701      0.0000 
     15 N7A        24.0380   98.1700   47.6840 N.2       1 FAD701      0.0000 
     16 C5A        23.0720   98.4500   46.7840 C.ar      1 FAD701      0.0000 
     17 C6A        22.1820   97.6790   45.8950 C.ar      1 FAD701      0.0000 
     18 N6A        22.2480   96.3310   45.8830 N.pl3     1 FAD701      0.0000 
     19 N1A        21.3100   98.3700   45.1160 N.ar      1 FAD701      0.0000 
     20 C2A        21.2330   99.7190   45.1340 C.ar      1 FAD701      0.0000 
     21 N3A        22.0130  100.4750   45.9220 N.ar      1 FAD701      0.0000 
     22 C4A        22.9250   99.9080   46.7390 C.ar      1 FAD701      0.0000 
     23 N1         35.5020  109.2840   54.5170 N.2       1 FAD701      0.0000 
     24 C2         36.1330  110.4560   54.6840 C.2       1 FAD701      0.0000 
     25 O2         36.8110  110.9030   53.7300 O.2       1 FAD701      0.0000 
     26 N3         36.0470  111.1310   55.8530 N.am      1 FAD701      0.0000 
     27 C4         35.3290  110.6770   56.8980 C.2       1 FAD701      0.0000 
     28 O4         35.2800  111.3390   57.9460 O.2       1 FAD701      0.0000 
     29 C4X        34.6040  109.4020   56.7780 C.2       1 FAD701      0.0000 
     30 N5         33.8650  108.8590   57.7730 N.2       1 FAD701      0.0000 
     31 C5X        33.2700  107.6370   57.6260 C.ar      1 FAD701      0.0000 
     32 C6         32.2930  107.2590   58.5610 C.ar      1 FAD701      0.0000 
     33 C7         31.2490  106.3910   58.2350 C.ar      1 FAD701      0.0000 
     34 C7M        30.2280  106.0060   59.2580 C.3       1 FAD701      0.0000 
     35 C8         31.1470  105.8450   56.8610 C.ar      1 FAD701      0.0000 
     36 C8M        30.0440  104.9000   56.4640 C.3       1 FAD701      0.0000 
     37 C9         32.1070  106.2090   55.9120 C.ar      1 FAD701      0.0000 
     38 C9A        33.1710  107.0690   56.2400 C.ar      1 FAD701      0.0000 
     39 N10        34.1010  107.5090   55.2700 N.pl3     1 FAD701      0.0000 
     40 C10        34.7470  108.7260   55.4820 C.2       1 FAD701      0.0000 
     41 C1'        34.3380  106.8020   54.0140 C.3       1 FAD701      0.0000 
     42 C2'        33.4650  107.3160   52.8690 C.3       1 FAD701      0.0000 
     43 O2'        32.2120  107.8450   53.3320 O.3       1 FAD701      0.0000 
     44 C3'        33.3030  106.1570   51.8920 C.3       1 FAD701      0.0000 
     45 O3'        34.6210  105.6600   51.6290 O.3       1 FAD701      0.0000 
     46 C4'        32.6490  106.5610   50.5810 C.3       1 FAD701      0.0000 
     47 O4'        31.3160  106.9620   50.8660 O.3       1 FAD701      0.0000 
     48 C5'        32.6260  105.4140   49.5710 C.3       1 FAD701      0.0000 
     49 O5'        31.8810  105.7480   48.3900 O.3       1 FAD701      0.0000 
     50 P          31.3830  104.5730   47.3900 P.3       1 FAD701      0.0000 
     51 O1P        32.5310  103.6040   47.2100 O.co2     1 FAD701      0.0000 
     52 O2P        30.9220  105.1820   46.0820 O.co2     1 FAD701      0.0000 
     53 O3P        30.1550  103.6970   47.9500 O.3       1 FAD701      0.0000 
@<TRIPOS>BOND
     1    1    2 ar   
     2    1    3 ar   
     3    1    4 1    
     4    1   53 1    
     5    4    5 1    
     6    5    6 1    
     7    6    7 1    
     8    6    8 1    
     9    7   12 1    
    10    8    9 1    
    11    8   10 1    
    12   10   11 1    
    13   10   12 1    
    14   12   13 1    
    15   13   14 1    
    16   13   22 1    
    17   14   15 2    
    18   15   16 1    
    19   16   17 ar   
    20   16   22 ar   
    21   17   18 1    
    22   17   19 ar   
    23   19   20 ar   
    24   20   21 ar   
    25   21   22 ar   
    26   23   24 1    
    27   23   40 2    
    28   24   25 2    
    29   24   26 am   
    30   26   27 am   
    31   27   28 2    
    32   27   29 1    
    33   29   30 2    
    34   29   40 1    
    35   30   31 1    
    36   31   32 ar   
    37   31   38 ar   
    38   32   33 ar   
    39   33   34 1    
    40   33   35 ar   
    41   35   36 1    
    42   35   37 ar   
    43   37   38 ar   
    44   38   39 1    
    45   39   40 1    
    46   39   41 1    
    47   41   42 1    
    48   42   43 1    
    49   42   44 1    
    50   44   45 1    
    51   44   46 1    
    52   46   47 1    
    53   46   48 1    
    54   48   49 1    
    55   49   50 1    
    56   50   51 ar   
    57   50   52 ar   
    58   50   53 1    
@<TRIPOS>SUBSTRUCTURE
     1 FAD701      1 GROUP   
@<TRIPOS>SET
ATOM$ORANGE STATIC     ATOMS   COLORGROUP SYSTEM 
54 5 5 6 6 8 8 10 10 12 12 14 14 16 16 17 17 20 \
20 22 22 24 24 27 27 29 29 31 31 32 32 33 33 34 34 35 \
35 36 36 37 37 38 38 40 40 41 41 42 42 44 44 46 46 48 \
48 

