#    Name: 6h3o_4_FAD
#    Modification time : Fri May 22 19:30:08 2020

@<TRIPOS>MOLECULE
6h3o_4_FAD
   53    58     1     0     1
SMALL
NO_CHARGES


@<TRIPOS>ATOM
      1 PA         51.4720  142.7510   71.4660 P.3       1 FAD701      0.0000 
      2 O1A        51.6820  142.6170   72.9380 O.co2     1 FAD701      0.0000 
      3 O2A        50.0290  143.1360   71.2050 O.co2     1 FAD701      0.0000 
      4 O5B        51.8090  141.3970   70.6820 O.3       1 FAD701      0.0000 
      5 C5B        52.9440  140.6260   71.0490 C.3       1 FAD701      0.0000 
      6 C4B        52.7570  139.2040   70.5160 C.3       1 FAD701      0.0000 
      7 O4B        53.9190  138.3640   70.5590 O.3       1 FAD701      0.0000 
      8 C3B        51.7180  138.4780   71.3110 C.3       1 FAD701      0.0000 
      9 O3B        50.9330  137.9490   70.2750 O.3       1 FAD701      0.0000 
     10 C2B        52.4260  137.3920   72.0880 C.3       1 FAD701      0.0000 
     11 O2B        51.6460  136.2020   72.2040 O.3       1 FAD701      0.0000 
     12 C1B        53.6190  137.1380   71.2100 C.3       1 FAD701      0.0000 
     13 N9A        54.8940  136.8550   71.8510 N.pl3     1 FAD701      0.0000 
     14 C8A        55.4160  137.3920   72.9630 C.2       1 FAD701      0.0000 
     15 N7A        56.6570  136.8810   73.1570 N.2       1 FAD701      0.0000 
     16 C5A        56.9120  136.0250   72.1590 C.ar      1 FAD701      0.0000 
     17 C6A        58.0270  135.1570   71.7470 C.ar      1 FAD701      0.0000 
     18 N6A        59.1590  135.0850   72.4880 N.pl3     1 FAD701      0.0000 
     19 N1A        57.8660  134.4290   70.6090 N.ar      1 FAD701      0.0000 
     20 C2A        56.7410  134.4730   69.8580 C.ar      1 FAD701      0.0000 
     21 N3A        55.6910  135.2450   70.1850 N.ar      1 FAD701      0.0000 
     22 C4A        55.7420  136.0270   71.2920 C.ar      1 FAD701      0.0000 
     23 N1         44.4670  149.4010   73.5830 N.2       1 FAD701      0.0000 
     24 C2         43.4580  150.1680   73.1020 C.2       1 FAD701      0.0000 
     25 O2         43.7400  150.9530   72.1640 O.2       1 FAD701      0.0000 
     26 N3         42.1930  150.0900   73.6340 N.am      1 FAD701      0.0000 
     27 C4         41.8780  149.2520   74.6660 C.2       1 FAD701      0.0000 
     28 O4         40.7120  149.1990   75.1400 O.2       1 FAD701      0.0000 
     29 C4X        42.9530  148.3920   75.2140 C.2       1 FAD701      0.0000 
     30 N5         42.7600  147.5280   76.2220 N.2       1 FAD701      0.0000 
     31 C5X        43.7820  146.8230   76.7820 C.ar      1 FAD701      0.0000 
     32 C6         43.4060  145.7280   77.5600 C.ar      1 FAD701      0.0000 
     33 C7         44.1830  144.5780   77.6220 C.ar      1 FAD701      0.0000 
     34 C7M        43.7340  143.4130   78.4670 C.3       1 FAD701      0.0000 
     35 C8         45.4480  144.4860   76.8660 C.ar      1 FAD701      0.0000 
     36 C8M        46.2950  143.2410   76.9380 C.3       1 FAD701      0.0000 
     37 C9         45.8480  145.5680   76.1010 C.ar      1 FAD701      0.0000 
     38 C9A        45.0820  146.7390   76.0460 C.ar      1 FAD701      0.0000 
     39 N10        45.3460  147.7340   75.0700 N.pl3     1 FAD701      0.0000 
     40 C10        44.2830  148.5220   74.5920 C.2       1 FAD701      0.0000 
     41 C1'        46.7030  148.0050   74.5880 C.3       1 FAD701      0.0000 
     42 C2'        46.9900  147.3600   73.2370 C.3       1 FAD701      0.0000 
     43 O2'        46.1510  146.2270   73.0070 O.3       1 FAD701      0.0000 
     44 C3'        48.4640  146.9680   73.2500 C.3       1 FAD701      0.0000 
     45 O3'        49.2580  148.1420   73.5050 O.3       1 FAD701      0.0000 
     46 C4'        48.8920  146.3060   71.9430 C.3       1 FAD701      0.0000 
     47 O4'        48.2130  145.0520   71.7530 O.3       1 FAD701      0.0000 
     48 C5'        50.4030  146.0690   71.9080 C.3       1 FAD701      0.0000 
     49 O5'        50.7940  145.8450   70.5500 O.3       1 FAD701      0.0000 
     50 P          52.2340  145.2150   70.2320 P.3       1 FAD701      0.0000 
     51 O1P        53.2670  146.2390   70.5940 O.co2     1 FAD701      0.0000 
     52 O2P        52.3030  144.7780   68.7940 O.co2     1 FAD701      0.0000 
     53 O3P        52.5210  143.9090   71.1180 O.3       1 FAD701      0.0000 
@<TRIPOS>BOND
     1    1    2 ar   
     2    1    3 ar   
     3    1    4 1    
     4    1   53 1    
     5    4    5 1    
     6    5    6 1    
     7    6    7 1    
     8    6    8 1    
     9    7   12 1    
    10    8    9 1    
    11    8   10 1    
    12   10   11 1    
    13   10   12 1    
    14   12   13 1    
    15   13   14 1    
    16   13   22 1    
    17   14   15 2    
    18   15   16 1    
    19   16   17 ar   
    20   16   22 ar   
    21   17   18 1    
    22   17   19 ar   
    23   19   20 ar   
    24   20   21 ar   
    25   21   22 ar   
    26   23   24 1    
    27   23   40 2    
    28   24   25 2    
    29   24   26 am   
    30   26   27 am   
    31   27   28 2    
    32   27   29 1    
    33   29   30 2    
    34   29   40 1    
    35   30   31 1    
    36   31   32 ar   
    37   31   38 ar   
    38   32   33 ar   
    39   33   34 1    
    40   33   35 ar   
    41   35   36 1    
    42   35   37 ar   
    43   37   38 ar   
    44   38   39 1    
    45   39   40 1    
    46   39   41 1    
    47   41   42 1    
    48   42   43 1    
    49   42   44 1    
    50   44   45 1    
    51   44   46 1    
    52   46   47 1    
    53   46   48 1    
    54   48   49 1    
    55   49   50 1    
    56   50   51 ar   
    57   50   52 ar   
    58   50   53 1    
@<TRIPOS>SUBSTRUCTURE
     1 FAD701      1 GROUP   
@<TRIPOS>SET
ATOM$ORANGE STATIC     ATOMS   COLORGROUP SYSTEM 
54 5 5 6 6 8 8 10 10 12 12 14 14 16 16 17 17 20 \
20 22 22 24 24 27 27 29 29 31 31 32 32 33 33 34 34 35 \
35 36 36 37 37 38 38 40 40 41 41 42 42 44 44 46 46 48 \
48 

