#    Name: 6h3o_8_FAD
#    Modification time : Fri May 22 19:30:49 2020

@<TRIPOS>MOLECULE
6h3o_8_FAD
   53    58     1     0     1
SMALL
NO_CHARGES


@<TRIPOS>ATOM
      1 PA         13.2770  144.2720  128.1500 P.3       1 FAD701      0.0000 
      2 O1A        13.7780  145.2770  127.1370 O.co2     1 FAD701      0.0000 
      3 O2A        13.6280  142.8450  127.7720 O.co2     1 FAD701      0.0000 
      4 O5B        11.6930  144.4150  128.1650 O.3       1 FAD701      0.0000 
      5 C5B        11.2080  145.7420  128.3670 C.3       1 FAD701      0.0000 
      6 C4B         9.7630  145.7810  127.9340 C.3       1 FAD701      0.0000 
      7 O4B         9.1490  147.0180  128.2840 O.3       1 FAD701      0.0000 
      8 C3B         9.6730  145.6570  126.4400 C.3       1 FAD701      0.0000 
      9 O3B         8.6700  144.6750  126.1930 O.3       1 FAD701      0.0000 
     10 C2B         9.2990  147.0460  125.9600 C.3       1 FAD701      0.0000 
     11 O2B         8.5350  146.9830  124.7570 O.3       1 FAD701      0.0000 
     12 C1B         8.5030  147.5840  127.1460 C.3       1 FAD701      0.0000 
     13 N9A         8.4740  149.0550  127.3440 N.pl3     1 FAD701      0.0000 
     14 C8A         9.5130  149.8880  127.2420 C.2       1 FAD701      0.0000 
     15 N7A         9.1120  151.1570  127.4990 N.2       1 FAD701      0.0000 
     16 C5A         7.7970  151.1500  127.7840 C.ar      1 FAD701      0.0000 
     17 C6A         6.7560  152.1510  128.1450 C.ar      1 FAD701      0.0000 
     18 N6A         7.0330  153.4700  128.2740 N.pl3     1 FAD701      0.0000 
     19 N1A         5.4940  151.6990  128.3410 N.ar      1 FAD701      0.0000 
     20 C2A         5.1870  150.3840  128.2340 C.ar      1 FAD701      0.0000 
     21 N3A         6.0980  149.4410  127.9010 N.ar      1 FAD701      0.0000 
     22 C4A         7.3900  149.7500  127.6710 C.ar      1 FAD701      0.0000 
     23 N1         20.2410  137.9640  126.3950 N.2       1 FAD701      0.0000 
     24 C2         20.6560  136.6670  126.4980 C.2       1 FAD701      0.0000 
     25 O2         20.7710  136.1460  127.6440 O.2       1 FAD701      0.0000 
     26 N3         20.9670  135.9330  125.3880 N.am      1 FAD701      0.0000 
     27 C4         20.8720  136.4420  124.1300 C.2       1 FAD701      0.0000 
     28 O4         21.1540  135.7400  123.1430 O.2       1 FAD701      0.0000 
     29 C4X        20.4200  137.8470  123.9460 C.2       1 FAD701      0.0000 
     30 N5         20.3050  138.4280  122.7280 N.2       1 FAD701      0.0000 
     31 C5X        19.9790  139.7430  122.6230 C.ar      1 FAD701      0.0000 
     32 C6         19.7060  140.2520  121.3560 C.ar      1 FAD701      0.0000 
     33 C7         18.8460  141.3380  121.1670 C.ar      1 FAD701      0.0000 
     34 C7M        18.5900  141.8480  119.7700 C.3       1 FAD701      0.0000 
     35 C8         18.1890  141.9760  122.3380 C.ar      1 FAD701      0.0000 
     36 C8M        17.2460  143.1460  122.2020 C.3       1 FAD701      0.0000 
     37 C9         18.4550  141.4780  123.6030 C.ar      1 FAD701      0.0000 
     38 C9A        19.3280  140.4020  123.7920 C.ar      1 FAD701      0.0000 
     39 N10        19.6540  139.9240  125.0790 N.pl3     1 FAD701      0.0000 
     40 C10        20.0980  138.5910  125.1910 C.2       1 FAD701      0.0000 
     41 C1'        19.4340  140.7350  126.2790 C.3       1 FAD701      0.0000 
     42 C2'        18.0870  140.4150  126.9160 C.3       1 FAD701      0.0000 
     43 O2'        17.0420  140.1260  125.9540 O.3       1 FAD701      0.0000 
     44 C3'        17.6960  141.5780  127.8150 C.3       1 FAD701      0.0000 
     45 O3'        18.7990  141.8900  128.6660 O.3       1 FAD701      0.0000 
     46 C4'        16.4750  141.2370  128.6530 C.3       1 FAD701      0.0000 
     47 O4'        15.3520  141.0360  127.7710 O.3       1 FAD701      0.0000 
     48 C5'        16.2220  142.3570  129.6650 C.3       1 FAD701      0.0000 
     49 O5'        14.8950  142.3240  130.1830 O.3       1 FAD701      0.0000 
     50 P          14.2830  143.7010  130.7330 P.3       1 FAD701      0.0000 
     51 O1P        15.3570  144.3900  131.5560 O.co2     1 FAD701      0.0000 
     52 O2P        13.0600  143.4130  131.5450 O.co2     1 FAD701      0.0000 
     53 O3P        13.8830  144.7210  129.5590 O.3       1 FAD701      0.0000 
@<TRIPOS>BOND
     1    1    2 ar   
     2    1    3 ar   
     3    1    4 1    
     4    1   53 1    
     5    4    5 1    
     6    5    6 1    
     7    6    7 1    
     8    6    8 1    
     9    7   12 1    
    10    8    9 1    
    11    8   10 1    
    12   10   11 1    
    13   10   12 1    
    14   12   13 1    
    15   13   14 1    
    16   13   22 1    
    17   14   15 2    
    18   15   16 1    
    19   16   17 ar   
    20   16   22 ar   
    21   17   18 1    
    22   17   19 ar   
    23   19   20 ar   
    24   20   21 ar   
    25   21   22 ar   
    26   23   24 1    
    27   23   40 2    
    28   24   25 2    
    29   24   26 am   
    30   26   27 am   
    31   27   28 2    
    32   27   29 1    
    33   29   30 2    
    34   29   40 1    
    35   30   31 1    
    36   31   32 ar   
    37   31   38 ar   
    38   32   33 ar   
    39   33   34 1    
    40   33   35 ar   
    41   35   36 1    
    42   35   37 ar   
    43   37   38 ar   
    44   38   39 1    
    45   39   40 1    
    46   39   41 1    
    47   41   42 1    
    48   42   43 1    
    49   42   44 1    
    50   44   45 1    
    51   44   46 1    
    52   46   47 1    
    53   46   48 1    
    54   48   49 1    
    55   49   50 1    
    56   50   51 ar   
    57   50   52 ar   
    58   50   53 1    
@<TRIPOS>SUBSTRUCTURE
     1 FAD701      1 GROUP   
@<TRIPOS>SET
ATOM$ORANGE STATIC     ATOMS   COLORGROUP SYSTEM 
54 5 5 6 6 8 8 10 10 12 12 14 14 16 16 17 17 20 \
20 22 22 24 24 27 27 29 29 31 31 32 32 33 33 34 34 35 \
35 36 36 37 37 38 38 40 40 41 41 42 42 44 44 46 46 48 \
48 

