#    Name: 6h3o_1_FAD
#    Modification time : Fri May 22 19:29:33 2020

@<TRIPOS>MOLECULE
6h3o_1_FAD
   53    58     1     0     1
SMALL
NO_CHARGES


@<TRIPOS>ATOM
      1 PA        -13.3970  129.9110   47.3640 P.3       1 FAD701      0.0000 
      2 O1A       -14.2240  129.1230   48.3210 O.co2     1 FAD701      0.0000 
      3 O2A       -11.9650  129.4660   47.4830 O.co2     1 FAD701      0.0000 
      4 O5B       -13.5010  131.4600   47.7220 O.3       1 FAD701      0.0000 
      5 C5B       -14.6850  132.1800   47.4240 C.3       1 FAD701      0.0000 
      6 C4B       -14.6600  133.4480   48.2570 C.3       1 FAD701      0.0000 
      7 O4B       -15.9310  134.0800   48.1920 O.3       1 FAD701      0.0000 
      8 C3B       -14.4170  133.1960   49.7350 C.3       1 FAD701      0.0000 
      9 O3B       -13.3540  134.0570   50.1360 O.3       1 FAD701      0.0000 
     10 C2B       -15.7340  133.5230   50.4140 C.3       1 FAD701      0.0000 
     11 O2B       -15.5910  134.0950   51.7060 O.3       1 FAD701      0.0000 
     12 C1B       -16.3430  134.5280   49.4780 C.3       1 FAD701      0.0000 
     13 N9A       -17.8280  134.6250   49.5080 N.pl3     1 FAD701      0.0000 
     14 C8A       -18.7580  133.6510   49.6450 C.2       1 FAD701      0.0000 
     15 N7A       -20.0090  134.1840   49.6110 N.2       1 FAD701      0.0000 
     16 C5A       -19.8730  135.5150   49.4310 C.ar      1 FAD701      0.0000 
     17 C6A       -20.7470  136.6950   49.2800 C.ar      1 FAD701      0.0000 
     18 N6A       -22.0860  136.5960   49.3270 N.pl3     1 FAD701      0.0000 
     19 N1A       -20.1680  137.9090   49.0960 N.ar      1 FAD701      0.0000 
     20 C2A       -18.8350  138.0860   49.0590 C.ar      1 FAD701      0.0000 
     21 N3A       -17.9880  137.0510   49.1780 N.ar      1 FAD701      0.0000 
     22 C4A       -18.4390  135.7850   49.3570 C.ar      1 FAD701      0.0000 
     23 N1         -7.2870  122.3710   47.3070 N.2       1 FAD701      0.0000 
     24 C2         -6.0770  121.8540   47.0340 C.2       1 FAD701      0.0000 
     25 O2         -5.6680  121.8880   45.8520 O.2       1 FAD701      0.0000 
     26 N3         -5.3190  121.2780   48.0030 N.am      1 FAD701      0.0000 
     27 C4         -5.7140  121.2050   49.2920 C.2       1 FAD701      0.0000 
     28 O4         -4.9990  120.6910   50.1590 O.2       1 FAD701      0.0000 
     29 C4X        -7.0180  121.7550   49.6630 C.2       1 FAD701      0.0000 
     30 N5         -7.4870  121.7250   50.9300 N.2       1 FAD701      0.0000 
     31 C5X        -8.6900  122.2940   51.2360 C.ar      1 FAD701      0.0000 
     32 C6         -9.0150  122.5260   52.5730 C.ar      1 FAD701      0.0000 
     33 C7        -10.0520  123.3730   52.9480 C.ar      1 FAD701      0.0000 
     34 C7M       -10.3550  123.5740   54.4210 C.3       1 FAD701      0.0000 
     35 C8        -10.8390  124.0500   51.8770 C.ar      1 FAD701      0.0000 
     36 C8M       -11.9870  124.9870   52.1560 C.3       1 FAD701      0.0000 
     37 C9        -10.5210  123.8230   50.5490 C.ar      1 FAD701      0.0000 
     38 C9A        -9.4840  122.9690   50.1700 C.ar      1 FAD701      0.0000 
     39 N10        -9.0400  122.9060   48.8250 N.pl3     1 FAD701      0.0000 
     40 C10        -7.7900  122.3560   48.5560 C.2       1 FAD701      0.0000 
     41 C1'        -9.8910  123.2550   47.6860 C.3       1 FAD701      0.0000 
     42 C2'        -9.7190  124.7190   47.2490 C.3       1 FAD701      0.0000 
     43 O2'        -9.2930  125.5990   48.3090 O.3       1 FAD701      0.0000 
     44 C3'       -11.0510  125.2270   46.7310 C.3       1 FAD701      0.0000 
     45 O3'       -11.6490  124.3050   45.8210 O.3       1 FAD701      0.0000 
     46 C4'       -10.8480  126.5640   46.0770 C.3       1 FAD701      0.0000 
     47 O4'       -10.2370  127.3790   47.0850 O.3       1 FAD701      0.0000 
     48 C5'       -12.1910  127.0990   45.5600 C.3       1 FAD701      0.0000 
     49 O5'       -11.9900  128.2910   44.8120 O.3       1 FAD701      0.0000 
     50 P         -13.2190  129.2880   44.5120 P.3       1 FAD701      0.0000 
     51 O1P       -14.1430  128.5330   43.5570 O.co2     1 FAD701      0.0000 
     52 O2P       -12.7370  130.6160   43.9330 O.co2     1 FAD701      0.0000 
     53 O3P       -14.0100  129.6930   45.8810 O.3       1 FAD701      0.0000 
@<TRIPOS>BOND
     1    1    2 ar   
     2    1    3 ar   
     3    1    4 1    
     4    1   53 1    
     5    4    5 1    
     6    5    6 1    
     7    6    7 1    
     8    6    8 1    
     9    7   12 1    
    10    8    9 1    
    11    8   10 1    
    12   10   11 1    
    13   10   12 1    
    14   12   13 1    
    15   13   14 1    
    16   13   22 1    
    17   14   15 2    
    18   15   16 1    
    19   16   17 ar   
    20   16   22 ar   
    21   17   18 1    
    22   17   19 ar   
    23   19   20 ar   
    24   20   21 ar   
    25   21   22 ar   
    26   23   24 1    
    27   23   40 2    
    28   24   25 2    
    29   24   26 am   
    30   26   27 am   
    31   27   28 2    
    32   27   29 1    
    33   29   30 2    
    34   29   40 1    
    35   30   31 1    
    36   31   32 ar   
    37   31   38 ar   
    38   32   33 ar   
    39   33   34 1    
    40   33   35 ar   
    41   35   36 1    
    42   35   37 ar   
    43   37   38 ar   
    44   38   39 1    
    45   39   40 1    
    46   39   41 1    
    47   41   42 1    
    48   42   43 1    
    49   42   44 1    
    50   44   45 1    
    51   44   46 1    
    52   46   47 1    
    53   46   48 1    
    54   48   49 1    
    55   49   50 1    
    56   50   51 ar   
    57   50   52 ar   
    58   50   53 1    
@<TRIPOS>SUBSTRUCTURE
     1 FAD701      1 GROUP   
@<TRIPOS>SET
ATOM$ORANGE STATIC     ATOMS   COLORGROUP SYSTEM 
54 5 5 6 6 8 8 10 10 12 12 14 14 16 16 17 17 20 \
20 22 22 24 24 27 27 29 29 31 31 32 32 33 33 34 34 35 \
35 36 36 37 37 38 38 40 40 41 41 42 42 44 44 46 46 48 \
48 

