#    Name: 6h3o_5_FAD
#    Modification time : Fri May 22 19:30:17 2020

@<TRIPOS>MOLECULE
6h3o_5_FAD
   53    58     1     0     1
SMALL
NO_CHARGES


@<TRIPOS>ATOM
      1 PA         -6.8300   84.3490   97.4080 P.3       1 FAD701      0.0000 
      2 O1A        -6.7910   84.4410   95.9160 O.co2     1 FAD701      0.0000 
      3 O2A        -7.1300   85.7050   98.0030 O.co2     1 FAD701      0.0000 
      4 O5B        -5.3560   83.9040   97.8410 O.3       1 FAD701      0.0000 
      5 C5B        -4.8020   82.6740   97.3860 C.3       1 FAD701      0.0000 
      6 C4B        -3.3380   82.7240   97.7900 C.3       1 FAD701      0.0000 
      7 O4B        -2.6620   81.4840   97.5840 O.3       1 FAD701      0.0000 
      8 C3B        -2.6010   83.7720   96.9890 C.3       1 FAD701      0.0000 
      9 O3B        -1.9510   84.6120   97.9350 O.3       1 FAD701      0.0000 
     10 C2B        -1.6300   83.0010   96.1240 C.3       1 FAD701      0.0000 
     11 O2B        -0.4080   83.7080   95.9750 O.3       1 FAD701      0.0000 
     12 C1B        -1.4420   81.6960   96.8830 C.3       1 FAD701      0.0000 
     13 N9A        -1.2150   80.4810   96.0580 N.pl3     1 FAD701      0.0000 
     14 C8A        -1.8940   80.1140   94.9500 C.2       1 FAD701      0.0000 
     15 N7A        -1.4280   78.9350   94.4670 N.2       1 FAD701      0.0000 
     16 C5A        -0.4450   78.5270   95.2900 C.ar      1 FAD701      0.0000 
     17 C6A         0.4620   77.3660   95.3730 C.ar      1 FAD701      0.0000 
     18 N6A         0.3930   76.3950   94.4420 N.pl3     1 FAD701      0.0000 
     19 N1A         1.3590   77.3230   96.3940 N.ar      1 FAD701      0.0000 
     20 C2A         1.4400   78.2880   97.3370 C.ar      1 FAD701      0.0000 
     21 N3A         0.6400   79.3690   97.3210 N.ar      1 FAD701      0.0000 
     22 C4A        -0.3080   79.5420   96.3450 C.ar      1 FAD701      0.0000 
     23 N1        -13.0690   91.5430   97.2040 N.2       1 FAD701      0.0000 
     24 C2        -13.7840   92.5240   97.8080 C.2       1 FAD701      0.0000 
     25 O2        -14.4900   92.2380   98.7980 O.2       1 FAD701      0.0000 
     26 N3        -13.7750   93.8050   97.3660 N.am      1 FAD701      0.0000 
     27 C4        -13.0440   94.1890   96.2990 C.2       1 FAD701      0.0000 
     28 O4        -13.0490   95.3810   95.9170 O.2       1 FAD701      0.0000 
     29 C4X       -12.2290   93.1690   95.5950 C.2       1 FAD701      0.0000 
     30 N5        -11.4770   93.4720   94.5120 N.2       1 FAD701      0.0000 
     31 C5X       -10.7400   92.5310   93.8910 C.ar      1 FAD701      0.0000 
     32 C6         -9.7920   92.9700   92.9890 C.ar      1 FAD701      0.0000 
     33 C7         -8.7510   92.1570   92.5680 C.ar      1 FAD701      0.0000 
     34 C7M        -7.7680   92.7160   91.5730 C.3       1 FAD701      0.0000 
     35 C8         -8.6310   90.7770   93.1040 C.ar      1 FAD701      0.0000 
     36 C8M        -7.5090   89.8620   92.6700 C.3       1 FAD701      0.0000 
     37 C9         -9.5830   90.3250   94.0220 C.ar      1 FAD701      0.0000 
     38 C9A       -10.6430   91.1440   94.4410 C.ar      1 FAD701      0.0000 
     39 N10       -11.5430   90.7720   95.4920 N.pl3     1 FAD701      0.0000 
     40 C10       -12.2910   91.7890   96.1290 C.2       1 FAD701      0.0000 
     41 C1'       -11.8940   89.3750   95.7530 C.3       1 FAD701      0.0000 
     42 C2'       -11.1140   88.8350   96.9460 C.3       1 FAD701      0.0000 
     43 O2'        -9.8030   89.4220   97.0710 O.3       1 FAD701      0.0000 
     44 C3'       -10.9820   87.3320   96.7880 C.3       1 FAD701      0.0000 
     45 O3'       -12.2650   86.7910   96.4740 O.3       1 FAD701      0.0000 
     46 C4'       -10.5010   86.7190   98.0810 C.3       1 FAD701      0.0000 
     47 O4'        -9.2990   87.3450   98.5320 O.3       1 FAD701      0.0000 
     48 C5'       -10.2580   85.2430   97.8800 C.3       1 FAD701      0.0000 
     49 O5'        -9.5420   84.7760   99.0150 O.3       1 FAD701      0.0000 
     50 P          -8.9700   83.2820   98.9660 P.3       1 FAD701      0.0000 
     51 O1P       -10.1290   82.4040   98.5460 O.co2     1 FAD701      0.0000 
     52 O2P        -8.4400   82.9520  100.3470 O.co2     1 FAD701      0.0000 
     53 O3P        -7.8220   83.1590   97.8440 O.3       1 FAD701      0.0000 
@<TRIPOS>BOND
     1    1    2 ar   
     2    1    3 ar   
     3    1    4 1    
     4    1   53 1    
     5    4    5 1    
     6    5    6 1    
     7    6    7 1    
     8    6    8 1    
     9    7   12 1    
    10    8    9 1    
    11    8   10 1    
    12   10   11 1    
    13   10   12 1    
    14   12   13 1    
    15   13   14 1    
    16   13   22 1    
    17   14   15 2    
    18   15   16 1    
    19   16   17 ar   
    20   16   22 ar   
    21   17   18 1    
    22   17   19 ar   
    23   19   20 ar   
    24   20   21 ar   
    25   21   22 ar   
    26   23   24 1    
    27   23   40 2    
    28   24   25 2    
    29   24   26 am   
    30   26   27 am   
    31   27   28 2    
    32   27   29 1    
    33   29   30 2    
    34   29   40 1    
    35   30   31 1    
    36   31   32 ar   
    37   31   38 ar   
    38   32   33 ar   
    39   33   34 1    
    40   33   35 ar   
    41   35   36 1    
    42   35   37 ar   
    43   37   38 ar   
    44   38   39 1    
    45   39   40 1    
    46   39   41 1    
    47   41   42 1    
    48   42   43 1    
    49   42   44 1    
    50   44   45 1    
    51   44   46 1    
    52   46   47 1    
    53   46   48 1    
    54   48   49 1    
    55   49   50 1    
    56   50   51 ar   
    57   50   52 ar   
    58   50   53 1    
@<TRIPOS>SUBSTRUCTURE
     1 FAD701      1 GROUP   
@<TRIPOS>SET
ATOM$ORANGE STATIC     ATOMS   COLORGROUP SYSTEM 
54 5 5 6 6 8 8 10 10 12 12 14 14 16 16 17 17 20 \
20 22 22 24 24 27 27 29 29 31 31 32 32 33 33 34 34 35 \
35 36 36 37 37 38 38 40 40 41 41 42 42 44 44 46 46 48 \
48 

