#    Name: 6ptq_1_BEN
#    Modification time : Fri May 22 19:29:39 2020

@<TRIPOS>MOLECULE
6ptq_1_BEN
   17    17     1     0     0
SMALL
NO_CHARGES


@<TRIPOS>ATOM
      1 C1        -54.8570  -16.6760  -27.1820 C.ar      1 BEN601      0.0000 
      2 C2        -55.7750  -15.6390  -27.0040 C.ar      1 BEN601      0.0000 
      3 C3        -57.0580  -15.7360  -27.5190 C.ar      1 BEN601      0.0000 
      4 C4        -57.4460  -16.8620  -28.2090 C.ar      1 BEN601      0.0000 
      5 C5        -56.5540  -17.8960  -28.3890 C.ar      1 BEN601      0.0000 
      6 C6        -55.2690  -17.8110  -27.8790 C.ar      1 BEN601      0.0000 
      7 C         -53.4690  -16.5900  -26.6270 C.2       1 BEN601      0.0000 
      8 N1        -52.5080  -17.4180  -26.9120 N.pl3     1 BEN601      0.0000 
      9 N2        -53.1780  -15.6060  -25.7390 N.pl3     1 BEN601      0.0000 
     10 H2        -55.5200  -14.8640  -26.5350 H         1 BEN601      0.0000 
     11 H3        -57.6680  -15.0270  -27.3960 H         1 BEN601      0.0000 
     12 H4        -58.3210  -16.9250  -28.5590 H         1 BEN601      0.0000 
     13 H5        -56.8190  -18.6680  -28.8620 H         1 BEN601      0.0000 
     14 H6        -54.6680  -18.5240  -28.0090 H         1 BEN601      0.0000 
     15 HN1       -52.7080  -18.0050  -27.4530 H         1 BEN601      0.0000 
     16 HN21      -52.3660  -15.5550  -25.3860 H         1 BEN601      0.0000 
     17 HN22      -53.8010  -15.0170  -25.5120 H         1 BEN601      0.0000 
@<TRIPOS>BOND
     1    1    2 ar   
     2    1    6 ar   
     3    1    7 1    
     4    2    3 ar   
     5    3    4 ar   
     6    2   10 1    
     7    4    5 ar   
     8    3   11 1    
     9    5    6 ar   
    10    4   12 1    
    11    7    8 2    
    12    5   13 1    
    13    6   14 1    
    14    7    9 1    
    15    8   15 1    
    16    9   16 1    
    17    9   17 1    
@<TRIPOS>SUBSTRUCTURE
     1 BEN601      1 GROUP   
@<TRIPOS>SET

