#    Name: 6kuw_1_CLR
#    Modification time : Fri May 22 19:27:06 2020

@<TRIPOS>MOLECULE
6kuw_1_CLR
   28    31     1     0     0
SMALL
NO_CHARGES


@<TRIPOS>ATOM
      1 C1        -26.9400   -1.3400   57.3230 C.3       1 CLR1202     0.0000 
      2 C2        -26.4990   -1.8850   58.6880 C.3       1 CLR1202     0.0000 
      3 C3        -27.6670   -2.4430   59.4800 C.3       1 CLR1202     0.0000 
      4 C4        -28.4140   -3.4930   58.6650 C.3       1 CLR1202     0.0000 
      5 C5        -28.7860   -3.0120   57.2750 C.2       1 CLR1202     0.0000 
      6 C6        -30.0280   -3.1680   56.8110 C.2       1 CLR1202     0.0000 
      7 C7        -30.4970   -2.7450   55.4480 C.3       1 CLR1202     0.0000 
      8 C8        -29.3440   -2.4860   54.4740 C.3       1 CLR1202     0.0000 
      9 C9        -28.2370   -1.6740   55.1840 C.3       1 CLR1202     0.0000 
     10 C10       -27.6600   -2.3910   56.4470 C.3       1 CLR1202     0.0000 
     11 C11       -27.1340   -1.2080   54.2100 C.3       1 CLR1202     0.0000 
     12 C12       -27.6380   -0.6020   52.8940 C.3       1 CLR1202     0.0000 
     13 C13       -28.6930   -1.4720   52.1710 C.3       1 CLR1202     0.0000 
     14 C14       -29.8120   -1.7160   53.2190 C.3       1 CLR1202     0.0000 
     15 C15       -30.9930   -2.2390   52.3790 C.3       1 CLR1202     0.0000 
     16 C16       -30.8300   -1.5760   50.9910 C.3       1 CLR1202     0.0000 
     17 C17       -29.5160   -0.7650   51.0540 C.3       1 CLR1202     0.0000 
     18 C18       -28.0480   -2.7850   51.6520 C.3       1 CLR1202     0.0000 
     19 C19       -26.6790   -3.5190   56.0590 C.3       1 CLR1202     0.0000 
     20 C20       -28.8840   -0.5290   49.6580 C.3       1 CLR1202     0.0000 
     21 C21       -27.7330    0.4790   49.6830 C.3       1 CLR1202     0.0000 
     22 C22       -29.9260   -0.1170   48.5940 C.3       1 CLR1202     0.0000 
     23 C23       -29.4440   -0.2690   47.1500 C.3       1 CLR1202     0.0000 
     24 C24       -30.4700    0.0070   46.0420 C.3       1 CLR1202     0.0000 
     25 C25       -30.4290   -0.9270   44.7780 C.3       1 CLR1202     0.0000 
     26 C26       -31.5470   -0.6510   43.8010 C.3       1 CLR1202     0.0000 
     27 C27       -29.0960   -0.9720   44.0370 C.3       1 CLR1202     0.0000 
     28 O1        -27.1410   -3.0400   60.6730 O.3       1 CLR1202     0.0000 
@<TRIPOS>BOND
     1    1    2 1    
     2    1   10 1    
     3    2    3 1    
     4    3    4 1    
     5    3   28 1    
     6    4    5 1    
     7    5    6 2    
     8    5   10 1    
     9    6    7 1    
    10    7    8 1    
    11    8    9 1    
    12    8   14 1    
    13    9   10 1    
    14    9   11 1    
    15   10   19 1    
    16   11   12 1    
    17   12   13 1    
    18   13   14 1    
    19   13   17 1    
    20   13   18 1    
    21   14   15 1    
    22   15   16 1    
    23   16   17 1    
    24   17   20 1    
    25   20   21 1    
    26   20   22 1    
    27   22   23 1    
    28   23   24 1    
    29   24   25 1    
    30   25   26 1    
    31   25   27 1    
@<TRIPOS>SUBSTRUCTURE
     1 CLR1202     1 GROUP   
@<TRIPOS>SET

