#    Name: 6kuw_2_CLR
#    Modification time : Fri May 22 19:27:18 2020

@<TRIPOS>MOLECULE
6kuw_2_CLR
   28    31     1     0     0
SMALL
NO_CHARGES


@<TRIPOS>ATOM
      1 C1        -14.4670  -10.0330   57.4340 C.3       1 CLR1202     0.0000 
      2 C2        -15.0140   -9.5430   58.7830 C.3       1 CLR1202     0.0000 
      3 C3        -13.9710   -8.7780   59.5840 C.3       1 CLR1202     0.0000 
      4 C4        -13.3730   -7.6450   58.7530 C.3       1 CLR1202     0.0000 
      5 C5        -12.9010   -8.1040   57.3860 C.2       1 CLR1202     0.0000 
      6 C6        -11.6710   -7.8080   56.9540 C.2       1 CLR1202     0.0000 
      7 C7        -11.1150   -8.2100   55.6190 C.3       1 CLR1202     0.0000 
      8 C8        -12.2240   -8.5470   54.6240 C.3       1 CLR1202     0.0000 
      9 C9        -13.2420   -9.5080   55.2830 C.3       1 CLR1202     0.0000 
     10 C10       -13.9140   -8.8910   56.5530 C.3       1 CLR1202     0.0000 
     11 C11       -14.2790  -10.0560   54.2700 C.3       1 CLR1202     0.0000 
     12 C12       -13.7400  -10.4500   52.8850 C.3       1 CLR1202     0.0000 
     13 C13       -12.7980   -9.3990   52.2540 C.3       1 CLR1202     0.0000 
     14 C14       -11.6920   -9.1740   53.3180 C.3       1 CLR1202     0.0000 
     15 C15       -10.5510   -8.4920   52.5390 C.3       1 CLR1202     0.0000 
     16 C16       -10.7380   -8.8860   51.0650 C.3       1 CLR1202     0.0000 
     17 C17       -11.9320   -9.8610   51.0520 C.3       1 CLR1202     0.0000 
     18 C18       -13.5840   -8.1100   51.9150 C.3       1 CLR1202     0.0000 
     19 C19       -15.0530   -7.9250   56.1720 C.3       1 CLR1202     0.0000 
     20 C20       -12.5640  -10.0090   49.6450 C.3       1 CLR1202     0.0000 
     21 C21       -13.6620  -11.0710   49.5820 C.3       1 CLR1202     0.0000 
     22 C22       -11.5020  -10.2890   48.5610 C.3       1 CLR1202     0.0000 
     23 C23       -12.0040  -10.2090   47.1240 C.3       1 CLR1202     0.0000 
     24 C24       -11.3280  -11.1780   46.1560 C.3       1 CLR1202     0.0000 
     25 C25       -10.5950  -10.5680   44.9460 C.3       1 CLR1202     0.0000 
     26 C26        -9.8450  -11.6240   44.1450 C.3       1 CLR1202     0.0000 
     27 C27       -11.4860   -9.7310   44.0260 C.3       1 CLR1202     0.0000 
     28 O1        -14.6130   -8.2340   60.7460 O.3       1 CLR1202     0.0000 
@<TRIPOS>BOND
     1    1    2 1    
     2    1   10 1    
     3    2    3 1    
     4    3    4 1    
     5    3   28 1    
     6    4    5 1    
     7    5    6 2    
     8    5   10 1    
     9    6    7 1    
    10    7    8 1    
    11    8    9 1    
    12    8   14 1    
    13    9   10 1    
    14    9   11 1    
    15   10   19 1    
    16   11   12 1    
    17   12   13 1    
    18   13   14 1    
    19   13   17 1    
    20   13   18 1    
    21   14   15 1    
    22   15   16 1    
    23   16   17 1    
    24   17   20 1    
    25   20   21 1    
    26   20   22 1    
    27   22   23 1    
    28   23   24 1    
    29   24   25 1    
    30   25   26 1    
    31   25   27 1    
@<TRIPOS>SUBSTRUCTURE
     1 CLR1202     1 GROUP   
@<TRIPOS>SET

