#    Name: 6pc2_1_GNP_CAVITY_N1_4
#    Modification time : Fri May 22 19:31:37 2020

@<TRIPOS>MOLECULE
6pc2_1_GNP_CAVITY_N1_4
   43     0     6     0     0
SMALL
NO_CHARGES


@<TRIPOS>ATOM
      1 OG        -13.5300   -9.4200   13.8800 O.3       1 SER1        0.0000 
      2 OG        -13.5700   -8.1900   16.1700 O.3       1 SER1        0.0000 
      3 OG        -12.7700   -9.4300   15.8600 O.3       1 SER1        0.0000 
      4 OG        -12.3400   -8.8200   14.5600 O.3       1 SER1        0.0000 
      5 OG        -12.8100   -8.1900   18.1500 O.3       1 SER1        0.0000 
      6 OG        -12.3700   -7.5900   16.8500 O.3       1 SER1        0.0000 
      7 OG        -11.9400   -6.9900   15.5500 O.3       1 SER1        0.0000 
      8 N         -17.9800   -7.5400   16.7300 N.am      2 ALA2        0.0000 
      9 N         -17.1900   -8.7700   16.4300 N.am      2 ALA2        0.0000 
     10 N         -17.2200   -7.5400   18.7100 N.am      2 ALA2        0.0000 
     11 OD1       -17.5500   -6.9300   15.4300 O.co2     3 ASP3        0.0000 
     12 OD1       -15.9900   -8.1700   17.1000 O.co2     3 ASP3        0.0000 
     13 OD1       -15.5600   -7.5600   15.8000 O.co2     3 ASP3        0.0000 
     14 OD1       -15.9200   -5.7200   14.8100 O.co2     3 ASP3        0.0000 
     15 OD1       -15.1300   -6.9600   14.5000 O.co2     3 ASP3        0.0000 
     16 OD1       -15.2300   -8.1700   19.0800 O.co2     3 ASP3        0.0000 
     17 OD1       -14.8000   -7.5600   17.7800 O.co2     3 ASP3        0.0000 
     18 OD1       -14.3600   -6.9600   16.4800 O.co2     3 ASP3        0.0000 
     19 OD1       -14.7300   -5.1200   15.4800 O.co2     3 ASP3        0.0000 
     20 OD1       -14.8300   -6.3300   20.0700 O.co2     3 ASP3        0.0000 
     21 OD1       -14.0400   -7.5700   19.7600 O.co2     3 ASP3        0.0000 
     22 OD1       -13.6000   -6.9600   18.4600 O.co2     3 ASP3        0.0000 
     23 OD1       -13.1700   -6.3600   17.1600 O.co2     3 ASP3        0.0000 
     24 OD1       -12.7400   -5.7500   15.8500 O.co2     3 ASP3        0.0000 
     25 CZ        -16.4300   -8.7700   18.4100 C.ar      4 PHE5        0.0000 
     26 CZ        -13.9700  -10.0300   15.1900 C.ar      4 PHE5        0.0000 
     27 CZ        -13.6400  -10.6400   18.4700 C.ar      4 PHE5        0.0000 
     28 CZ        -14.0000   -8.8000   17.4700 C.ar      4 PHE5        0.0000 
     29 CZ        -13.2100  -10.0300   17.1700 C.ar      4 PHE5        0.0000 
     30 CZ        -13.2400   -8.8000   19.4500 C.ar      4 PHE5        0.0000 
     31 CZ        -12.0400   -8.2000   20.1300 C.ar      4 PHE5        0.0000 
     32 CA        -13.2700   -7.5700   21.7400 C.3       5 GLY6        0.0000 
     33 CA        -12.4800   -8.8000   21.4300 C.3       5 GLY6        0.0000 
     34 CA        -12.8400   -6.9600   20.4400 C.3       5 GLY6        0.0000 
     35 DU        -16.3900  -10.0000   16.1200 H         6 CUB7        0.0000 
     36 DU        -16.7500   -8.1600   15.1200 H         6 CUB7        0.0000 
     37 DU        -15.2000   -9.4000   16.8000 H         6 CUB7        0.0000 
     38 DU        -14.4000  -10.6300   16.4900 H         6 CUB7        0.0000 
     39 DU        -14.7600   -8.8000   15.4900 H         6 CUB7        0.0000 
     40 DU        -14.4400   -9.4000   18.7800 H         6 CUB7        0.0000 
     41 DU        -13.1400   -7.5900   14.8700 H         6 CUB7        0.0000 
     42 DU        -14.4700   -8.1700   21.0600 H         6 CUB7        0.0000 
     43 DU        -13.6700   -9.4000   20.7600 H         6 CUB7        0.0000 
@<TRIPOS>BOND
@<TRIPOS>SUBSTRUCTURE
     1 SER1        1 GROUP   
     2 ALA2        8 GROUP   
     3 ASP3       11 GROUP   
     4 PHE5       25 GROUP   
     5 GLY6       32 GROUP   
     6 CUB7       35 GROUP   
@<TRIPOS>SET

