#    Name: 6pc2_1_GNP
#    Modification time : Fri May 22 19:31:36 2020

@<TRIPOS>MOLECULE
6pc2_1_GNP
   32    34     1     0     1
SMALL
NO_CHARGES


@<TRIPOS>ATOM
      1 PG        -12.5100   -5.9100   16.9100 P.3       1 GNP505      0.0000 
      2 O1G       -13.2140   -4.6660   17.6470 O.co2     1 GNP505      0.0000 
      3 O2G       -12.9370   -7.0240   17.9680 O.co2     1 GNP505      0.0000 
      4 O3G       -11.0980   -5.6420   16.6840 O.co2     1 GNP505      0.0000 
      5 N3B       -13.0980   -6.0900   15.4390 N.3       1 GNP505      0.0000 
      6 PB        -14.6560   -6.1160   15.2320 P.3       1 GNP505      0.0000 
      7 O1B       -15.1660   -7.4040   14.3980 O.co2     1 GNP505      0.0000 
      8 O2B       -15.7500   -5.9230   16.1700 O.co2     1 GNP505      0.0000 
      9 O3A       -15.3900   -5.2410   14.1070 O.3       1 GNP505      0.0000 
     10 PA        -15.3590   -3.6450   14.3580 P.3       1 GNP505      0.0000 
     11 O1A       -16.4260   -3.4370   15.5450 O.co2     1 GNP505      0.0000 
     12 O2A       -14.2380   -2.7180   14.3130 O.co2     1 GNP505      0.0000 
     13 O5'       -16.3560   -3.0080   13.2350 O.3       1 GNP505      0.0000 
     14 C5'       -17.4100   -3.9460   13.0560 C.3       1 GNP505      0.0000 
     15 C4'       -18.6270   -3.3650   12.3830 C.3       1 GNP505      0.0000 
     16 O4'       -19.0920   -2.2430   13.1420 O.3       1 GNP505      0.0000 
     17 C3'       -18.2460   -2.8630   10.9620 C.3       1 GNP505      0.0000 
     18 O3'       -18.9400   -3.6560   10.0220 O.3       1 GNP505      0.0000 
     19 C2'       -18.6950   -1.3870   10.9090 C.3       1 GNP505      0.0000 
     20 O2'       -19.5950   -1.1340    9.8530 O.3       1 GNP505      0.0000 
     21 C1'       -19.5040   -1.1910   12.2380 C.3       1 GNP505      0.0000 
     22 N9        -19.3070    0.0280   12.9430 N.pl3     1 GNP505      0.0000 
     23 C8        -18.0660    0.8280   12.9660 C.2       1 GNP505      0.0000 
     24 N7        -18.3380    1.9630   13.8600 N.2       1 GNP505      0.0000 
     25 C5        -19.6520    1.8340   14.3380 C.2       1 GNP505      0.0000 
     26 C6        -20.4610    2.5800   15.1980 C.2       1 GNP505      0.0000 
     27 O6        -19.9330    3.7270   15.7550 O.2       1 GNP505      0.0000 
     28 N1        -21.7410    2.2020   15.4950 N.am      1 GNP505      0.0000 
     29 C2        -22.2200    1.0460   14.9060 C.2       1 GNP505      0.0000 
     30 N2        -23.5240    0.6670   15.1990 N.pl3     1 GNP505      0.0000 
     31 N3        -21.5120    0.2110   14.0280 N.2       1 GNP505      0.0000 
     32 C4        -20.2610    0.6270   13.7730 C.2       1 GNP505      0.0000 
@<TRIPOS>BOND
     1    1    2 ar   
     2    1    3 ar   
     3    1    4 ar   
     4    1    5 1    
     5    5    6 1    
     6    6    7 ar   
     7    6    8 ar   
     8    6    9 1    
     9    9   10 1    
    10   10   11 ar   
    11   10   12 ar   
    12   10   13 1    
    13   13   14 1    
    14   14   15 1    
    15   15   16 1    
    16   15   17 1    
    17   16   21 1    
    18   17   18 1    
    19   17   19 1    
    20   19   20 1    
    21   19   21 1    
    22   21   22 1    
    23   22   23 1    
    24   22   32 1    
    25   23   24 2    
    26   24   25 1    
    27   25   26 1    
    28   25   32 2    
    29   26   27 2    
    30   26   28 am   
    31   28   29 1    
    32   29   30 1    
    33   29   31 2    
    34   31   32 1    
@<TRIPOS>SUBSTRUCTURE
     1 GNP505      1 GROUP   
@<TRIPOS>SET
ATOM$ORANGE STATIC     ATOMS   COLORGROUP SYSTEM 
20 14 14 15 15 17 17 19 19 21 21 23 23 25 25 26 26 29 \
29 32 32 

