#    Name: 6pc2_2_GNP
#    Modification time : Fri May 22 19:31:49 2020

@<TRIPOS>MOLECULE
6pc2_2_GNP
   32    34     1     0     1
SMALL
NO_CHARGES


@<TRIPOS>ATOM
      1 PG          2.5350   12.5540   31.6010 P.3       1 GNP502      0.0000 
      2 O1G         2.6920   10.9970   31.9670 O.co2     1 GNP502      0.0000 
      3 O2G         1.5620   12.9360   32.8040 O.co2     1 GNP502      0.0000 
      4 O3G         2.0760   12.7140   30.2300 O.co2     1 GNP502      0.0000 
      5 N3B         3.9560   13.2780   31.6090 N.3       1 GNP502      0.0000 
      6 PB          4.9270   13.0170   32.8160 P.3       1 GNP502      0.0000 
      7 O1B         5.5560   14.3670   33.4440 O.co2     1 GNP502      0.0000 
      8 O2B         4.7730   12.1840   33.9990 O.co2     1 GNP502      0.0000 
      9 O3A         6.4440   12.5470   32.6110 O.3       1 GNP502      0.0000 
     10 PA          6.6190   11.0670   31.9880 P.3       1 GNP502      0.0000 
     11 O1A         6.2540   10.0980   33.2210 O.co2     1 GNP502      0.0000 
     12 O2A         6.3140   10.5770   30.6520 O.co2     1 GNP502      0.0000 
     13 O5'         8.2150   10.7470   32.0970 O.3       1 GNP502      0.0000 
     14 C5'         8.6640   11.3870   33.2850 C.3       1 GNP502      0.0000 
     15 C4'        10.0000   10.8830   33.7670 C.3       1 GNP502      0.0000 
     16 O4'         9.9240    9.4650   33.9470 O.3       1 GNP502      0.0000 
     17 C3'        11.0830   11.1770   32.6900 C.3       1 GNP502      0.0000 
     18 O3'        12.0000   12.1010   33.2380 O.3       1 GNP502      0.0000 
     19 C2'        11.7500    9.8170   32.3910 C.3       1 GNP502      0.0000 
     20 O2'        13.1430    9.8440   32.6030 O.3       1 GNP502      0.0000 
     21 C1'        11.1530    8.8600   33.4820 C.3       1 GNP502      0.0000 
     22 N9         10.8120    7.5430   33.0700 N.pl3     1 GNP502      0.0000 
     23 C8         10.3550    7.1440   31.7240 C.2       1 GNP502      0.0000 
     24 N7         10.0920    5.6990   31.8030 N.2       1 GNP502      0.0000 
     25 C5         10.3700    5.2790   33.1140 C.2       1 GNP502      0.0000 
     26 C6         10.3130    4.0560   33.7860 C.2       1 GNP502      0.0000 
     27 O6          9.9000    2.9440   33.0800 O.2       1 GNP502      0.0000 
     28 N1         10.6490    3.9420   35.1060 N.am      1 GNP502      0.0000 
     29 C2         11.0610    5.0840   35.7660 C.2       1 GNP502      0.0000 
     30 N2         11.4100    4.9630   37.1060 N.pl3     1 GNP502      0.0000 
     31 N3         11.1610    6.3670   35.2080 N.2       1 GNP502      0.0000 
     32 C4         10.8160    6.4250   33.9110 C.2       1 GNP502      0.0000 
@<TRIPOS>BOND
     1    1    2 ar   
     2    1    3 ar   
     3    1    4 ar   
     4    1    5 1    
     5    5    6 1    
     6    6    7 ar   
     7    6    8 ar   
     8    6    9 1    
     9    9   10 1    
    10   10   11 ar   
    11   10   12 ar   
    12   10   13 1    
    13   13   14 1    
    14   14   15 1    
    15   15   16 1    
    16   15   17 1    
    17   16   21 1    
    18   17   18 1    
    19   17   19 1    
    20   19   20 1    
    21   19   21 1    
    22   21   22 1    
    23   22   23 1    
    24   22   32 1    
    25   23   24 2    
    26   24   25 1    
    27   25   26 1    
    28   25   32 2    
    29   26   27 2    
    30   26   28 am   
    31   28   29 1    
    32   29   30 1    
    33   29   31 2    
    34   31   32 1    
@<TRIPOS>SUBSTRUCTURE
     1 GNP502      1 GROUP   
@<TRIPOS>SET
ATOM$ORANGE STATIC     ATOMS   COLORGROUP SYSTEM 
20 14 14 15 15 17 17 19 19 21 21 23 23 25 25 26 26 29 \
29 32 32 

