#    Name: 6pc2_2_GNP_CAVITY_N1_4
#    Modification time : Fri May 22 19:31:51 2020

@<TRIPOS>MOLECULE
6pc2_2_GNP_CAVITY_N1_4
   84     0     7     0     0
SMALL
NO_CHARGES


@<TRIPOS>ATOM
      1 OG          7.0800    1.4400   30.9700 O.3       1 SER1        0.0000 
      2 OG          8.2700    2.0400   31.6500 O.3       1 SER1        0.0000 
      3 OG          8.7100    2.6500   30.3400 O.3       1 SER1        0.0000 
      4 OG         10.6300    4.4800   35.2900 O.3       1 SER1        0.0000 
      5 OG         11.0300    6.3200   36.2700 O.3       1 SER1        0.0000 
      6 O           6.3500   10.0200   31.2600 O.2       2 ALA2        0.0000 
      7 O           7.5800    9.3900   29.6500 O.2       2 ALA2        0.0000 
      8 N           9.1700    6.9300   29.0300 N.am      2 ALA2        0.0000 
      9 N           9.9700    5.6900   28.7200 N.am      2 ALA2        0.0000 
     10 N          11.8200    5.0800   35.9700 N.am      2 ALA2        0.0000 
     11 OD1        11.4600    6.9200   34.9700 O.co2     3 ASP3        0.0000 
     12 OD1        12.2600    5.6900   34.6600 O.co2     3 ASP3        0.0000 
     13 OD1        11.8900    7.5300   33.6700 O.co2     3 ASP3        0.0000 
     14 OD1        11.9600    9.9700   31.3700 O.co2     3 ASP3        0.0000 
     15 OD1        11.7900    6.3100   38.2500 O.co2     3 ASP3        0.0000 
     16 OD1        12.2200    6.9200   36.9500 O.co2     3 ASP3        0.0000 
     17 OD1        12.6600    7.5200   35.6500 O.co2     3 ASP3        0.0000 
     18 OD1        13.5200    8.7300   33.0400 O.co2     3 ASP3        0.0000 
     19 OD1        13.1600   10.5700   32.0500 O.co2     3 ASP3        0.0000 
     20 OD1        13.1200   11.8000   34.3400 O.co2     3 ASP3        0.0000 
     21 OD1        14.3500   11.1700   32.7300 O.co2     3 ASP3        0.0000 
     22 NZ         10.6600    8.1500   35.2800 N.4       4 LYS4        0.0000 
     23 NZ          9.5000   11.2300   34.5900 N.4       4 LYS4        0.0000 
     24 NZ         10.3000    9.9900   34.2800 N.4       4 LYS4        0.0000 
     25 NZ         11.4300    8.1500   37.2600 N.4       4 LYS4        0.0000 
     26 NZ         11.0600    9.9900   36.2600 N.4       4 LYS4        0.0000 
     27 NZ         11.8600    8.7600   35.9600 N.4       4 LYS4        0.0000 
     28 NZ         10.7000   11.8300   35.2700 N.4       4 LYS4        0.0000 
     29 NZ         11.5000   10.5900   34.9600 N.4       4 LYS4        0.0000 
     30 CZ          7.4100    0.8300   34.2500 C.ar      5 PHE5        0.0000 
     31 CZ          7.8400    1.4400   32.9500 C.ar      5 PHE5        0.0000 
     32 CZ          7.9100    3.8800   30.6500 C.ar      5 PHE5        0.0000 
     33 CZ          8.6000    1.4400   34.9300 C.ar      5 PHE5        0.0000 
     34 CZ          9.4000    0.2000   34.6200 C.ar      5 PHE5        0.0000 
     35 CZ          9.0300    2.0400   33.6300 C.ar      5 PHE5        0.0000 
     36 CZ          8.6700    3.8800   32.6300 C.ar      5 PHE5        0.0000 
     37 CZ          9.1000    4.4800   31.3300 C.ar      5 PHE5        0.0000 
     38 CZ          9.8700    4.4800   33.3100 C.ar      5 PHE5        0.0000 
     39 CZ          7.1100   10.0200   33.2400 C.ar      5 PHE5        0.0000 
     40 CZ          9.5000    6.3200   32.3100 C.ar      5 PHE5        0.0000 
     41 CZ          8.3400    9.3900   31.6300 C.ar      5 PHE5        0.0000 
     42 CZ          9.1400    8.1600   31.3200 C.ar      5 PHE5        0.0000 
     43 CZ         10.2600    6.3200   34.2900 C.ar      5 PHE5        0.0000 
     44 CZ          9.1100    9.3900   33.6100 C.ar      5 PHE5        0.0000 
     45 CZ          9.9000    8.1600   33.3000 C.ar      5 PHE5        0.0000 
     46 CZ         10.7000    6.9200   32.9900 C.ar      5 PHE5        0.0000 
     47 CA          6.6400    0.8400   32.2700 C.3       6 GLY6        0.0000 
     48 CA          7.5500    5.7200   29.6600 C.3       6 GLY6        0.0000 
     49 CA          8.3400    4.4900   29.3500 C.3       6 GLY6        0.0000 
     50 CA          7.1800    7.5600   28.6600 C.3       6 GLY6        0.0000 
     51 CA          9.4700    2.6500   32.3200 C.3       6 GLY6        0.0000 
     52 CA          9.9000    3.2500   31.0200 C.3       6 GLY6        0.0000 
     53 CA          7.1500    8.7900   30.9500 C.3       6 GLY6        0.0000 
     54 CA          7.9500    7.5600   30.6400 C.3       6 GLY6        0.0000 
     55 CA          8.7400    6.3200   30.3300 C.3       6 GLY6        0.0000 
     56 CA          9.5400    5.0900   30.0300 C.3       6 GLY6        0.0000 
     57 CA          8.3800    8.1600   29.3400 C.3       6 GLY6        0.0000 
     58 CA         10.2300    2.6400   34.3000 C.3       6 GLY6        0.0000 
     59 CA         10.6600    3.2500   33.0000 C.3       6 GLY6        0.0000 
     60 CA         10.3000    5.0900   32.0100 C.3       6 GLY6        0.0000 
     61 CA          9.9400    6.9300   31.0100 C.3       6 GLY6        0.0000 
     62 CA         10.7300    5.6900   30.7000 C.3       6 GLY6        0.0000 
     63 CA         10.3700    7.5300   29.7100 C.3       6 GLY6        0.0000 
     64 CA         11.0600    5.0800   33.9900 C.3       6 GLY6        0.0000 
     65 CA         11.4900    5.6900   32.6800 C.3       6 GLY6        0.0000 
     66 CA         11.1300    7.5300   31.6900 C.3       6 GLY6        0.0000 
     67 CA         11.5600    8.1300   30.3900 C.3       6 GLY6        0.0000 
     68 CA         12.0000    8.7400   29.0800 C.3       6 GLY6        0.0000 
     69 CA         12.6900    6.2900   33.3600 C.3       6 GLY6        0.0000 
     70 CA         12.3300    8.1300   32.3700 C.3       6 GLY6        0.0000 
     71 CA         12.7600    8.7300   31.0600 C.3       6 GLY6        0.0000 
     72 CA         14.3200    7.5000   32.7400 C.3       6 GLY6        0.0000 
     73 CA         13.9600    9.3400   31.7400 C.3       6 GLY6        0.0000 
     74 CA         12.6900   11.2000   35.6400 C.3       6 GLY6        0.0000 
     75 CA         15.1500    9.9400   32.4200 C.3       6 GLY6        0.0000 
     76 DU          9.5700    8.7600   30.0200 H         7 CUB7        0.0000 
     77 DU         10.3400    8.7600   32.0000 H         7 CUB7        0.0000 
     78 DU         10.7700    9.3700   30.6900 H         7 CUB7        0.0000 
     79 DU         11.1000    8.7600   33.9800 H         7 CUB7        0.0000 
     80 DU         10.7300   10.6000   32.9800 H         7 CUB7        0.0000 
     81 DU         11.5300    9.3600   32.6700 H         7 CUB7        0.0000 
     82 DU         12.2900    9.3600   34.6500 H         7 CUB7        0.0000 
     83 DU         11.9300   11.2000   33.6600 H         7 CUB7        0.0000 
     84 DU         12.7300    9.9700   33.3500 H         7 CUB7        0.0000 
@<TRIPOS>BOND
@<TRIPOS>SUBSTRUCTURE
     1 SER1        1 GROUP   
     2 ALA2        6 GROUP   
     3 ASP3       11 GROUP   
     4 LYS4       22 GROUP   
     5 PHE5       30 GROUP   
     6 GLY6       47 GROUP   
     7 CUB7       76 GROUP   
@<TRIPOS>SET

