#    Name: 6pc2_1_GNP_CAVITY_N1_6
#    Modification time : Fri May 22 19:31:37 2020

@<TRIPOS>MOLECULE
6pc2_1_GNP_CAVITY_N1_6
   74     0     7     0     0
SMALL
NO_CHARGES


@<TRIPOS>ATOM
      1 OG        -13.5300   -9.4200   13.8800 O.3       1 SER1        0.0000 
      2 OG        -13.5700   -8.1900   16.1700 O.3       1 SER1        0.0000 
      3 OG        -12.7700   -9.4300   15.8600 O.3       1 SER1        0.0000 
      4 OG        -12.3400   -8.8200   14.5600 O.3       1 SER1        0.0000 
      5 OG        -12.8100   -8.1900   18.1500 O.3       1 SER1        0.0000 
      6 OG        -12.3700   -7.5900   16.8500 O.3       1 SER1        0.0000 
      7 OG        -11.9400   -6.9900   15.5500 O.3       1 SER1        0.0000 
      8 N         -17.6200   -9.3700   17.7300 N.am      2 ALA2        0.0000 
      9 N         -17.9800   -7.5400   16.7300 N.am      2 ALA2        0.0000 
     10 N         -17.1900   -8.7700   16.4300 N.am      2 ALA2        0.0000 
     11 N         -14.8000  -12.4700   15.5000 N.am      2 ALA2        0.0000 
     12 N         -17.2200   -7.5400   18.7100 N.am      2 ALA2        0.0000 
     13 OD1       -17.5500   -6.9300   15.4300 O.co2     3 ASP3        0.0000 
     14 OD1       -15.9900   -8.1700   17.1000 O.co2     3 ASP3        0.0000 
     15 OD1       -15.5600   -7.5600   15.8000 O.co2     3 ASP3        0.0000 
     16 OD1       -15.9200   -5.7200   14.8100 O.co2     3 ASP3        0.0000 
     17 OD1       -15.1300   -6.9600   14.5000 O.co2     3 ASP3        0.0000 
     18 OD1       -15.2300   -8.1700   19.0800 O.co2     3 ASP3        0.0000 
     19 OD1       -14.8000   -7.5600   17.7800 O.co2     3 ASP3        0.0000 
     20 OD1       -14.3600   -6.9600   16.4800 O.co2     3 ASP3        0.0000 
     21 OD1       -14.7300   -5.1200   15.4800 O.co2     3 ASP3        0.0000 
     22 OD1       -14.8300   -6.3300   20.0700 O.co2     3 ASP3        0.0000 
     23 OD1       -14.0400   -7.5700   19.7600 O.co2     3 ASP3        0.0000 
     24 OD1       -13.6000   -6.9600   18.4600 O.co2     3 ASP3        0.0000 
     25 OD1       -13.1700   -6.3600   17.1600 O.co2     3 ASP3        0.0000 
     26 OD1       -12.7400   -5.7500   15.8500 O.co2     3 ASP3        0.0000 
     27 NZ        -12.8400  -11.8700   18.1600 N.4       4 LYS4        0.0000 
     28 NZ        -12.0800  -11.8700   20.1400 N.4       4 LYS4        0.0000 
     29 CZ        -14.3700  -11.8600   14.2000 C.ar      5 PHE5        0.0000 
     30 CZ        -16.0600  -10.6100   19.4000 C.ar      5 PHE5        0.0000 
     31 CZ        -16.4300   -8.7700   18.4100 C.ar      5 PHE5        0.0000 
     32 CZ        -14.0400  -12.4700   17.4800 C.ar      5 PHE5        0.0000 
     33 CZ        -13.6000  -11.8700   16.1800 C.ar      5 PHE5        0.0000 
     34 CZ        -13.9700  -10.0300   15.1900 C.ar      5 PHE5        0.0000 
     35 CZ        -16.1000   -9.3800   21.6900 C.ar      5 PHE5        0.0000 
     36 CZ        -15.3000  -10.6100   21.3800 C.ar      5 PHE5        0.0000 
     37 CZ        -16.4600   -7.5400   20.6900 C.ar      5 PHE5        0.0000 
     38 CZ        -15.6600   -8.7700   20.3900 C.ar      5 PHE5        0.0000 
     39 CZ        -14.8700  -10.0100   20.0800 C.ar      5 PHE5        0.0000 
     40 CZ        -13.6400  -10.6400   18.4700 C.ar      5 PHE5        0.0000 
     41 CZ        -14.0000   -8.8000   17.4700 C.ar      5 PHE5        0.0000 
     42 CZ        -13.2100  -10.0300   17.1700 C.ar      5 PHE5        0.0000 
     43 CZ        -12.4100  -11.2600   16.8600 C.ar      5 PHE5        0.0000 
     44 CZ        -15.7000   -7.5400   22.6700 C.ar      5 PHE5        0.0000 
     45 CZ        -14.9000   -8.7800   22.3700 C.ar      5 PHE5        0.0000 
     46 CZ        -12.8800  -10.6400   20.4500 C.ar      5 PHE5        0.0000 
     47 CZ        -13.2400   -8.8000   19.4500 C.ar      5 PHE5        0.0000 
     48 CZ        -11.6800  -10.0400   21.1300 C.ar      5 PHE5        0.0000 
     49 CZ        -12.0400   -8.2000   20.1300 C.ar      5 PHE5        0.0000 
     50 CA        -16.0300  -11.8400   17.1100 C.3       6 GLY6        0.0000 
     51 CA        -15.2700  -11.8400   19.0900 C.3       6 GLY6        0.0000 
     52 CA        -13.2800  -12.4700   19.4600 C.3       6 GLY6        0.0000 
     53 CA        -14.1100  -10.0100   22.0600 C.3       6 GLY6        0.0000 
     54 CA        -13.3100  -11.2400   21.7500 C.3       6 GLY6        0.0000 
     55 CA        -13.7100   -8.1700   23.0400 C.3       6 GLY6        0.0000 
     56 CA        -14.0700   -6.3400   22.0500 C.3       6 GLY6        0.0000 
     57 CA        -13.2700   -7.5700   21.7400 C.3       6 GLY6        0.0000 
     58 CA        -12.4800   -8.8000   21.4300 C.3       6 GLY6        0.0000 
     59 CA        -12.8400   -6.9600   20.4400 C.3       6 GLY6        0.0000 
     60 DU        -16.3900  -10.0000   16.1200 H         7 CUB7        0.0000 
     61 DU        -15.6000  -11.2400   15.8100 H         7 CUB7        0.0000 
     62 DU        -16.7500   -8.1600   15.1200 H         7 CUB7        0.0000 
     63 DU        -15.6300  -10.0000   18.1000 H         7 CUB7        0.0000 
     64 DU        -14.8300  -11.2400   17.7900 H         7 CUB7        0.0000 
     65 DU        -15.2000   -9.4000   16.8000 H         7 CUB7        0.0000 
     66 DU        -14.4000  -10.6300   16.4900 H         7 CUB7        0.0000 
     67 DU        -14.7600   -8.8000   15.4900 H         7 CUB7        0.0000 
     68 DU        -14.5100  -11.8500   21.0700 H         7 CUB7        0.0000 
     69 DU        -14.0700  -11.2400   19.7700 H         7 CUB7        0.0000 
     70 DU        -14.4400   -9.4000   18.7800 H         7 CUB7        0.0000 
     71 DU        -13.1400   -7.5900   14.8700 H         7 CUB7        0.0000 
     72 DU        -15.2700   -6.9400   21.3700 H         7 CUB7        0.0000 
     73 DU        -14.4700   -8.1700   21.0600 H         7 CUB7        0.0000 
     74 DU        -13.6700   -9.4000   20.7600 H         7 CUB7        0.0000 
@<TRIPOS>BOND
@<TRIPOS>SUBSTRUCTURE
     1 SER1        1 GROUP   
     2 ALA2        8 GROUP   
     3 ASP3       13 GROUP   
     4 LYS4       27 GROUP   
     5 PHE5       29 GROUP   
     6 GLY6       50 GROUP   
     7 CUB7       60 GROUP   
@<TRIPOS>SET

