#    Name: 6cz6_1_COA
#    Modification time : Fri May 22 19:25:26 2020

@<TRIPOS>MOLECULE
6cz6_1_COA
   80    82     1     0     1
SMALL
NO_CHARGES


@<TRIPOS>ATOM
      1 N1A         1.1660   12.4300   12.4800 N.ar      1 COA501      0.0000 
      2 C2A         2.3990   12.3060   12.9620 C.ar      1 COA501      0.0000 
      3 N3A         2.8980   12.7150   14.1240 N.ar      1 COA501      0.0000 
      4 C4A         1.9790   13.3540   14.8990 C.ar      1 COA501      0.0000 
      5 C5A         0.6440   13.5560   14.5140 C.ar      1 COA501      0.0000 
      6 C6A         0.2670   13.0660   13.2620 C.ar      1 COA501      0.0000 
      7 N6A        -1.0030   13.2300   12.8430 N.pl3     1 COA501      0.0000 
      8 N7A        -0.0620   14.2380   15.5040 N.2       1 COA501      0.0000 
      9 C8A         0.8590   14.4300   16.4620 C.2       1 COA501      0.0000 
     10 N9A         2.0890   13.9410   16.1530 N.pl3     1 COA501      0.0000 
     11 C1B         3.3230   13.9770   16.9950 C.3       1 COA501      0.0000 
     12 C2B         3.9220   15.3830   17.1220 C.3       1 COA501      0.0000 
     13 O2B         4.8100   15.6350   16.0880 O.3       1 COA501      0.0000 
     14 C3B         4.6900   15.1970   18.4740 C.3       1 COA501      0.0000 
     15 O3B         5.9840   14.5550   18.2730 O.3       1 COA501      0.0000 
     16 P3B         7.1030   15.1730   19.3110 P.3       1 COA501      0.0000 
     17 O7A         6.6100   15.1260   20.7180 O.co2     1 COA501      0.0000 
     18 O8A         8.4110   14.3740   19.2500 O.co2     1 COA501      0.0000 
     19 O9A         7.4250   16.6020   18.9380 O.co2     1 COA501      0.0000 
     20 C4B         3.7410   14.2280   19.3060 C.3       1 COA501      0.0000 
     21 O4B         2.8960   13.5840   18.3180 O.3       1 COA501      0.0000 
     22 C5B         2.9420   14.9790   20.3360 C.3       1 COA501      0.0000 
     23 O5B         2.2630   16.0300   19.7360 O.3       1 COA501      0.0000 
     24 P1A         0.6740   16.2760   19.9610 P.3       1 COA501      0.0000 
     25 O1A        -0.0510   15.1100   19.4190 O.co2     1 COA501      0.0000 
     26 O2A         0.2170   17.6720   19.5950 O.co2     1 COA501      0.0000 
     27 O3A         0.4790   16.0500   21.6030 O.3       1 COA501      0.0000 
     28 P2A        -0.5210   16.5470   22.7360 P.3       1 COA501      0.0000 
     29 O4A        -0.6050   15.4710   23.7420 O.co2     1 COA501      0.0000 
     30 O5A        -0.2930   17.9800   23.1650 O.co2     1 COA501      0.0000 
     31 O6A        -2.0030   16.5750   22.0790 O.3       1 COA501      0.0000 
     32 CBP        -4.0760   15.7810   21.0990 C.3       1 COA501      0.0000 
     33 CCP        -2.7720   15.4530   21.9010 C.3       1 COA501      0.0000 
     34 CDP        -4.9390   14.5010   20.9320 C.3       1 COA501      0.0000 
     35 CEP        -4.8690   16.8640   21.8470 C.3       1 COA501      0.0000 
     36 CAP        -3.6510   16.3710   19.7310 C.3       1 COA501      0.0000 
     37 OAP        -2.8200   15.3830   19.0480 O.3       1 COA501      0.0000 
     38 C9P        -4.7140   16.7910   18.7690 C.2       1 COA501      0.0000 
     39 O9P        -5.3210   17.8320   18.9640 O.2       1 COA501      0.0000 
     40 N8P        -4.9180   16.0540   17.6850 N.am      1 COA501      0.0000 
     41 C7P        -5.8510   16.3530   16.6590 C.3       1 COA501      0.0000 
     42 C6P        -7.2850   15.8590   17.0210 C.3       1 COA501      0.0000 
     43 C5P        -7.3870   14.3560   16.9030 C.2       1 COA501      0.0000 
     44 O5P        -6.7460   13.6960   16.0820 O.2       1 COA501      0.0000 
     45 N4P        -8.2190   13.7470   17.7600 N.am      1 COA501      0.0000 
     46 C3P        -8.3980   12.2910   17.7620 C.3       1 COA501      0.0000 
     47 C2P        -7.9970   11.7260   19.1350 C.3       1 COA501      0.0000 
     48 S1P        -7.6970    9.9220   18.9910 S.3       1 COA501      0.0000 
     49 H2A         2.9930   11.8680   12.3950 H         1 COA501      0.0000 
     50 H61A       -1.2060   12.9900   12.0420 H         1 COA501      0.0000 
     51 H62A       -1.5760   13.5710   13.3860 H         1 COA501      0.0000 
     52 H8A         0.6890   14.8570   17.2710 H         1 COA501      0.0000 
     53 H1B         3.9520   13.3740   16.5690 H         1 COA501      0.0000 
     54 H2B         3.2430   16.0660   17.2340 H         1 COA501      0.0000 
     55 HO2A        5.3130   16.2670   16.3520 H         1 COA501      0.0000 
     56 H3B         4.7330   16.0670   18.9000 H         1 COA501      0.0000 
     57 H4B         4.2540   13.5680   19.7980 H         1 COA501      0.0000 
     58 H51A        3.5210   15.3180   21.0370 H         1 COA501      0.0000 
     59 H52A        2.3100   14.3880   20.7760 H         1 COA501      0.0000 
     60 H121       -2.9910   15.0730   22.7660 H         1 COA501      0.0000 
     61 H122       -2.2510   14.7760   21.4410 H         1 COA501      0.0000 
     62 H131       -5.6050   14.5960   20.2330 H         1 COA501      0.0000 
     63 H132       -4.4050   13.7250   20.7010 H         1 COA501      0.0000 
     64 H133       -5.4200   14.2740   21.7430 H         1 COA501      0.0000 
     65 H141       -4.3530   17.6790   21.9430 H         1 COA501      0.0000 
     66 H142       -5.6870   17.0920   21.3770 H         1 COA501      0.0000 
     67 H143       -5.1180   16.5700   22.7370 H         1 COA501      0.0000 
     68 H10        -3.1970   17.2080   19.9120 H         1 COA501      0.0000 
     69 HO1        -3.2730   14.6660   18.9870 H         1 COA501      0.0000 
     70 HN8        -4.4400   15.3460   17.5670 H         1 COA501      0.0000 
     71 H71        -5.8430   17.3120   16.5160 H         1 COA501      0.0000 
     72 H72        -5.5400   15.9370   15.8400 H         1 COA501      0.0000 
     73 H61        -7.4940   16.1330   17.9280 H         1 COA501      0.0000 
     74 H62        -7.9240   16.2810   16.4260 H         1 COA501      0.0000 
     75 HN4        -8.6570   14.2190   18.3250 H         1 COA501      0.0000 
     76 H31        -9.3230   12.0830   17.5570 H         1 COA501      0.0000 
     77 H32        -7.8610   11.9030   17.0540 H         1 COA501      0.0000 
     78 H21        -7.1900   12.1640   19.4500 H         1 COA501      0.0000 
     79 H22        -8.7040   11.8870   19.7780 H         1 COA501      0.0000 
     80 HS1        -7.7950    9.6300   20.1510 H         1 COA501      0.0000 
@<TRIPOS>BOND
     1    1    2 ar   
     2    1    6 ar   
     3    2    3 ar   
     4    3    4 ar   
     5    2   49 1    
     6    4    5 ar   
     7    4   10 1    
     8    5    6 ar   
     9    5    8 1    
    10    6    7 1    
    11    8    9 2    
    12    7   50 1    
    13    7   51 1    
    14    9   10 1    
    15   10   11 1    
    16    9   52 1    
    17   11   12 1    
    18   11   21 1    
    19   11   53 1    
    20   12   13 1    
    21   12   14 1    
    22   12   54 1    
    23   13   55 1    
    24   14   15 1    
    25   14   20 1    
    26   14   56 1    
    27   15   16 1    
    28   16   17 ar   
    29   16   18 ar   
    30   16   19 ar   
    31   20   21 1    
    32   20   22 1    
    33   20   57 1    
    34   22   23 1    
    35   22   58 1    
    36   22   59 1    
    37   23   24 1    
    38   24   25 ar   
    39   24   26 ar   
    40   24   27 1    
    41   27   28 1    
    42   28   29 ar   
    43   28   30 ar   
    44   28   31 1    
    45   31   33 1    
    46   32   33 1    
    47   32   34 1    
    48   32   35 1    
    49   32   36 1    
    50   33   60 1    
    51   33   61 1    
    52   34   62 1    
    53   34   63 1    
    54   34   64 1    
    55   35   66 1    
    56   35   65 1    
    57   35   67 1    
    58   36   37 1    
    59   36   38 1    
    60   36   68 1    
    61   37   69 1    
    62   38   39 2    
    63   38   40 am   
    64   40   70 1    
    65   40   41 1    
    66   41   42 1    
    67   41   71 1    
    68   41   72 1    
    69   42   43 1    
    70   42   73 1    
    71   42   74 1    
    72   43   44 2    
    73   43   45 am   
    74   45   46 1    
    75   46   47 1    
    76   45   75 1    
    77   46   76 1    
    78   46   77 1    
    79   47   48 1    
    80   47   78 1    
    81   47   79 1    
    82   48   80 1    
@<TRIPOS>SUBSTRUCTURE
     1 COA501      1 GROUP   
@<TRIPOS>SET
ATOM$ORANGE STATIC     ATOMS   COLORGROUP SYSTEM 
42 2 2 4 4 5 5 6 6 9 9 11 11 12 12 14 14 20 \
20 22 22 32 32 33 33 34 34 35 35 36 36 38 38 41 41 42 \
42 43 43 46 46 47 47 

