#    Name: 6cz6_2_COA
#    Modification time : Fri May 22 19:25:35 2020

@<TRIPOS>MOLECULE
6cz6_2_COA
   80    82     1     0     1
SMALL
NO_CHARGES


@<TRIPOS>ATOM
      1 N1A        -8.4310   -6.9710   56.5900 N.ar      1 COA501      0.0000 
      2 C2A        -7.1320   -7.2230   56.4530 C.ar      1 COA501      0.0000 
      3 N3A        -6.4820   -7.7760   55.4340 N.ar      1 COA501      0.0000 
      4 C4A        -7.3080   -8.1210   54.4070 C.ar      1 COA501      0.0000 
      5 C5A        -8.6970   -7.9140   54.4180 C.ar      1 COA501      0.0000 
      6 C6A        -9.2350   -7.3180   55.5580 C.ar      1 COA501      0.0000 
      7 N6A       -10.5560   -7.0820   55.6630 N.pl3     1 COA501      0.0000 
      8 N7A        -9.2730   -8.3640   53.2370 N.2       1 COA501      0.0000 
      9 C8A        -8.2280   -8.8310   52.5390 C.2       1 COA501      0.0000 
     10 N9A        -7.0420   -8.7250   53.1890 N.pl3     1 COA501      0.0000 
     11 C1B        -5.6970   -9.1320   52.6970 C.3       1 COA501      0.0000 
     12 C2B        -5.4950  -10.6540   52.7380 C.3       1 COA501      0.0000 
     13 O2B        -4.9440  -11.0310   53.9660 O.3       1 COA501      0.0000 
     14 C3B        -4.4410  -10.8040   51.6020 C.3       1 COA501      0.0000 
     15 O3B        -3.1120  -10.6230   52.1450 O.3       1 COA501      0.0000 
     16 P3B        -2.0650  -11.6550   51.4870 P.3       1 COA501      0.0000 
     17 O7A        -1.9080  -11.3550   50.0370 O.co2     1 COA501      0.0000 
     18 O8A        -0.6930  -11.5210   52.1560 O.co2     1 COA501      0.0000 
     19 O9A        -2.5190  -13.0850   51.6750 O.co2     1 COA501      0.0000 
     20 C4B        -4.7820   -9.6330   50.6080 C.3       1 COA501      0.0000 
     21 O4B        -5.6550   -8.7420   51.3230 O.3       1 COA501      0.0000 
     22 C5B        -5.4230  -10.1960   49.3660 C.3       1 COA501      0.0000 
     23 O5B        -6.5130  -10.9730   49.7270 O.3       1 COA501      0.0000 
     24 P1A        -7.9110  -10.9230   48.9130 P.3       1 COA501      0.0000 
     25 O1A        -8.5650   -9.6300   49.2090 O.co2     1 COA501      0.0000 
     26 O2A        -8.6860  -12.2170   48.9640 O.co2     1 COA501      0.0000 
     27 O3A        -7.4940  -10.7180   47.3220 O.3       1 COA501      0.0000 
     28 P2A        -8.2090  -11.0830   45.9590 P.3       1 COA501      0.0000 
     29 O4A        -7.6890  -10.1690   44.9230 O.co2     1 COA501      0.0000 
     30 O5A        -8.3130  -12.5740   45.7220 O.co2     1 COA501      0.0000 
     31 O6A        -9.7470  -10.6310   46.1230 O.3       1 COA501      0.0000 
     32 CBP       -11.6640   -9.2650   46.5920 C.3       1 COA501      0.0000 
     33 CCP       -10.1280   -9.3440   46.3510 C.3       1 COA501      0.0000 
     34 CDP       -12.1480   -7.8090   46.3650 C.3       1 COA501      0.0000 
     35 CEP       -12.3680  -10.2100   45.6040 C.3       1 COA501      0.0000 
     36 CAP       -11.9470   -9.7810   48.0260 C.3       1 COA501      0.0000 
     37 OAP       -11.1910   -8.9740   48.9720 O.3       1 COA501      0.0000 
     38 C9P       -13.3640   -9.7970   48.5000 C.2       1 COA501      0.0000 
     39 O9P       -14.1600  -10.5930   48.0210 O.2       1 COA501      0.0000 
     40 N8P       -13.7040   -8.9670   49.4850 N.am      1 COA501      0.0000 
     41 C7P       -15.0060   -8.9600   50.0560 C.3       1 COA501      0.0000 
     42 C6P       -15.3800   -7.4900   50.4620 C.3       1 COA501      0.0000 
     43 C5P       -15.6330   -6.5900   49.2730 C.2       1 COA501      0.0000 
     44 O5P       -16.2840   -6.9230   48.2900 O.2       1 COA501      0.0000 
     45 N4P       -15.0990   -5.3690   49.3150 N.am      1 COA501      0.0000 
     46 C3P       -15.2860   -4.4230   48.2090 C.3       1 COA501      0.0000 
     47 C2P       -14.3240   -3.2490   48.3800 C.3       1 COA501      0.0000 
     48 S1P       -14.1360   -2.3820   46.7840 S.3       1 COA501      0.0000 
     49 H2A        -6.6110   -6.9730   57.1820 H         1 COA501      0.0000 
     50 H61A      -11.0470   -7.1680   54.9620 H         1 COA501      0.0000 
     51 H62A      -10.8730   -6.8520   56.4290 H         1 COA501      0.0000 
     52 H8A        -8.2920   -9.1980   51.6870 H         1 COA501      0.0000 
     53 H1B        -5.0540   -8.6800   53.2650 H         1 COA501      0.0000 
     54 H2B        -6.2940  -11.1410   52.4860 H         1 COA501      0.0000 
     55 HO2A       -5.4630  -10.7280   54.5660 H         1 COA501      0.0000 
     56 H3B        -4.5980  -11.6480   51.1510 H         1 COA501      0.0000 
     57 H4B        -3.9910   -9.1440   50.3320 H         1 COA501      0.0000 
     58 H51A       -4.7880  -10.7280   48.8620 H         1 COA501      0.0000 
     59 H52A       -5.7050   -9.4830   48.7710 H         1 COA501      0.0000 
     60 H121       -9.8690   -8.7900   45.5980 H         1 COA501      0.0000 
     61 H122       -9.6420   -8.9920   47.1140 H         1 COA501      0.0000 
     62 H131      -13.0900   -7.6990   46.5680 H         1 COA501      0.0000 
     63 H132      -11.6700   -7.1710   46.9180 H         1 COA501      0.0000 
     64 H133      -12.0290   -7.5200   45.4460 H         1 COA501      0.0000 
     65 H141      -11.8150  -10.3870   44.8280 H         1 COA501      0.0000 
     66 H142      -12.5740  -11.0640   46.0160 H         1 COA501      0.0000 
     67 H143      -13.2030   -9.8320   45.2860 H         1 COA501      0.0000 
     68 H10       -11.7020  -10.7190   48.0420 H         1 COA501      0.0000 
     69 HO1       -11.2790   -9.3300   49.7380 H         1 COA501      0.0000 
     70 HN8       -13.1120   -8.4550   49.8300 H         1 COA501      0.0000 
     71 H71       -15.6320   -9.3200   49.4080 H         1 COA501      0.0000 
     72 H72       -15.0140   -9.5530   50.8230 H         1 COA501      0.0000 
     73 H61       -16.1750   -7.5190   51.0180 H         1 COA501      0.0000 
     74 H62       -14.6560   -7.1250   50.9930 H         1 COA501      0.0000 
     75 HN4       -14.6440   -5.1250   50.0020 H         1 COA501      0.0000 
     76 H31       -15.1330   -4.8810   47.3680 H         1 COA501      0.0000 
     77 H32       -16.2080   -4.1210   48.2000 H         1 COA501      0.0000 
     78 H21       -14.6690   -2.6320   49.0450 H         1 COA501      0.0000 
     79 H22       -13.4590   -3.5700   48.6780 H         1 COA501      0.0000 
     80 HS1       -14.6440   -3.2020   46.0710 H         1 COA501      0.0000 
@<TRIPOS>BOND
     1    1    2 ar   
     2    1    6 ar   
     3    2    3 ar   
     4    3    4 ar   
     5    2   49 1    
     6    4    5 ar   
     7    4   10 1    
     8    5    6 ar   
     9    5    8 1    
    10    6    7 1    
    11    8    9 2    
    12    7   50 1    
    13    7   51 1    
    14    9   10 1    
    15   10   11 1    
    16    9   52 1    
    17   11   12 1    
    18   11   21 1    
    19   11   53 1    
    20   12   13 1    
    21   12   14 1    
    22   12   54 1    
    23   13   55 1    
    24   14   15 1    
    25   14   20 1    
    26   14   56 1    
    27   15   16 1    
    28   16   17 ar   
    29   16   18 ar   
    30   16   19 ar   
    31   20   21 1    
    32   20   22 1    
    33   20   57 1    
    34   22   23 1    
    35   22   58 1    
    36   22   59 1    
    37   23   24 1    
    38   24   25 ar   
    39   24   26 ar   
    40   24   27 1    
    41   27   28 1    
    42   28   29 ar   
    43   28   30 ar   
    44   28   31 1    
    45   31   33 1    
    46   32   33 1    
    47   32   34 1    
    48   32   35 1    
    49   32   36 1    
    50   33   60 1    
    51   33   61 1    
    52   34   62 1    
    53   34   63 1    
    54   34   64 1    
    55   35   66 1    
    56   35   65 1    
    57   35   67 1    
    58   36   37 1    
    59   36   38 1    
    60   36   68 1    
    61   37   69 1    
    62   38   39 2    
    63   38   40 am   
    64   40   41 1    
    65   41   42 1    
    66   40   70 1    
    67   41   71 1    
    68   41   72 1    
    69   42   43 1    
    70   42   73 1    
    71   42   74 1    
    72   43   44 2    
    73   43   45 am   
    74   45   46 1    
    75   46   47 1    
    76   45   75 1    
    77   46   76 1    
    78   46   77 1    
    79   47   48 1    
    80   47   78 1    
    81   47   79 1    
    82   48   80 1    
@<TRIPOS>SUBSTRUCTURE
     1 COA501      1 GROUP   
@<TRIPOS>SET
ATOM$ORANGE STATIC     ATOMS   COLORGROUP SYSTEM 
42 2 2 4 4 5 5 6 6 9 9 11 11 12 12 14 14 20 \
20 22 22 32 32 33 33 34 34 35 35 36 36 38 38 41 41 42 \
42 43 43 46 46 47 47 

