#    Name: 6cz6_4_COA
#    Modification time : Fri May 22 19:25:56 2020

@<TRIPOS>MOLECULE
6cz6_4_COA
   80    82     1     0     1
SMALL
NO_CHARGES


@<TRIPOS>ATOM
      1 N1A        22.8710  -23.5350   49.9650 N.ar      1 COA501      0.0000 
      2 C2A        21.6630  -23.0180   49.8060 C.ar      1 COA501      0.0000 
      3 N3A        21.2120  -21.8180   50.1350 N.ar      1 COA501      0.0000 
      4 C4A        22.1600  -21.0400   50.7200 C.ar      1 COA501      0.0000 
      5 C5A        23.4820  -21.4540   50.9540 C.ar      1 COA501      0.0000 
      6 C6A        23.8090  -22.7510   50.5420 C.ar      1 COA501      0.0000 
      7 N6A        25.0440  -23.2520   50.7370 N.pl3     1 COA501      0.0000 
      8 N7A        24.2160  -20.4360   51.5680 N.2       1 COA501      0.0000 
      9 C8A        23.3220  -19.4360   51.6870 C.2       1 COA501      0.0000 
     10 N9A        22.0860  -19.7480   51.2060 N.pl3     1 COA501      0.0000 
     11 C1B        20.8690  -18.8860   51.1680 C.3       1 COA501      0.0000 
     12 C2B        20.2100  -18.7590   52.5660 C.3       1 COA501      0.0000 
     13 O2B        19.3120  -19.8030   52.7630 O.3       1 COA501      0.0000 
     14 C3B        19.4710  -17.3980   52.3740 C.3       1 COA501      0.0000 
     15 O3B        18.1520  -17.6200   51.8030 O.3       1 COA501      0.0000 
     16 P3B        17.0780  -16.5380   52.3960 P.3       1 COA501      0.0000 
     17 O7A        17.4560  -15.1550   51.9800 O.co2     1 COA501      0.0000 
     18 O8A        15.6700  -16.8260   51.8650 O.co2     1 COA501      0.0000 
     19 O9A        17.0130  -16.6210   53.9030 O.co2     1 COA501      0.0000 
     20 C4B        20.4090  -16.6100   51.3720 C.3       1 COA501      0.0000 
     21 O4B        21.2900  -17.5880   50.7780 O.3       1 COA501      0.0000 
     22 C5B        21.2000  -15.5570   52.1080 C.3       1 COA501      0.0000 
     23 O5B        21.8170  -16.1570   53.2010 O.3       1 COA501      0.0000 
     24 P1A        23.3840  -15.9330   53.5490 P.3       1 COA501      0.0000 
     25 O1A        24.1890  -16.2930   52.3640 O.co2     1 COA501      0.0000 
     26 O2A        23.7640  -16.4890   54.9040 O.co2     1 COA501      0.0000 
     27 O3A        23.5390  -14.2590   53.5930 O.3       1 COA501      0.0000 
     28 P2A        24.7530  -13.2320   53.6290 P.3       1 COA501      0.0000 
     29 O4A        24.5950  -12.2790   52.5120 O.co2     1 COA501      0.0000 
     30 O5A        25.0110  -12.7090   55.0250 O.co2     1 COA501      0.0000 
     31 O6A        26.0540  -14.1300   53.1740 O.3       1 COA501      0.0000 
     32 CBP        28.3370  -15.0970   53.1420 C.3       1 COA501      0.0000 
     33 CCP        27.3030  -14.0520   53.7440 C.3       1 COA501      0.0000 
     34 CDP        28.2780  -14.9740   51.5960 C.3       1 COA501      0.0000 
     35 CEP        29.7280  -14.7590   53.6800 C.3       1 COA501      0.0000 
     36 CAP        28.0080  -16.5380   53.6180 C.3       1 COA501      0.0000 
     37 OAP        26.9810  -17.0740   52.7230 O.3       1 COA501      0.0000 
     38 C9P        29.1050  -17.5590   53.6960 C.2       1 COA501      0.0000 
     39 O9P        29.4340  -17.9870   54.8070 O.2       1 COA501      0.0000 
     40 N8P        29.7110  -17.9840   52.6010 N.am      1 COA501      0.0000 
     41 C7P        30.7380  -18.9740   52.7170 C.3       1 COA501      0.0000 
     42 C6P        31.1110  -19.5300   51.2920 C.3       1 COA501      0.0000 
     43 C5P        31.7840  -18.5130   50.3490 C.2       1 COA501      0.0000 
     44 O5P        32.6480  -17.7150   50.7150 O.2       1 COA501      0.0000 
     45 N4P        31.3740  -18.5350   49.0410 N.am      1 COA501      0.0000 
     46 C3P        31.9100  -17.6330   47.9750 C.3       1 COA501      0.0000 
     47 C2P        31.7220  -16.1680   48.3660 C.3       1 COA501      0.0000 
     48 S1P        32.9700  -15.1370   47.5120 S.3       1 COA501      0.0000 
     49 H2A        21.0480  -23.5880   49.4040 H         1 COA501      0.0000 
     50 H61A       25.6590  -23.0680   50.1650 H         1 COA501      0.0000 
     51 H62A       25.1850  -23.7430   51.4290 H         1 COA501      0.0000 
     52 H8A        23.5120  -18.6060   52.0590 H         1 COA501      0.0000 
     53 H1B        20.2710  -19.3050   50.5290 H         1 COA501      0.0000 
     54 H2B        20.8560  -18.6500   53.2810 H         1 COA501      0.0000 
     55 HO2A       18.9450  -19.6660   53.5170 H         1 COA501      0.0000 
     56 H3B        19.4650  -16.9240   53.2200 H         1 COA501      0.0000 
     57 H4B        19.8850  -16.1690   50.6850 H         1 COA501      0.0000 
     58 H51A       20.6260  -14.8320   52.4020 H         1 COA501      0.0000 
     59 H52A       21.8640  -15.1510   51.5280 H         1 COA501      0.0000 
     60 H121       27.2180  -14.1830   54.7010 H         1 COA501      0.0000 
     61 H122       27.6410  -13.1490   53.6320 H         1 COA501      0.0000 
     62 H131       28.5790  -14.1060   51.2850 H         1 COA501      0.0000 
     63 H132       28.8340  -15.6350   51.1540 H         1 COA501      0.0000 
     64 H133       27.3790  -15.0940   51.2520 H         1 COA501      0.0000 
     65 H141       29.8540  -13.8000   53.7620 H         1 COA501      0.0000 
     66 H142       29.8730  -15.1460   54.5570 H         1 COA501      0.0000 
     67 H143       30.4260  -15.0940   53.0960 H         1 COA501      0.0000 
     68 H10        27.7380  -16.4750   54.5480 H         1 COA501      0.0000 
     69 HO1        26.2320  -16.7620   52.9770 H         1 COA501      0.0000 
     70 HN8        29.4680  -17.7170   51.8440 H         1 COA501      0.0000 
     71 H71        31.5070  -18.5710   53.1500 H         1 COA501      0.0000 
     72 H72        30.4200  -19.6820   53.2990 H         1 COA501      0.0000 
     73 H61        31.7050  -20.2870   51.4130 H         1 COA501      0.0000 
     74 H62        30.2960  -19.8520   50.8750 H         1 COA501      0.0000 
     75 HN4        30.7730  -19.1080   48.8040 H         1 COA501      0.0000 
     76 H31        32.8480  -17.8350   47.8360 H         1 COA501      0.0000 
     77 H32        31.4540  -17.8290   47.1410 H         1 COA501      0.0000 
     78 H21        30.8330  -15.8710   48.1170 H         1 COA501      0.0000 
     79 H22        31.8210  -16.0670   49.3260 H         1 COA501      0.0000 
     80 HS1        32.7260  -14.0860   48.0350 H         1 COA501      0.0000 
@<TRIPOS>BOND
     1    1    2 ar   
     2    1    6 ar   
     3    2    3 ar   
     4    3    4 ar   
     5    2   49 1    
     6    4    5 ar   
     7    4   10 1    
     8    5    6 ar   
     9    5    8 1    
    10    6    7 1    
    11    8    9 2    
    12    7   50 1    
    13    7   51 1    
    14    9   10 1    
    15   10   11 1    
    16    9   52 1    
    17   11   12 1    
    18   11   21 1    
    19   11   53 1    
    20   12   13 1    
    21   12   14 1    
    22   12   54 1    
    23   13   55 1    
    24   14   15 1    
    25   14   20 1    
    26   14   56 1    
    27   15   16 1    
    28   16   17 ar   
    29   16   18 ar   
    30   16   19 ar   
    31   20   21 1    
    32   20   22 1    
    33   20   57 1    
    34   22   23 1    
    35   22   58 1    
    36   22   59 1    
    37   23   24 1    
    38   24   25 ar   
    39   24   26 ar   
    40   24   27 1    
    41   27   28 1    
    42   28   29 ar   
    43   28   30 ar   
    44   28   31 1    
    45   31   33 1    
    46   32   33 1    
    47   32   34 1    
    48   32   35 1    
    49   32   36 1    
    50   33   60 1    
    51   33   61 1    
    52   34   62 1    
    53   34   63 1    
    54   34   64 1    
    55   35   66 1    
    56   35   65 1    
    57   35   67 1    
    58   36   37 1    
    59   36   38 1    
    60   36   68 1    
    61   38   39 2    
    62   37   69 1    
    63   38   40 am   
    64   40   70 1    
    65   40   41 1    
    66   41   42 1    
    67   41   71 1    
    68   41   72 1    
    69   42   43 1    
    70   42   73 1    
    71   42   74 1    
    72   43   44 2    
    73   43   45 am   
    74   45   46 1    
    75   46   47 1    
    76   45   75 1    
    77   46   76 1    
    78   46   77 1    
    79   47   48 1    
    80   47   78 1    
    81   47   79 1    
    82   48   80 1    
@<TRIPOS>SUBSTRUCTURE
     1 COA501      1 GROUP   
@<TRIPOS>SET
ATOM$ORANGE STATIC     ATOMS   COLORGROUP SYSTEM 
42 2 2 4 4 5 5 6 6 9 9 11 11 12 12 14 14 20 \
20 22 22 32 32 33 33 34 34 35 35 36 36 38 38 41 41 42 \
42 43 43 46 46 47 47 

