#    Name: 6cz6_3_COA
#    Modification time : Fri May 22 19:25:45 2020

@<TRIPOS>MOLECULE
6cz6_3_COA
   80    82     1     0     1
SMALL
NO_CHARGES


@<TRIPOS>ATOM
      1 N1A        32.7060   19.7300   28.7110 N.ar      1 COA501      0.0000 
      2 C2A        31.4040   19.5890   28.4770 C.ar      1 COA501      0.0000 
      3 N3A        30.7480   18.5620   27.9560 N.ar      1 COA501      0.0000 
      4 C4A        31.5680   17.5340   27.6250 C.ar      1 COA501      0.0000 
      5 C5A        32.9600   17.5500   27.8140 C.ar      1 COA501      0.0000 
      6 C6A        33.5070   18.6940   28.3750 C.ar      1 COA501      0.0000 
      7 N6A        34.8340   18.7960   28.5950 N.pl3     1 COA501      0.0000 
      8 N7A        33.5290   16.3650   27.3850 N.2       1 COA501      0.0000 
      9 C8A        32.4770   15.6560   26.9450 C.2       1 COA501      0.0000 
     10 N9A        31.2940   16.3050   27.0540 N.pl3     1 COA501      0.0000 
     11 C1B        29.9420   15.8200   26.6790 C.3       1 COA501      0.0000 
     12 C2B        29.7220   15.8220   25.1410 C.3       1 COA501      0.0000 
     13 O2B        29.2500   17.0530   24.7010 O.3       1 COA501      0.0000 
     14 C3B        28.6060   14.7320   25.0440 C.3       1 COA501      0.0000 
     15 O3B        27.3040   15.3340   25.2270 O.3       1 COA501      0.0000 
     16 P3B        26.1910   14.5850   24.3250 P.3       1 COA501      0.0000 
     17 O7A        26.0300   13.1650   24.7530 O.co2     1 COA501      0.0000 
     18 O8A        24.8360   15.2800   24.4890 O.co2     1 COA501      0.0000 
     19 O9A        26.5690   14.6270   22.8590 O.co2     1 COA501      0.0000 
     20 C4B        28.9190   13.7580   26.2420 C.3       1 COA501      0.0000 
     21 O4B        29.8470   14.4540   27.0970 O.3       1 COA501      0.0000 
     22 C5B        29.4940   12.4720   25.7100 C.3       1 COA501      0.0000 
     23 O5B        30.5970   12.7630   24.9210 O.3       1 COA501      0.0000 
     24 P1A        31.9970   11.9510   25.0150 P.3       1 COA501      0.0000 
     25 O1A        32.6980   12.3790   26.2440 O.co2     1 COA501      0.0000 
     26 O2A        32.7290   11.8960   23.6950 O.co2     1 COA501      0.0000 
     27 O3A        31.6290   10.3710   25.3860 O.3       1 COA501      0.0000 
     28 P2A        32.3550    9.0030   25.0280 P.3       1 COA501      0.0000 
     29 O4A        31.8700    7.9360   25.9220 O.co2     1 COA501      0.0000 
     30 O5A        32.4900    8.7690   23.5400 O.co2     1 COA501      0.0000 
     31 O6A        33.8790    9.1950   25.5130 O.3       1 COA501      0.0000 
     32 CBP        35.7470    9.7920   26.9100 C.3       1 COA501      0.0000 
     33 CCP        34.2230    9.4750   26.8060 C.3       1 COA501      0.0000 
     34 CDP        36.1870    9.6650   28.4000 C.3       1 COA501      0.0000 
     35 CEP        36.5150    8.7840   26.0200 C.3       1 COA501      0.0000 
     36 CAP        35.9730   11.2160   26.3570 C.3       1 COA501      0.0000 
     37 OAP        35.2790   12.1800   27.1330 O.3       1 COA501      0.0000 
     38 C9P        37.4290   11.6340   26.3150 C.2       1 COA501      0.0000 
     39 O9P        38.1990   11.1370   25.5050 O.2       1 COA501      0.0000 
     40 N8P        37.8330   12.5670   27.1820 N.am      1 COA501      0.0000 
     41 C7P        39.1610   13.0760   27.1730 C.3       1 COA501      0.0000 
     42 C6P        39.5860   13.4680   28.6350 C.3       1 COA501      0.0000 
     43 C5P        39.8470   12.2680   29.5150 C.2       1 COA501      0.0000 
     44 O5P        40.6180   11.3640   29.2150 O.2       1 COA501      0.0000 
     45 N4P        39.1770   12.2000   30.6710 N.am      1 COA501      0.0000 
     46 C3P        39.3640   11.0690   31.5800 C.3       1 COA501      0.0000 
     47 C2P        38.3230   11.1240   32.6940 C.3       1 COA501      0.0000 
     48 S1P        38.6680    9.7700   33.8660 S.3       1 COA501      0.0000 
     49 H2A        30.8870   20.3240   28.7180 H         1 COA501      0.0000 
     50 H61A       35.3370   18.1290   28.3920 H         1 COA501      0.0000 
     51 H62A       35.1410   19.5260   28.9310 H         1 COA501      0.0000 
     52 H8A        32.5360   14.7970   26.5940 H         1 COA501      0.0000 
     53 H1B        29.3270   16.4150   27.1370 H         1 COA501      0.0000 
     54 H2B        30.5060   15.5110   24.6620 H         1 COA501      0.0000 
     55 HO2A       29.0000   16.9420   23.8960 H         1 COA501      0.0000 
     56 H3B        28.7290   14.2530   24.2090 H         1 COA501      0.0000 
     57 H4B        28.1220   13.5390   26.7500 H         1 COA501      0.0000 
     58 H51A       28.8330   11.9870   25.1920 H         1 COA501      0.0000 
     59 H52A       29.7500   11.8820   26.4350 H         1 COA501      0.0000 
     60 H121       33.9890    8.7250   27.3740 H         1 COA501      0.0000 
     61 H122       33.6950   10.2220   27.1280 H         1 COA501      0.0000 
     62 H131       36.1920    8.7440   28.7050 H         1 COA501      0.0000 
     63 H132       37.0810   10.0100   28.5500 H         1 COA501      0.0000 
     64 H133       35.5990   10.1510   29.0000 H         1 COA501      0.0000 
     65 H141       36.0290    7.9490   25.9290 H         1 COA501      0.0000 
     66 H142       36.6570    9.1360   25.1270 H         1 COA501      0.0000 
     67 H143       37.3860    8.5750   26.3910 H         1 COA501      0.0000 
     68 H10        35.6510   11.2400   25.4420 H         1 COA501      0.0000 
     69 HO1        35.4360   12.9430   26.7930 H         1 COA501      0.0000 
     70 HN8        37.2660   12.9240   27.7150 H         1 COA501      0.0000 
     71 H71        39.7490   12.4000   26.8040 H         1 COA501      0.0000 
     72 H72        39.1950   13.8420   26.5790 H         1 COA501      0.0000 
     73 H61        40.3880   14.0120   28.5860 H         1 COA501      0.0000 
     74 H62        38.8820   14.0070   29.0260 H         1 COA501      0.0000 
     75 HN4        38.6370   12.8290   30.8930 H         1 COA501      0.0000 
     76 H31        39.2920   10.2430   31.0770 H         1 COA501      0.0000 
     77 H32        40.2630   11.0990   31.9420 H         1 COA501      0.0000 
     78 H21        38.3680   11.9770   33.1540 H         1 COA501      0.0000 
     79 H22        37.4310   11.0210   32.3260 H         1 COA501      0.0000 
     80 HS1        38.7080    8.8600   33.0840 H         1 COA501      0.0000 
@<TRIPOS>BOND
     1    1    2 ar   
     2    1    6 ar   
     3    2    3 ar   
     4    3    4 ar   
     5    2   49 1    
     6    4    5 ar   
     7    4   10 1    
     8    5    6 ar   
     9    5    8 1    
    10    6    7 1    
    11    8    9 2    
    12    7   50 1    
    13    7   51 1    
    14    9   10 1    
    15   10   11 1    
    16    9   52 1    
    17   11   12 1    
    18   11   21 1    
    19   11   53 1    
    20   12   13 1    
    21   12   14 1    
    22   12   54 1    
    23   13   55 1    
    24   14   15 1    
    25   14   20 1    
    26   14   56 1    
    27   15   16 1    
    28   16   17 ar   
    29   16   18 ar   
    30   16   19 ar   
    31   20   21 1    
    32   20   22 1    
    33   20   57 1    
    34   22   23 1    
    35   22   58 1    
    36   22   59 1    
    37   23   24 1    
    38   24   25 ar   
    39   24   26 ar   
    40   24   27 1    
    41   27   28 1    
    42   28   29 ar   
    43   28   30 ar   
    44   28   31 1    
    45   31   33 1    
    46   32   33 1    
    47   32   34 1    
    48   32   35 1    
    49   32   36 1    
    50   33   60 1    
    51   33   61 1    
    52   34   62 1    
    53   34   63 1    
    54   34   64 1    
    55   35   66 1    
    56   35   65 1    
    57   35   67 1    
    58   36   37 1    
    59   36   38 1    
    60   36   68 1    
    61   37   69 1    
    62   38   39 2    
    63   38   40 am   
    64   40   41 1    
    65   41   42 1    
    66   40   70 1    
    67   41   71 1    
    68   41   72 1    
    69   42   43 1    
    70   42   73 1    
    71   42   74 1    
    72   43   44 2    
    73   43   45 am   
    74   45   46 1    
    75   46   47 1    
    76   45   75 1    
    77   46   76 1    
    78   46   77 1    
    79   47   48 1    
    80   47   78 1    
    81   47   79 1    
    82   48   80 1    
@<TRIPOS>SUBSTRUCTURE
     1 COA501      1 GROUP   
@<TRIPOS>SET
ATOM$ORANGE STATIC     ATOMS   COLORGROUP SYSTEM 
42 2 2 4 4 5 5 6 6 9 9 11 11 12 12 14 14 20 \
20 22 22 32 32 33 33 34 34 35 35 36 36 38 38 41 41 42 \
42 43 43 46 46 47 47 

