#    Name: 6kp7_2_UMP
#    Modification time : Fri May 22 19:25:26 2020

@<TRIPOS>MOLECULE
6kp7_2_UMP
   20    21     1     0     1
SMALL
NO_CHARGES


@<TRIPOS>ATOM
      1 N1         13.7020  -20.3800   19.2080 N.am      1 UMP702      0.0000 
      2 C2         14.5280  -19.8740   20.2200 C.2       1 UMP702      0.0000 
      3 N3         15.3540  -20.8200   20.7790 N.am      1 UMP702      0.0000 
      4 C4         15.4650  -22.1620   20.4670 C.2       1 UMP702      0.0000 
      5 C5         14.5910  -22.6050   19.4160 C.2       1 UMP702      0.0000 
      6 C6         13.7540  -21.7180   18.8520 C.2       1 UMP702      0.0000 
      7 O2         14.5180  -18.7130   20.6630 O.2       1 UMP702      0.0000 
      8 O4         16.2870  -22.8610   21.0710 O.2       1 UMP702      0.0000 
      9 C1'        12.6660  -19.5150   18.5470 C.3       1 UMP702      0.0000 
     10 C2'        13.1670  -18.4590   17.5600 C.3       1 UMP702      0.0000 
     11 C3'        11.9410  -18.3060   16.6560 C.3       1 UMP702      0.0000 
     12 C4'        11.5310  -19.7670   16.4880 C.3       1 UMP702      0.0000 
     13 O3'        10.9100  -17.5500   17.2910 O.3       1 UMP702      0.0000 
     14 O4'        11.8030  -20.3760   17.7820 O.3       1 UMP702      0.0000 
     15 C5'        12.2670  -20.5020   15.3750 C.3       1 UMP702      0.0000 
     16 O5'        11.6130  -20.2240   14.0990 O.3       1 UMP702      0.0000 
     17 P          12.4120  -19.7450   12.8250 P.3       1 UMP702      0.0000 
     18 OP1        11.4050  -19.2460   11.8430 O.co2     1 UMP702      0.0000 
     19 OP2        13.2700  -18.6210   13.2540 O.co2     1 UMP702      0.0000 
     20 OP3        13.1330  -20.9630   12.3670 O.co2     1 UMP702      0.0000 
@<TRIPOS>BOND
     1    1    2 1    
     2    1    6 1    
     3    1    9 1    
     4    2    3 1    
     5    2    7 2    
     6    3    4 1    
     7    4    5 1    
     8    4    8 2    
     9    5    6 2    
    10    9   10 1    
    11    9   14 1    
    12   10   11 1    
    13   11   12 1    
    14   11   13 1    
    15   12   14 1    
    16   12   15 1    
    17   15   16 1    
    18   16   17 1    
    19   17   18 ar   
    20   17   19 ar   
    21   17   20 ar   
@<TRIPOS>SUBSTRUCTURE
     1 UMP702      1 GROUP   
@<TRIPOS>SET
ATOM$ORANGE STATIC     ATOMS   COLORGROUP SYSTEM 
18 2 2 4 4 5 5 6 6 9 9 10 10 11 11 12 12 15 \
15 

