#    Name: 6kp7_2_UMP_CAVITY_N1_4
#    Modification time : Fri May 22 19:25:27 2020

@<TRIPOS>MOLECULE
6kp7_2_UMP_CAVITY_N1_4
   65     0     7     0     0
SMALL
NO_CHARGES


@<TRIPOS>ATOM
      1 OG          8.5300  -20.2900   17.6300 O.3       1 SER1        0.0000 
      2 OG          9.7500  -19.2800   16.2100 O.3       1 SER1        0.0000 
      3 OG         12.6500  -19.3700   15.4500 O.3       1 SER1        0.0000 
      4 OG          8.8300  -19.2200   18.6400 O.3       1 SER1        0.0000 
      5 OG         10.2800  -19.2600   18.2600 O.3       1 SER1        0.0000 
      6 OG         11.4900  -18.2600   16.8400 O.3       1 SER1        0.0000 
      7 N          13.9800  -23.6600   15.1300 N.am      2 ALA2        0.0000 
      8 N          12.5900  -21.4900   15.4800 N.am      2 ALA2        0.0000 
      9 N          12.8300  -22.5500   16.5200 N.am      2 ALA2        0.0000 
     10 N          13.0600  -23.6000   17.5600 N.am      2 ALA2        0.0000 
     11 N          14.5200  -23.6400   17.1800 N.am      2 ALA2        0.0000 
     12 N          12.8900  -20.4300   16.4900 N.am      2 ALA2        0.0000 
     13 N          13.1200  -21.4800   17.5300 N.am      2 ALA2        0.0000 
     14 N          13.3600  -22.5300   18.5700 N.am      2 ALA2        0.0000 
     15 N          13.1800  -19.3600   17.5000 N.am      2 ALA2        0.0000 
     16 N          13.4200  -20.4100   18.5400 N.am      2 ALA2        0.0000 
     17 N          13.6600  -21.4600   19.5800 N.am      2 ALA2        0.0000 
     18 O          14.1400  -23.5700   21.6700 O.2       2 ALA2        0.0000 
     19 N          15.1100  -21.5100   19.2000 N.am      2 ALA2        0.0000 
     20 O          13.7200  -19.3400   19.5500 O.2       2 ALA2        0.0000 
     21 O          14.4400  -22.5000   22.6800 O.2       2 ALA2        0.0000 
     22 O          15.4100  -20.4400   20.2100 O.2       2 ALA2        0.0000 
     23 N          15.6500  -21.4900   21.2600 N.am      2 ALA2        0.0000 
     24 OD1         8.2400  -21.3500   16.6200 O.co2     3 ASP3        0.0000 
     25 OD1         9.9300  -22.4500   17.2800 O.co2     3 ASP3        0.0000 
     26 OD1        11.1400  -21.4500   15.8600 O.co2     3 ASP3        0.0000 
     27 OD1        12.3500  -20.4400   14.4400 O.co2     3 ASP3        0.0000 
     28 OD1         9.9800  -20.3300   17.2500 O.co2     3 ASP3        0.0000 
     29 OD1        11.2000  -19.3300   15.8300 O.co2     3 ASP3        0.0000 
     30 OD1        11.4300  -20.3800   16.8700 O.co2     3 ASP3        0.0000 
     31 NZ         10.5200  -20.3200   19.3000 N.4       4 LYS4        0.0000 
     32 NZ         11.0600  -20.3000   21.3500 N.4       4 LYS4        0.0000 
     33 CZ         15.3500  -22.5600   20.2500 C.ar      5 PHE5        0.0000 
     34 CZ         15.5900  -23.6100   21.2900 C.ar      5 PHE5        0.0000 
     35 CA         11.0800  -23.5700   15.8900 C.3       6 GLY6        0.0000 
     36 CA         12.2900  -22.5600   14.4700 C.3       6 GLY6        0.0000 
     37 CA         12.5300  -23.6100   15.5100 C.3       6 GLY6        0.0000 
     38 CA         12.7700  -24.6700   16.5500 C.3       6 GLY6        0.0000 
     39 CA         14.2200  -24.7100   16.1700 C.3       6 GLY6        0.0000 
     40 CA         11.3800  -22.5000   16.9000 C.3       6 GLY6        0.0000 
     41 CA         11.6100  -23.5500   17.9400 C.3       6 GLY6        0.0000 
     42 CA         14.0800  -25.6900   21.7000 C.3       6 GLY6        0.0000 
     43 CA         11.7300  -19.3100   17.8800 C.3       6 GLY6        0.0000 
     44 CA         12.2700  -19.3000   19.9300 C.3       6 GLY6        0.0000 
     45 CA         12.5100  -20.3500   20.9700 C.3       6 GLY6        0.0000 
     46 CA         12.7500  -21.4000   22.0100 C.3       6 GLY6        0.0000 
     47 CA         12.9900  -22.4500   23.0600 C.3       6 GLY6        0.0000 
     48 CA         13.9600  -20.3900   20.5900 C.3       6 GLY6        0.0000 
     49 CA         14.2000  -21.4500   21.6300 C.3       6 GLY6        0.0000 
     50 DU         10.1600  -23.5100   18.3200 H         7 CUB7        0.0000 
     51 DU         13.3000  -24.6500   18.6000 H         7 CUB7        0.0000 
     52 DU         10.2200  -21.3900   18.2900 H         7 CUB7        0.0000 
     53 DU         11.6700  -21.4300   17.9100 H         7 CUB7        0.0000 
     54 DU         11.9100  -22.4800   18.9500 H         7 CUB7        0.0000 
     55 DU         12.3900  -24.5900   21.0400 H         7 CUB7        0.0000 
     56 DU         13.6000  -23.5800   19.6100 H         7 CUB7        0.0000 
     57 DU         13.8400  -24.6300   20.6600 H         7 CUB7        0.0000 
     58 DU         10.7600  -21.3700   20.3400 H         7 CUB7        0.0000 
     59 DU         11.0000  -22.4200   21.3800 H         7 CUB7        0.0000 
     60 DU         11.9700  -20.3600   18.9200 H         7 CUB7        0.0000 
     61 DU         12.2100  -21.4200   19.9600 H         7 CUB7        0.0000 
     62 DU         12.4500  -22.4700   21.0000 H         7 CUB7        0.0000 
     63 DU         12.6900  -23.5200   22.0500 H         7 CUB7        0.0000 
     64 DU         13.9000  -22.5100   20.6200 H         7 CUB7        0.0000 
     65 DU         14.3800  -24.6200   22.7100 H         7 CUB7        0.0000 
@<TRIPOS>BOND
@<TRIPOS>SUBSTRUCTURE
     1 SER1        1 GROUP   
     2 ALA2        7 GROUP   
     3 ASP3       24 GROUP   
     4 LYS4       31 GROUP   
     5 PHE5       33 GROUP   
     6 GLY6       35 GROUP   
     7 CUB7       50 GROUP   
@<TRIPOS>SET

