#    Name: 6kp7_4_UMP
#    Modification time : Fri May 22 19:25:40 2020

@<TRIPOS>MOLECULE
6kp7_4_UMP
   20    21     1     0     1
SMALL
NO_CHARGES


@<TRIPOS>ATOM
      1 N1         42.6210  -14.0640    8.9340 N.am      1 UMP702      0.0000 
      2 C2         41.7730  -12.9490    9.0060 C.2       1 UMP702      0.0000 
      3 N3         40.9470  -12.8170    7.9080 N.am      1 UMP702      0.0000 
      4 C4         40.8870  -13.6320    6.7840 C.2       1 UMP702      0.0000 
      5 C5         41.7900  -14.7490    6.7940 C.2       1 UMP702      0.0000 
      6 C6         42.6230  -14.9040    7.8360 C.2       1 UMP702      0.0000 
      7 O2         41.7290  -12.1290    9.9420 O.2       1 UMP702      0.0000 
      8 O4         40.0930  -13.3710    5.8810 O.2       1 UMP702      0.0000 
      9 C1'        43.6270  -14.3180    9.9920 C.3       1 UMP702      0.0000 
     10 C2'        43.1240  -14.7830   11.3480 C.3       1 UMP702      0.0000 
     11 C3'        44.3530  -15.5490   11.8430 C.3       1 UMP702      0.0000 
     12 C4'        44.7560  -16.3150   10.5740 C.3       1 UMP702      0.0000 
     13 O3'        45.3710  -14.6370   12.2770 O.3       1 UMP702      0.0000 
     14 O4'        44.4750  -15.3750    9.5110 O.3       1 UMP702      0.0000 
     15 C5'        44.0310  -17.6230   10.2910 C.3       1 UMP702      0.0000 
     16 O5'        44.6400  -18.7120   11.0830 O.3       1 UMP702      0.0000 
     17 P          43.8040  -19.6790   12.0390 P.3       1 UMP702      0.0000 
     18 OP1        42.9740  -20.5470   11.2450 O.co2     1 UMP702      0.0000 
     19 OP2        43.0660  -18.6960   12.8780 O.co2     1 UMP702      0.0000 
     20 OP3        44.8290  -20.4270   12.8000 O.co2     1 UMP702      0.0000 
@<TRIPOS>BOND
     1    1    2 1    
     2    1    6 1    
     3    1    9 1    
     4    2    3 1    
     5    2    7 2    
     6    3    4 1    
     7    4    5 1    
     8    4    8 2    
     9    5    6 2    
    10    9   10 1    
    11    9   14 1    
    12   10   11 1    
    13   11   12 1    
    14   11   13 1    
    15   12   14 1    
    16   12   15 1    
    17   15   16 1    
    18   16   17 1    
    19   17   18 ar   
    20   17   19 ar   
    21   17   20 ar   
@<TRIPOS>SUBSTRUCTURE
     1 UMP702      1 GROUP   
@<TRIPOS>SET
ATOM$ORANGE STATIC     ATOMS   COLORGROUP SYSTEM 
18 2 2 4 4 5 5 6 6 9 9 10 10 11 11 12 12 15 \
15 

