#    Name: 6kp7_4_UMP_CAVITY_N1_4
#    Modification time : Fri May 22 19:25:41 2020

@<TRIPOS>MOLECULE
6kp7_4_UMP_CAVITY_N1_4
   71     0     7     0     0
SMALL
NO_CHARGES


@<TRIPOS>ATOM
      1 OG         42.7900  -18.1500   11.9300 O.3       1 SER1        0.0000 
      2 OG         44.3000  -16.0700   11.5200 O.3       1 SER1        0.0000 
      3 OG         45.5100  -15.0700   10.1000 O.3       1 SER1        0.0000 
      4 OG         45.7500  -16.1200   11.1400 O.3       1 SER1        0.0000 
      5 OG         46.9600  -15.1100    9.7200 O.3       1 SER1        0.0000 
      6 OG         47.2000  -16.1600   10.7600 O.3       1 SER1        0.0000 
      7 N          41.2400  -16.0700    5.7400 N.am      2 ALA2        0.0000 
      8 O          44.1400  -16.1700    4.9800 O.2       2 ALA2        0.0000 
      9 O          41.0600  -12.9000    4.6700 O.2       2 ALA2        0.0000 
     10 N          41.5300  -15.0000    6.7500 N.am      2 ALA2        0.0000 
     11 N          43.2200  -16.1000    7.4100 N.am      2 ALA2        0.0000 
     12 N          43.4600  -17.1600    8.4500 N.am      2 ALA2        0.0000 
     13 N          43.7000  -18.2100    9.5000 N.am      2 ALA2        0.0000 
     14 O          40.1400  -12.8400    7.1000 O.2       2 ALA2        0.0000 
     15 O          41.3500  -11.8300    5.6800 O.2       2 ALA2        0.0000 
     16 O          41.5900  -12.8800    6.7200 O.2       2 ALA2        0.0000 
     17 N          41.8300  -13.9400    7.7600 N.am      2 ALA2        0.0000 
     18 N          42.0700  -14.9900    8.8000 N.am      2 ALA2        0.0000 
     19 N          42.5500  -17.0900   10.8900 N.am      2 ALA2        0.0000 
     20 O          42.5700  -10.8300    4.2600 O.2       2 ALA2        0.0000 
     21 O          42.8100  -11.8800    5.3000 O.2       2 ALA2        0.0000 
     22 N          43.5200  -15.0400    8.4200 N.am      2 ALA2        0.0000 
     23 N          43.7600  -16.0900    9.4600 N.am      2 ALA2        0.0000 
     24 N          44.0000  -17.1400   10.5100 N.am      2 ALA2        0.0000 
     25 O          40.6800  -12.8200    9.1500 O.2       2 ALA2        0.0000 
     26 O          41.6500  -10.7600    6.6900 O.2       2 ALA2        0.0000 
     27 N          42.1300  -12.8700    8.7700 N.am      2 ALA2        0.0000 
     28 N          42.3700  -13.9200    9.8100 N.am      2 ALA2        0.0000 
     29 N          42.6100  -14.9700   10.8500 N.am      2 ALA2        0.0000 
     30 OD1        42.4900  -19.2100   10.9200 O.co2     3 ASP3        0.0000 
     31 OD1        43.9400  -19.2600   10.5400 O.co2     3 ASP3        0.0000 
     32 OD1        45.1500  -18.2500    9.1200 O.co2     3 ASP3        0.0000 
     33 OD1        46.3600  -17.2500    7.7000 O.co2     3 ASP3        0.0000 
     34 OD1        44.2400  -18.1900   11.5500 O.co2     3 ASP3        0.0000 
     35 OD1        45.4500  -17.1900   10.1300 O.co2     3 ASP3        0.0000 
     36 OD1        46.9000  -17.2300    9.7500 O.co2     3 ASP3        0.0000 
     37 OD1        48.3500  -17.2800    9.3700 O.co2     3 ASP3        0.0000 
     38 NZ         45.0300  -12.9600    8.0100 N.4       4 LYS4        0.0000 
     39 NZ         45.2700  -14.0100    9.0500 N.4       4 LYS4        0.0000 
     40 CZ         42.1500  -16.1300    3.3100 C.ar      5 PHE5        0.0000 
     41 CZ         42.3900  -17.1900    4.3500 C.ar      5 PHE5        0.0000 
     42 CZ         39.8500  -13.9100    6.0900 C.ar      5 PHE5        0.0000 
     43 CZ         41.3000  -13.9500    5.7100 C.ar      5 PHE5        0.0000 
     44 CA         42.9300  -17.1700    6.4000 C.3       6 GLY6        0.0000 
     45 CA         44.3800  -17.2200    6.0200 C.3       6 GLY6        0.0000 
     46 CA         40.0800  -14.9600    7.1300 C.3       6 GLY6        0.0000 
     47 CA         44.9100  -17.2000    8.0800 C.3       6 GLY6        0.0000 
     48 CA         40.3800  -13.8900    8.1400 C.3       6 GLY6        0.0000 
     49 CA         41.8900  -11.8200    7.7300 C.3       6 GLY6        0.0000 
     50 CA         43.1000  -10.8100    6.3100 C.3       6 GLY6        0.0000 
     51 CA         43.3400  -11.8600    7.3500 C.3       6 GLY6        0.0000 
     52 CA         43.5800  -12.9200    8.3900 C.3       6 GLY6        0.0000 
     53 CA         43.8200  -13.9700    9.4300 C.3       6 GLY6        0.0000 
     54 CA         44.7900  -11.9100    6.9700 C.3       6 GLY6        0.0000 
     55 CA         44.3600  -13.9500   11.4900 C.3       6 GLY6        0.0000 
     56 CA         45.8100  -14.0000   11.1100 C.3       6 GLY6        0.0000 
     57 DU         42.4500  -15.0700    4.3200 H         7 CUB7        0.0000 
     58 DU         42.6900  -16.1200    5.3600 H         7 CUB7        0.0000 
     59 DU         43.9000  -15.1100    3.9400 H         7 CUB7        0.0000 
     60 DU         42.5100  -12.9500    4.2900 H         7 CUB7        0.0000 
     61 DU         42.9900  -15.0500    6.3700 H         7 CUB7        0.0000 
     62 DU         44.2000  -14.0400    4.9500 H         7 CUB7        0.0000 
     63 DU         44.6700  -16.1500    7.0300 H         7 CUB7        0.0000 
     64 DU         45.8900  -15.1400    5.6100 H         7 CUB7        0.0000 
     65 DU         46.1300  -16.2000    6.6500 H         7 CUB7        0.0000 
     66 DU         43.0400  -12.9300    6.3400 H         7 CUB7        0.0000 
     67 DU         43.2800  -13.9800    7.3800 H         7 CUB7        0.0000 
     68 DU         44.4900  -12.9800    5.9600 H         7 CUB7        0.0000 
     69 DU         45.2100  -16.1300    9.0900 H         7 CUB7        0.0000 
     70 DU         46.6600  -16.1800    8.7100 H         7 CUB7        0.0000 
     71 DU         44.0600  -15.0200   10.4800 H         7 CUB7        0.0000 
@<TRIPOS>BOND
@<TRIPOS>SUBSTRUCTURE
     1 SER1        1 GROUP   
     2 ALA2        7 GROUP   
     3 ASP3       30 GROUP   
     4 LYS4       38 GROUP   
     5 PHE5       40 GROUP   
     6 GLY6       44 GROUP   
     7 CUB7       57 GROUP   
@<TRIPOS>SET

