#    Name: 5oct_5_GNP_CAVITY_N1_ALL
#    Modification time : Fri May 22 19:21:06 2020

@<TRIPOS>MOLECULE
5oct_5_GNP_CAVITY_N1_ALL
   73     0     7     0     0
SMALL
NO_CHARGES


@<TRIPOS>ATOM
      1 OG         35.4500   98.7400   59.4600 O.3       1 SER1        0.0000 
      2 O          33.4000   95.9100   58.3200 O.2       2 ALA2        0.0000 
      3 N          31.6400   97.0200   58.7200 N.am      2 ALA2        0.0000 
      4 N          32.8700   97.2500   57.9000 N.am      2 ALA2        0.0000 
      5 N          34.1100   97.4800   57.0800 N.am      2 ALA2        0.0000 
      6 O          34.0700   96.5300   59.5000 O.2       2 ALA2        0.0000 
      7 O          35.3000   96.7600   58.6800 O.2       2 ALA2        0.0000 
      8 O          36.5400   97.0000   57.8700 O.2       2 ALA2        0.0000 
      9 O          37.2100   97.6200   59.0500 O.2       2 ALA2        0.0000 
     10 O          38.4400   97.8500   58.2400 O.2       2 ALA2        0.0000 
     11 O          38.5900   99.8200   59.0100 O.2       2 ALA2        0.0000 
     12 N          42.4000  101.5400   59.7500 N.am      2 ALA2        0.0000 
     13 N          41.3500  104.2300   58.9200 N.am      2 ALA2        0.0000 
     14 N          41.8300  101.9400   61.7500 N.am      2 ALA2        0.0000 
     15 O          46.7700  102.8600   58.4800 O.2       2 ALA2        0.0000 
     16 N          42.0200  104.8500   60.1000 N.am      2 ALA2        0.0000 
     17 N          43.2500  105.0800   59.2800 N.am      2 ALA2        0.0000 
     18 N          41.4900  106.2000   59.6900 N.am      2 ALA2        0.0000 
     19 N          41.4500  105.2500   62.1100 N.am      2 ALA2        0.0000 
     20 N          42.6900  105.4800   61.2900 N.am      2 ALA2        0.0000 
     21 N          43.4000  107.0500   60.0600 N.am      2 ALA2        0.0000 
     22 N          43.3500  106.1100   62.4800 N.am      2 ALA2        0.0000 
     23 OD1        36.0200   98.3400   57.4500 O.co2     3 ASP3        0.0000 
     24 OD1        37.9200   99.2000   57.8200 O.co2     3 ASP3        0.0000 
     25 OD1        39.1600   99.4300   57.0000 O.co2     3 ASP3        0.0000 
     26 OD1        39.3000  101.4000   57.7700 O.co2     3 ASP3        0.0000 
     27 OD1        43.0700  102.1700   60.9300 O.co2     3 ASP3        0.0000 
     28 OD1        43.2100  104.1400   61.7000 O.co2     3 ASP3        0.0000 
     29 NZ         48.1100  104.1100   60.8500 N.4       4 LYS4        0.0000 
     30 NZ         44.0700  107.6800   61.2400 N.4       4 LYS4        0.0000 
     31 CZ         36.6800   98.9700   58.6400 C.ar      5 PHE5        0.0000 
     32 CZ         38.0600  101.1700   58.5900 C.ar      5 PHE5        0.0000 
     33 CZ         39.9700  102.0200   58.9600 C.ar      5 PHE5        0.0000 
     34 CZ         39.4400  103.3700   58.5500 C.ar      5 PHE5        0.0000 
     35 CZ         40.6400  102.6500   60.1500 C.ar      5 PHE5        0.0000 
     36 CZ         41.3100  103.2800   61.3400 C.ar      5 PHE5        0.0000 
     37 CZ         45.0100  103.9700   58.8800 C.ar      5 PHE5        0.0000 
     38 CZ         46.2500  104.2000   58.0600 C.ar      5 PHE5        0.0000 
     39 CZ         44.4900  105.3100   58.4700 C.ar      5 PHE5        0.0000 
     40 CZ         45.6800  104.6000   60.0700 C.ar      5 PHE5        0.0000 
     41 CZ         46.9200  104.8300   59.2500 C.ar      5 PHE5        0.0000 
     42 CZ         43.9200  105.7100   60.4700 C.ar      5 PHE5        0.0000 
     43 CZ         46.3500  105.2300   61.2600 C.ar      5 PHE5        0.0000 
     44 CZ         47.5900  105.4600   60.4400 C.ar      5 PHE5        0.0000 
     45 CZ         44.5900  106.3400   61.6600 C.ar      5 PHE5        0.0000 
     46 CA         34.5900   95.1900   59.9200 C.3       6 GLY6        0.0000 
     47 CA         33.5400   97.8800   59.0900 C.3       6 GLY6        0.0000 
     48 CA         34.7800   98.1100   58.2700 C.3       6 GLY6        0.0000 
     49 CA         35.2600   95.8200   61.1000 C.3       6 GLY6        0.0000 
     50 CA         34.7400   97.1600   60.6900 C.3       6 GLY6        0.0000 
     51 CA         35.9700   97.3900   59.8700 C.3       6 GLY6        0.0000 
     52 CA         34.2100   98.5100   60.2700 C.3       6 GLY6        0.0000 
     53 CA         39.8200  100.0500   58.1900 C.3       6 GLY6        0.0000 
     54 CA         40.5400  101.6300   56.9600 C.3       6 GLY6        0.0000 
     55 CA         40.0100  102.9700   56.5400 C.3       6 GLY6        0.0000 
     56 CA         40.4900  100.6800   59.3800 C.3       6 GLY6        0.0000 
     57 CA         41.2000  102.2500   58.1400 C.3       6 GLY6        0.0000 
     58 CA         42.4400  102.4900   57.3300 C.3       6 GLY6        0.0000 
     59 CA         40.6800  103.6000   57.7300 C.3       6 GLY6        0.0000 
     60 CA         41.8700  102.8800   59.3300 C.3       6 GLY6        0.0000 
     61 CA         43.1100  103.1100   58.5100 C.3       6 GLY6        0.0000 
     62 CA         40.1100  104.0000   59.7300 C.3       6 GLY6        0.0000 
     63 CA         42.5800  104.4600   58.1000 C.3       6 GLY6        0.0000 
     64 CA         44.3000  102.4000   60.1100 C.3       6 GLY6        0.0000 
     65 CA         45.5400  102.6300   59.3000 C.3       6 GLY6        0.0000 
     66 CA         40.7800  104.6200   60.9200 C.3       6 GLY6        0.0000 
     67 CA         44.9700  103.0300   61.3000 C.3       6 GLY6        0.0000 
     68 CA         46.2100  103.2600   60.4800 C.3       6 GLY6        0.0000 
     69 CA         47.4400  103.4900   59.6700 C.3       6 GLY6        0.0000 
     70 CA         46.8800  103.8800   61.6700 C.3       6 GLY6        0.0000 
     71 DU         42.5400  103.5100   60.5200 H         7 CUB7        0.0000 
     72 DU         43.7800  103.7400   59.7000 H         7 CUB7        0.0000 
     73 DU         44.4500  104.3700   60.8900 H         7 CUB7        0.0000 
@<TRIPOS>BOND
@<TRIPOS>SUBSTRUCTURE
     1 SER1        1 GROUP   
     2 ALA2        2 GROUP   
     3 ASP3       23 GROUP   
     4 LYS4       29 GROUP   
     5 PHE5       31 GROUP   
     6 GLY6       46 GROUP   
     7 CUB7       71 GROUP   
@<TRIPOS>SET

