#    Name: 5oct_5_GNP
#    Modification time : Fri May 22 19:21:05 2020

@<TRIPOS>MOLECULE
5oct_5_GNP
   32    34     1     0     1
SMALL
NO_CHARGES


@<TRIPOS>ATOM
      1 PG         36.6660   98.5310   57.8000 P.3       1 GNP201      0.0000 
      2 O1G        36.1710   99.1330   56.4030 O.co2     1 GNP201      0.0000 
      3 O2G        36.8330   97.0740   57.5930 O.co2     1 GNP201      0.0000 
      4 O3G        35.5260   98.9220   58.8680 O.co2     1 GNP201      0.0000 
      5 N3B        38.0730   99.3330   58.3650 N.3       1 GNP201      0.0000 
      6 PB         39.4820   99.4030   57.3860 P.3       1 GNP201      0.0000 
      7 O1B        39.0480   99.8380   56.0520 O.co2     1 GNP201      0.0000 
      8 O2B        40.1760   98.0120   57.5460 O.co2     1 GNP201      0.0000 
      9 O3A        40.3820  100.4540   58.1090 O.3       1 GNP201      0.0000 
     10 PA         40.3360  102.0720   57.8000 P.3       1 GNP201      0.0000 
     11 O1A        41.2160  102.3670   56.6240 O.co2     1 GNP201      0.0000 
     12 O2A        38.9900  102.7160   57.8940 O.co2     1 GNP201      0.0000 
     13 O5'        41.3130  102.5570   58.9520 O.3       1 GNP201      0.0000 
     14 C5'        40.8610  102.4550   60.2970 C.3       1 GNP201      0.0000 
     15 C4'        41.5630  103.4970   61.1330 C.3       1 GNP201      0.0000 
     16 O4'        42.9520  103.1830   61.0870 O.3       1 GNP201      0.0000 
     17 C3'        41.4330  104.9120   60.5970 C.3       1 GNP201      0.0000 
     18 O3'        41.3550  105.8080   61.6830 O.3       1 GNP201      0.0000 
     19 C2'        42.7690  105.1760   59.9540 C.3       1 GNP201      0.0000 
     20 O2'        43.2030  106.5260   59.9720 O.3       1 GNP201      0.0000 
     21 C1'        43.7300  104.3240   60.7650 C.3       1 GNP201      0.0000 
     22 N9         44.9120  103.8190   60.0000 N.pl3     1 GNP201      0.0000 
     23 C8         44.8020  103.0230   58.9020 C.2       1 GNP201      0.0000 
     24 N7         45.9830  102.7030   58.4020 N.2       1 GNP201      0.0000 
     25 C5         46.8720  103.2680   59.2370 C.2       1 GNP201      0.0000 
     26 C6         48.3380  103.2960   59.2770 C.2       1 GNP201      0.0000 
     27 O6         48.9610  102.6640   58.3800 O.2       1 GNP201      0.0000 
     28 N1         48.9090  104.0200   60.2420 N.am      1 GNP201      0.0000 
     29 C2         48.1910  104.6650   61.2000 C.2       1 GNP201      0.0000 
     30 N2         48.8040  105.3410   62.1810 N.pl3     1 GNP201      0.0000 
     31 N3         46.8670  104.6720   61.2380 N.2       1 GNP201      0.0000 
     32 C4         46.1800  104.0000   60.2850 C.2       1 GNP201      0.0000 
@<TRIPOS>BOND
     1    1    2 ar   
     2    1    3 ar   
     3    1    4 ar   
     4    1    5 1    
     5    5    6 1    
     6    6    7 ar   
     7    6    8 ar   
     8    6    9 1    
     9    9   10 1    
    10   10   11 ar   
    11   10   12 ar   
    12   10   13 1    
    13   13   14 1    
    14   14   15 1    
    15   15   16 1    
    16   15   17 1    
    17   16   21 1    
    18   17   18 1    
    19   17   19 1    
    20   19   20 1    
    21   19   21 1    
    22   21   22 1    
    23   22   23 1    
    24   22   32 1    
    25   23   24 2    
    26   24   25 1    
    27   25   26 1    
    28   25   32 2    
    29   26   27 2    
    30   26   28 am   
    31   28   29 1    
    32   29   30 1    
    33   29   31 2    
    34   31   32 1    
@<TRIPOS>SUBSTRUCTURE
     1 GNP201      1 GROUP   
@<TRIPOS>SET
ATOM$ORANGE STATIC     ATOMS   COLORGROUP SYSTEM 
20 14 14 15 15 17 17 19 19 21 21 23 23 25 25 26 26 29 \
29 32 32 

