#    Name: 5oct_6_GNP
#    Modification time : Fri May 22 19:21:08 2020

@<TRIPOS>MOLECULE
5oct_6_GNP
   32    34     1     0     1
SMALL
NO_CHARGES


@<TRIPOS>ATOM
      1 PG         61.5850  131.1630   55.6650 P.3       1 GNP201      0.0000 
      2 O1G        61.7280  131.1630   54.0670 O.co2     1 GNP201      0.0000 
      3 O2G        60.2040  131.6410   55.9810 O.co2     1 GNP201      0.0000 
      4 O3G        62.8140  131.9140   56.3260 O.co2     1 GNP201      0.0000 
      5 N3B        61.8650  129.5850   56.1840 N.3       1 GNP201      0.0000 
      6 PB         60.9820  128.2740   55.5820 P.3       1 GNP201      0.0000 
      7 O1B        60.8740  128.3440   54.1020 O.co2     1 GNP201      0.0000 
      8 O2B        59.5160  128.1460   56.2470 O.co2     1 GNP201      0.0000 
      9 O3A        61.8730  127.0310   56.0250 O.3       1 GNP201      0.0000 
     10 PA         62.8500  126.1770   55.0850 P.3       1 GNP201      0.0000 
     11 O1A        62.0030  125.5610   54.0490 O.co2     1 GNP201      0.0000 
     12 O2A        63.8950  127.2130   54.7770 O.co2     1 GNP201      0.0000 
     13 O5'        63.3210  125.0850   56.1560 O.3       1 GNP201      0.0000 
     14 C5'        63.9390  125.6030   57.3600 C.3       1 GNP201      0.0000 
     15 C4'        64.8180  124.5480   57.9450 C.3       1 GNP201      0.0000 
     16 O4'        64.0500  123.4580   58.4250 O.3       1 GNP201      0.0000 
     17 C3'        65.7910  123.9490   56.9290 C.3       1 GNP201      0.0000 
     18 O3'        66.9650  123.6220   57.6770 O.3       1 GNP201      0.0000 
     19 C2'        65.2020  122.6380   56.5380 C.3       1 GNP201      0.0000 
     20 O2'        66.1310  121.6040   56.2210 O.3       1 GNP201      0.0000 
     21 C1'        64.4460  122.2250   57.8020 C.3       1 GNP201      0.0000 
     22 N9         63.2040  121.4990   57.4500 N.pl3     1 GNP201      0.0000 
     23 C8         62.2040  121.9310   56.6180 C.2       1 GNP201      0.0000 
     24 N7         61.2230  121.0000   56.5150 N.2       1 GNP201      0.0000 
     25 C5         61.6170  119.9470   57.2500 C.2       1 GNP201      0.0000 
     26 C6         61.0720  118.6350   57.6070 C.2       1 GNP201      0.0000 
     27 O6         59.9690  118.2260   57.2210 O.2       1 GNP201      0.0000 
     28 N1         61.8040  117.8680   58.4260 N.am      1 GNP201      0.0000 
     29 C2         63.0010  118.2680   58.8980 C.2       1 GNP201      0.0000 
     30 N2         63.6600  117.4250   59.6900 N.pl3     1 GNP201      0.0000 
     31 N3         63.5720  119.4360   58.6340 N.2       1 GNP201      0.0000 
     32 C4         62.9310  120.2730   57.8380 C.2       1 GNP201      0.0000 
@<TRIPOS>BOND
     1    1    2 ar   
     2    1    3 ar   
     3    1    4 ar   
     4    1    5 1    
     5    5    6 1    
     6    6    7 ar   
     7    6    8 ar   
     8    6    9 1    
     9    9   10 1    
    10   10   11 ar   
    11   10   12 ar   
    12   10   13 1    
    13   13   14 1    
    14   14   15 1    
    15   15   16 1    
    16   15   17 1    
    17   16   21 1    
    18   17   18 1    
    19   17   19 1    
    20   19   20 1    
    21   19   21 1    
    22   21   22 1    
    23   22   23 1    
    24   22   32 1    
    25   23   24 2    
    26   24   25 1    
    27   25   26 1    
    28   25   32 2    
    29   26   27 2    
    30   26   28 am   
    31   28   29 1    
    32   29   30 1    
    33   29   31 2    
    34   31   32 1    
@<TRIPOS>SUBSTRUCTURE
     1 GNP201      1 GROUP   
@<TRIPOS>SET
ATOM$ORANGE STATIC     ATOMS   COLORGROUP SYSTEM 
20 14 14 15 15 17 17 19 19 21 21 23 23 25 25 26 26 29 \
29 32 32 

