#    Name: 5oct_3_GNP
#    Modification time : Fri May 22 19:21:02 2020

@<TRIPOS>MOLECULE
5oct_3_GNP
   32    34     1     0     1
SMALL
NO_CHARGES


@<TRIPOS>ATOM
      1 PG         76.4090   93.7430   48.5830 P.3       1 GNP201      0.0000 
      2 O1G        75.8110   93.4370   47.1570 O.co2     1 GNP201      0.0000 
      3 O2G        77.4240   94.8260   48.3150 O.co2     1 GNP201      0.0000 
      4 O3G        76.8980   92.2830   49.0670 O.co2     1 GNP201      0.0000 
      5 N3B        75.1900   94.1320   49.7200 N.3       1 GNP201      0.0000 
      6 PB         74.2340   95.5260   49.4880 P.3       1 GNP201      0.0000 
      7 O1B        73.7850   95.5230   48.0610 O.co2     1 GNP201      0.0000 
      8 O2B        74.9250   96.8990   49.7930 O.co2     1 GNP201      0.0000 
      9 O3A        73.0160   95.4820   50.5240 O.3       1 GNP201      0.0000 
     10 PA         71.5800   94.8590   50.1250 P.3       1 GNP201      0.0000 
     11 O1A        70.8890   95.8730   49.2550 O.co2     1 GNP201      0.0000 
     12 O2A        71.8410   93.4730   49.6620 O.co2     1 GNP201      0.0000 
     13 O5'        70.9640   94.9400   51.5860 O.3       1 GNP201      0.0000 
     14 C5'        71.5350   94.2390   52.6970 C.3       1 GNP201      0.0000 
     15 C4'        70.4730   94.0180   53.7690 C.3       1 GNP201      0.0000 
     16 O4'        70.1300   95.2810   54.3040 O.3       1 GNP201      0.0000 
     17 C3'        69.2140   93.4280   53.1520 C.3       1 GNP201      0.0000 
     18 O3'        68.6400   92.3990   53.9140 O.3       1 GNP201      0.0000 
     19 C2'        68.2330   94.5790   53.0670 C.3       1 GNP201      0.0000 
     20 O2'        66.8450   94.2860   53.2910 O.3       1 GNP201      0.0000 
     21 C1'        68.7100   95.4620   54.1480 C.3       1 GNP201      0.0000 
     22 N9         68.5270   96.8730   53.7990 N.pl3     1 GNP201      0.0000 
     23 C8         69.0600   97.5380   52.7380 C.2       1 GNP201      0.0000 
     24 N7         68.6860   98.8540   52.7780 N.2       1 GNP201      0.0000 
     25 C5         67.9620   99.0040   53.9120 C.2       1 GNP201      0.0000 
     26 C6         67.2640  100.0890   54.5320 C.2       1 GNP201      0.0000 
     27 O6         67.3280  101.2430   54.0480 O.2       1 GNP201      0.0000 
     28 N1         66.5950   99.8460   55.6580 N.am      1 GNP201      0.0000 
     29 C2         66.5580   98.6150   56.2280 C.2       1 GNP201      0.0000 
     30 N2         65.8480   98.4490   57.3380 N.pl3     1 GNP201      0.0000 
     31 N3         67.1360   97.5300   55.7000 N.2       1 GNP201      0.0000 
     32 C4         67.8350   97.7030   54.5570 C.2       1 GNP201      0.0000 
@<TRIPOS>BOND
     1    1    2 ar   
     2    1    3 ar   
     3    1    4 ar   
     4    1    5 1    
     5    5    6 1    
     6    6    7 ar   
     7    6    8 ar   
     8    6    9 1    
     9    9   10 1    
    10   10   11 ar   
    11   10   12 ar   
    12   10   13 1    
    13   13   14 1    
    14   14   15 1    
    15   15   16 1    
    16   15   17 1    
    17   16   21 1    
    18   17   18 1    
    19   17   19 1    
    20   19   20 1    
    21   19   21 1    
    22   21   22 1    
    23   22   23 1    
    24   22   32 1    
    25   23   24 2    
    26   24   25 1    
    27   25   26 1    
    28   25   32 2    
    29   26   27 2    
    30   26   28 am   
    31   28   29 1    
    32   29   30 1    
    33   29   31 2    
    34   31   32 1    
@<TRIPOS>SUBSTRUCTURE
     1 GNP201      1 GROUP   
@<TRIPOS>SET
ATOM$ORANGE STATIC     ATOMS   COLORGROUP SYSTEM 
20 14 14 15 15 17 17 19 19 21 21 23 23 25 25 26 26 29 \
29 32 32 

