#    Name: 6nf6_1_Y01
#    Modification time : Fri May 22 19:27:18 2020

@<TRIPOS>MOLECULE
6nf6_1_Y01
   35    38     1     0     0
SMALL
NO_CHARGES


@<TRIPOS>ATOM
      1 CAA       106.6240   97.1060  103.9160 C.3       1 Y01601      0.0000 
      2 CBA       105.6870   95.9450  104.2280 C.3       1 Y01601      0.0000 
      3 CAB       105.3950   95.9490  105.7250 C.3       1 Y01601      0.0000 
      4 CAN       104.3820   96.1170  103.4520 C.3       1 Y01601      0.0000 
      5 CAJ       104.6460   95.9760  101.9520 C.3       1 Y01601      0.0000 
      6 CAO       103.5530   95.1160  101.3190 C.3       1 Y01601      0.0000 
      7 CBB       104.0200   94.5670   99.9630 C.3       1 Y01601      0.0000 
      8 CAC       105.2220   93.6640  100.2120 C.3       1 Y01601      0.0000 
      9 CBE       102.9480   93.7380   99.2180 C.3       1 Y01601      0.0000 
     10 CAP       101.5170   94.2150   99.5820 C.3       1 Y01601      0.0000 
     11 CAQ       100.8010   94.5100   98.2450 C.3       1 Y01601      0.0000 
     12 CBG       101.5260   93.5380   97.3240 C.3       1 Y01601      0.0000 
     13 CBI       103.0100   93.8210   97.6840 C.3       1 Y01601      0.0000 
     14 CAE       103.4470   95.2320   97.2440 C.3       1 Y01601      0.0000 
     15 CAU       103.8150   92.7490   96.9610 C.3       1 Y01601      0.0000 
     16 CAS       103.5310   92.6860   95.4420 C.3       1 Y01601      0.0000 
     17 CBF       102.0510   92.7160   95.0360 C.3       1 Y01601      0.0000 
     18 CBD       101.2900   93.7720   95.8460 C.3       1 Y01601      0.0000 
     19 CAK        99.7920   93.6160   95.5690 C.3       1 Y01601      0.0000 
     20 CAI        99.5270   93.5950   94.0960 C.2       1 Y01601      0.0000 
     21 CAZ       100.4340   93.3220   93.2160 C.2       1 Y01601      0.0000 
     22 CAV       100.1100   93.6720   91.7800 C.3       1 Y01601      0.0000 
     23 CBH       101.8630   93.0780   93.5730 C.3       1 Y01601      0.0000 
     24 CAD       102.6670   94.3600   93.2930 C.3       1 Y01601      0.0000 
     25 CAT       102.3500   91.9700   92.6480 C.3       1 Y01601      0.0000 
     26 CAR       102.1160   92.3430   91.1800 C.3       1 Y01601      0.0000 
     27 CBC       100.6510   92.6080   90.8300 C.3       1 Y01601      0.0000 
     28 OAW       100.6330   93.1560   89.4900 O.3       1 Y01601      0.0000 
     29 CAY        99.6320   92.8040   88.6740 C.2       1 Y01601      0.0000 
     30 OAG        98.4860   92.9080   89.0370 O.2       1 Y01601      0.0000 
     31 CAM        99.9340   92.2830   87.2960 C.3       1 Y01601      0.0000 
     32 CAL        98.6340   91.7820   86.6650 C.3       1 Y01601      0.0000 
     33 CAX        98.0770   92.8070   85.7130 C.2       1 Y01601      0.0000 
     34 OAH        96.8830   92.5980   85.1370 O.co2     1 Y01601      0.0000 
     35 OAF        98.7000   93.8110   85.4670 O.co2     1 Y01601      0.0000 
@<TRIPOS>BOND
     1    1    2 1    
     2    2    3 1    
     3    2    4 1    
     4    4    5 1    
     5    5    6 1    
     6    6    7 1    
     7    7    8 1    
     8    7    9 1    
     9    9   10 1    
    10    9   13 1    
    11   10   11 1    
    12   11   12 1    
    13   12   13 1    
    14   12   18 1    
    15   13   14 1    
    16   13   15 1    
    17   15   16 1    
    18   16   17 1    
    19   17   18 1    
    20   17   23 1    
    21   18   19 1    
    22   19   20 1    
    23   20   21 2    
    24   21   22 1    
    25   21   23 1    
    26   22   27 1    
    27   23   24 1    
    28   23   25 1    
    29   25   26 1    
    30   26   27 1    
    31   27   28 1    
    32   28   29 1    
    33   29   30 2    
    34   29   31 1    
    35   31   32 1    
    36   32   33 1    
    37   33   34 ar   
    38   33   35 ar   
@<TRIPOS>SUBSTRUCTURE
     1 Y01601      1 GROUP   
@<TRIPOS>SET

