#    Name: 6nf6_2_Y01
#    Modification time : Fri May 22 19:27:37 2020

@<TRIPOS>MOLECULE
6nf6_2_Y01
   35    38     1     0     0
SMALL
NO_CHARGES


@<TRIPOS>ATOM
      1 CAA        99.2890  108.6180  103.7670 C.3       1 Y01601      0.0000 
      2 CBA       100.0890  109.8730  104.0950 C.3       1 Y01601      0.0000 
      3 CAB       100.3070  109.9280  105.6030 C.3       1 Y01601      0.0000 
      4 CAN       101.4400  109.8180  103.3840 C.3       1 Y01601      0.0000 
      5 CAJ       101.2380  109.9030  101.8710 C.3       1 Y01601      0.0000 
      6 CAO       102.2690  110.8560  101.2680 C.3       1 Y01601      0.0000 
      7 CBB       101.8150  111.3280   99.8790 C.3       1 Y01601      0.0000 
      8 CAC       100.5200  112.1100  100.0500 C.3       1 Y01601      0.0000 
      9 CBE       102.8350  112.2460   99.1650 C.3       1 Y01601      0.0000 
     10 CAP       104.2870  111.9230   99.6060 C.3       1 Y01601      0.0000 
     11 CAQ       105.0920  111.6750   98.3110 C.3       1 Y01601      0.0000 
     12 CBG       104.3200  112.5510   97.3340 C.3       1 Y01601      0.0000 
     13 CBI       102.8560  112.1270   97.6310 C.3       1 Y01601      0.0000 
     14 CAE       102.5830  110.6720   97.2070 C.3       1 Y01601      0.0000 
     15 CAU       101.9840  113.0980   96.8470 C.3       1 Y01601      0.0000 
     16 CAS       102.3340  113.1600   95.3410 C.3       1 Y01601      0.0000 
     17 CBF       103.8280  113.2710   95.0050 C.3       1 Y01601      0.0000 
     18 CBD       104.6500  112.3130   95.8750 C.3       1 Y01601      0.0000 
     19 CAK       106.1370  112.6140   95.6640 C.3       1 Y01601      0.0000 
     20 CAI       106.4690  112.6320   94.2050 C.2       1 Y01601      0.0000 
     21 CAZ       105.5830  112.7960   93.2770 C.2       1 Y01601      0.0000 
     22 CAV       106.0100  112.4520   91.8670 C.3       1 Y01601      0.0000 
     23 CBH       104.1220  112.9010   93.5610 C.3       1 Y01601      0.0000 
     24 CAD       103.4640  111.5400   93.2760 C.3       1 Y01601      0.0000 
     25 CAT       103.5720  113.9360   92.5890 C.3       1 Y01601      0.0000 
     26 CAR       103.9130  113.5610   91.1420 C.3       1 Y01601      0.0000 
     27 CBC       105.4120  113.4380   90.8670 C.3       1 Y01601      0.0000 
     28 OAW       105.5490  112.8680   89.5430 O.3       1 Y01601      0.0000 
     29 CAY       106.5490  113.3030   88.7660 C.2       1 Y01601      0.0000 
     30 OAG       107.6810  113.3220   89.1840 O.2       1 Y01601      0.0000 
     31 CAM       106.2640  113.7640   87.3630 C.3       1 Y01601      0.0000 
     32 CAL       107.5360  114.3800   86.7810 C.3       1 Y01601      0.0000 
     33 CAX       108.2390  113.3980   85.8810 C.2       1 Y01601      0.0000 
     34 OAH       109.4320  113.7150   85.3560 O.co2     1 Y01601      0.0000 
     35 OAF       107.7310  112.3320   85.6310 O.co2     1 Y01601      0.0000 
@<TRIPOS>BOND
     1    1    2 1    
     2    2    3 1    
     3    2    4 1    
     4    4    5 1    
     5    5    6 1    
     6    6    7 1    
     7    7    8 1    
     8    7    9 1    
     9    9   10 1    
    10    9   13 1    
    11   10   11 1    
    12   11   12 1    
    13   12   13 1    
    14   12   18 1    
    15   13   14 1    
    16   13   15 1    
    17   15   16 1    
    18   16   17 1    
    19   17   18 1    
    20   17   23 1    
    21   18   19 1    
    22   19   20 1    
    23   20   21 2    
    24   21   22 1    
    25   21   23 1    
    26   22   27 1    
    27   23   24 1    
    28   23   25 1    
    29   25   26 1    
    30   26   27 1    
    31   27   28 1    
    32   28   29 1    
    33   29   30 2    
    34   29   31 1    
    35   31   32 1    
    36   32   33 1    
    37   33   34 ar   
    38   33   35 ar   
@<TRIPOS>SUBSTRUCTURE
     1 Y01601      1 GROUP   
@<TRIPOS>SET

