#    Name: 5mxw_2_ZEA_CAVITY_N1_8
#    Modification time : Fri May 22 19:12:23 2020

@<TRIPOS>MOLECULE
5mxw_2_ZEA_CAVITY_N1_8
   58     0     6     0     0
SMALL
NO_CHARGES


@<TRIPOS>ATOM
      1 N         103.7600   99.7900  -13.1600 N.am      1 ALA2        0.0000 
      2 N         102.9400  102.9300  -14.0100 N.am      1 ALA2        0.0000 
      3 N         103.6200  101.9100  -13.1500 N.am      1 ALA2        0.0000 
      4 N         104.3100  100.8900  -12.3000 N.am      1 ALA2        0.0000 
      5 N         105.3900  103.0900  -13.1600 N.am      1 ALA2        0.0000 
      6 N         104.1700  103.0100  -12.2800 N.am      1 ALA2        0.0000 
      7 O         108.5000  102.2300  -14.0500 O.2       1 ALA2        0.0000 
      8 N         107.2900  102.1500  -13.1700 N.am      1 ALA2        0.0000 
      9 N         106.0700  102.0700  -12.3000 N.am      1 ALA2        0.0000 
     10 N         105.9300  104.1800  -12.2900 N.am      1 ALA2        0.0000 
     11 N         109.7400  102.3000  -12.3200 N.am      1 ALA2        0.0000 
     12 N         105.2600  105.1900  -10.5500 N.am      1 ALA2        0.0000 
     13 N         105.9600  104.1600   -7.0900 N.am      1 ALA2        0.0000 
     14 OD1       103.3800   96.5600   -8.8500 O.co2     2 ASP3        0.0000 
     15 OD1       103.2400   98.6800   -8.8400 O.co2     2 ASP3        0.0000 
     16 OD1       105.0100   99.8500   -8.8400 O.co2     2 ASP3        0.0000 
     17 NZ        102.5400   99.7100  -12.2900 N.4       3 LYS4        0.0000 
     18 NZ        103.2300   98.6900  -11.4300 N.4       3 LYS4        0.0000 
     19 NZ        101.8700  100.7200  -10.5500 N.4       3 LYS4        0.0000 
     20 NZ        102.5600   99.7000   -9.6900 N.4       3 LYS4        0.0000 
     21 NZ        102.4200  101.8100   -9.6800 N.4       3 LYS4        0.0000 
     22 NZ        103.1000  100.7900   -8.8200 N.4       3 LYS4        0.0000 
     23 NZ        104.1800  102.9900   -9.6900 N.4       3 LYS4        0.0000 
     24 NZ        104.8700  101.9700   -8.8300 N.4       3 LYS4        0.0000 
     25 NZ        105.4200  103.0600   -7.9600 N.4       3 LYS4        0.0000 
     26 CZ        104.4400   98.7700  -12.3100 C.ar      4 PHE5        0.0000 
     27 CZ        103.9100   97.6600  -10.5800 C.ar      4 PHE5        0.0000 
     28 CZ        104.9900   99.8700  -11.4400 C.ar      4 PHE5        0.0000 
     29 CZ        105.6800   98.8400  -10.5800 C.ar      4 PHE5        0.0000 
     30 CZ        104.4600   98.7600   -9.7100 C.ar      4 PHE5        0.0000 
     31 CA        107.9700  101.1300  -12.3200 C.3       5 GLY6        0.0000 
     32 CA        108.5200  102.2200  -11.4500 C.3       5 GLY6        0.0000 
     33 CA        104.0500  105.1100   -9.6800 C.3       5 GLY6        0.0000 
     34 CA        108.3800  104.3400  -11.4400 C.3       5 GLY6        0.0000 
     35 CA        104.7300  104.0900   -8.8200 C.3       5 GLY6        0.0000 
     36 CA        109.0700  103.3100  -10.5800 C.3       5 GLY6        0.0000 
     37 CA        107.8500  103.2300   -9.7100 C.3       5 GLY6        0.0000 
     38 CA        108.5300  102.2100   -8.8500 C.3       5 GLY6        0.0000 
     39 CA        107.3200  102.1200   -7.9800 C.3       5 GLY6        0.0000 
     40 CA        105.2800  105.1800   -7.9500 C.3       5 GLY6        0.0000 
     41 CA        108.4000  104.3200   -8.8400 C.3       5 GLY6        0.0000 
     42 CA        107.1800  104.2400   -7.9700 C.3       5 GLY6        0.0000 
     43 DU        103.0900  100.8000  -11.4200 H         6 CUB7        0.0000 
     44 DU        103.7700   99.7800  -10.5700 H         6 CUB7        0.0000 
     45 DU        102.9500  102.9200  -11.4100 H         6 CUB7        0.0000 
     46 DU        104.8500  101.9800  -11.4300 H         6 CUB7        0.0000 
     47 DU        103.6400  101.9000  -10.5500 H         6 CUB7        0.0000 
     48 DU        106.7600  101.0400  -11.4400 H         6 CUB7        0.0000 
     49 DU        104.3200  100.8800   -9.7000 H         6 CUB7        0.0000 
     50 DU        104.7200  104.1000  -11.4200 H         6 CUB7        0.0000 
     51 DU        103.5000  104.0200  -10.5400 H         6 CUB7        0.0000 
     52 DU        107.8300  103.2400  -12.3000 H         6 CUB7        0.0000 
     53 DU        106.6200  103.1600  -11.4300 H         6 CUB7        0.0000 
     54 DU        107.3000  102.1400  -10.5700 H         6 CUB7        0.0000 
     55 DU        106.0900  102.0500   -9.7000 H         6 CUB7        0.0000 
     56 DU        107.1700  104.2500  -10.5600 H         6 CUB7        0.0000 
     57 DU        106.6300  103.1500   -8.8300 H         6 CUB7        0.0000 
     58 DU        106.5000  105.2600   -8.8200 H         6 CUB7        0.0000 
@<TRIPOS>BOND
@<TRIPOS>SUBSTRUCTURE
     1 ALA2        1 GROUP   
     2 ASP3       14 GROUP   
     3 LYS4       17 GROUP   
     4 PHE5       26 GROUP   
     5 GLY6       31 GROUP   
     6 CUB7       43 GROUP   
@<TRIPOS>SET

