#    Name: 5mxw_2_ZEA_CAVITY_N1_4
#    Modification time : Fri May 22 19:12:23 2020

@<TRIPOS>MOLECULE
5mxw_2_ZEA_CAVITY_N1_4
   14     0     4     0     0
SMALL
NO_CHARGES


@<TRIPOS>ATOM
      1 OD1       103.3800   96.5600   -8.8500 O.co2     1 ASP3        0.0000 
      2 OD1       103.2400   98.6800   -8.8400 O.co2     1 ASP3        0.0000 
      3 OD1       105.0100   99.8500   -8.8400 O.co2     1 ASP3        0.0000 
      4 NZ        103.2300   98.6900  -11.4300 N.4       2 LYS4        0.0000 
      5 NZ        102.5600   99.7000   -9.6900 N.4       2 LYS4        0.0000 
      6 NZ        103.1000  100.7900   -8.8200 N.4       2 LYS4        0.0000 
      7 CZ        104.4400   98.7700  -12.3100 C.ar      3 PHE5        0.0000 
      8 CZ        103.9100   97.6600  -10.5800 C.ar      3 PHE5        0.0000 
      9 CZ        104.9900   99.8700  -11.4400 C.ar      3 PHE5        0.0000 
     10 CZ        105.6800   98.8400  -10.5800 C.ar      3 PHE5        0.0000 
     11 CZ        104.4600   98.7600   -9.7100 C.ar      3 PHE5        0.0000 
     12 DU        103.0900  100.8000  -11.4200 H         4 CUB7        0.0000 
     13 DU        103.7700   99.7800  -10.5700 H         4 CUB7        0.0000 
     14 DU        104.3200  100.8800   -9.7000 H         4 CUB7        0.0000 
@<TRIPOS>BOND
@<TRIPOS>SUBSTRUCTURE
     1 ASP3        1 GROUP   
     2 LYS4        4 GROUP   
     3 PHE5        7 GROUP   
     4 CUB7       12 GROUP   
@<TRIPOS>SET

