#    Name: 5mxw_2_ZEA_CAVITY_N1_6
#    Modification time : Fri May 22 19:12:23 2020

@<TRIPOS>MOLECULE
5mxw_2_ZEA_CAVITY_N1_6
   34     0     6     0     0
SMALL
NO_CHARGES


@<TRIPOS>ATOM
      1 N         103.7600   99.7900  -13.1600 N.am      1 ALA2        0.0000 
      2 N         103.6200  101.9100  -13.1500 N.am      1 ALA2        0.0000 
      3 N         104.3100  100.8900  -12.3000 N.am      1 ALA2        0.0000 
      4 N         106.0700  102.0700  -12.3000 N.am      1 ALA2        0.0000 
      5 OD1       103.3800   96.5600   -8.8500 O.co2     2 ASP3        0.0000 
      6 OD1       103.2400   98.6800   -8.8400 O.co2     2 ASP3        0.0000 
      7 OD1       105.0100   99.8500   -8.8400 O.co2     2 ASP3        0.0000 
      8 NZ        102.5400   99.7100  -12.2900 N.4       3 LYS4        0.0000 
      9 NZ        103.2300   98.6900  -11.4300 N.4       3 LYS4        0.0000 
     10 NZ        101.8700  100.7200  -10.5500 N.4       3 LYS4        0.0000 
     11 NZ        102.5600   99.7000   -9.6900 N.4       3 LYS4        0.0000 
     12 NZ        102.4200  101.8100   -9.6800 N.4       3 LYS4        0.0000 
     13 NZ        103.1000  100.7900   -8.8200 N.4       3 LYS4        0.0000 
     14 NZ        104.1800  102.9900   -9.6900 N.4       3 LYS4        0.0000 
     15 NZ        104.8700  101.9700   -8.8300 N.4       3 LYS4        0.0000 
     16 NZ        105.4200  103.0600   -7.9600 N.4       3 LYS4        0.0000 
     17 CZ        104.4400   98.7700  -12.3100 C.ar      4 PHE5        0.0000 
     18 CZ        103.9100   97.6600  -10.5800 C.ar      4 PHE5        0.0000 
     19 CZ        104.9900   99.8700  -11.4400 C.ar      4 PHE5        0.0000 
     20 CZ        105.6800   98.8400  -10.5800 C.ar      4 PHE5        0.0000 
     21 CZ        104.4600   98.7600   -9.7100 C.ar      4 PHE5        0.0000 
     22 CA        107.9700  101.1300  -12.3200 C.3       5 GLY6        0.0000 
     23 CA        108.5300  102.2100   -8.8500 C.3       5 GLY6        0.0000 
     24 CA        107.3200  102.1200   -7.9800 C.3       5 GLY6        0.0000 
     25 DU        103.0900  100.8000  -11.4200 H         6 CUB7        0.0000 
     26 DU        103.7700   99.7800  -10.5700 H         6 CUB7        0.0000 
     27 DU        102.9500  102.9200  -11.4100 H         6 CUB7        0.0000 
     28 DU        104.8500  101.9800  -11.4300 H         6 CUB7        0.0000 
     29 DU        103.6400  101.9000  -10.5500 H         6 CUB7        0.0000 
     30 DU        106.7600  101.0400  -11.4400 H         6 CUB7        0.0000 
     31 DU        104.3200  100.8800   -9.7000 H         6 CUB7        0.0000 
     32 DU        107.3000  102.1400  -10.5700 H         6 CUB7        0.0000 
     33 DU        106.0900  102.0500   -9.7000 H         6 CUB7        0.0000 
     34 DU        106.6300  103.1500   -8.8300 H         6 CUB7        0.0000 
@<TRIPOS>BOND
@<TRIPOS>SUBSTRUCTURE
     1 ALA2        1 GROUP   
     2 ASP3        5 GROUP   
     3 LYS4        8 GROUP   
     4 PHE5       17 GROUP   
     5 GLY6       22 GROUP   
     6 CUB7       25 GROUP   
@<TRIPOS>SET

