#    Name: 5mxw_2_ZEA
#    Modification time : Fri May 22 19:12:22 2020

@<TRIPOS>MOLECULE
5mxw_2_ZEA
   16    17     1     0     0
SMALL
NO_CHARGES


@<TRIPOS>ATOM
      1 O16       106.4440   93.3890   -4.3810 O.3       1 ZEA219      0.0000 
      2 C14       107.5080   94.0880   -3.6710 C.3       1 ZEA219      0.0000 
      3 C13       108.5660   94.3100   -4.7270 C.2       1 ZEA219      0.0000 
      4 C15       110.0380   94.5200   -4.5110 C.3       1 ZEA219      0.0000 
      5 C12       108.0050   94.2570   -5.9080 C.2       1 ZEA219      0.0000 
      6 C11       108.6500   94.4820   -7.2200 C.3       1 ZEA219      0.0000 
      7 N10       107.6740   95.3900   -7.8380 N.pl3     1 ZEA219      0.0000 
      8 C6        106.4070   95.0170   -8.0730 C.ar      1 ZEA219      0.0000 
      9 C5        105.4390   96.0430   -8.5530 C.ar      1 ZEA219      0.0000 
     10 N9        105.4590   97.3840   -8.8220 N.2       1 ZEA219      0.0000 
     11 C4        104.1450   95.6330   -8.7850 C.ar      1 ZEA219      0.0000 
     12 N7        103.3220   96.6210   -9.2010 N.pl3     1 ZEA219      0.0000 
     13 C8        104.1690   97.7140   -9.1930 C.2       1 ZEA219      0.0000 
     14 N3        103.7830   94.3000   -8.5400 N.ar      1 ZEA219      0.0000 
     15 C2        104.6870   93.4000   -8.1250 C.ar      1 ZEA219      0.0000 
     16 N1        106.0030   93.7020   -7.9160 N.ar      1 ZEA219      0.0000 
@<TRIPOS>BOND
     1    1    2 1    
     2    2    3 1    
     3    3    4 1    
     4    3    5 2    
     5    5    6 1    
     6    6    7 1    
     7    7    8 1    
     8    8    9 ar   
     9    8   16 ar   
    10    9   10 1    
    11    9   11 ar   
    12   10   13 2    
    13   11   12 1    
    14   11   14 ar   
    15   12   13 1    
    16   14   15 ar   
    17   15   16 ar   
@<TRIPOS>SUBSTRUCTURE
     1 ZEA219      1 GROUP   
@<TRIPOS>SET

