#    Name: 6iw7_8_LEU_LEU_BEZ
#    Modification time : Fri May 22 19:31:06 2020

@<TRIPOS>MOLECULE
6iw7_8_LEU_LEU_BEZ
   25    25     3     0     0
SMALL
NO_CHARGES


@<TRIPOS>ATOM
      1 N         219.3800  -17.6770  364.0290 N.am      1 LEU2        0.0000 
      2 CA        219.7930  -17.3980  365.3890 C.3       1 LEU2        0.0000 
      3 C         219.8350  -18.6970  366.1190 C.2       1 LEU2        0.0000 
      4 O         218.9220  -19.4960  365.9980 O.2       1 LEU2        0.0000 
      5 CB        218.8190  -16.4190  366.0380 C.3       1 LEU2        0.0000 
      6 CG        218.8880  -16.4400  367.5560 C.3       1 LEU2        0.0000 
      7 CD1       220.2960  -16.1150  368.0350 C.3       1 LEU2        0.0000 
      8 CD2       217.8650  -15.4820  368.1560 C.3       1 LEU2        0.0000 
      9 N         220.9200  -18.9280  366.8470 N.am      2 LEU3        0.0000 
     10 CA        221.0400  -20.1320  367.6470 C.3       2 LEU3        0.0000 
     11 C         221.7300  -19.8710  368.9640 C.2       2 LEU3        0.0000 
     12 O         222.4950  -18.8820  369.0780 O.2       2 LEU3        0.0000 
     13 CB        221.7500  -21.2100  366.8270 C.3       2 LEU3        0.0000 
     14 CG        221.1030  -21.3640  365.4500 C.3       2 LEU3        0.0000 
     15 CD1       222.1130  -21.7730  364.3830 C.3       2 LEU3        0.0000 
     16 CD2       219.9270  -22.3350  365.5070 C.3       2 LEU3        0.0000 
     17 OXT       221.5060  -20.6570  369.9110 O.3       2 LEU3        0.0000 
     18 C         219.9970  -17.1460  362.9890 C.2       3 BEZ1        0.0000 
     19 O1        221.0940  -16.6330  363.0820 O.co2     3 BEZ1        0.0000 
     20 C1        219.2800  -17.1860  361.6830 C.ar      3 BEZ1        0.0000 
     21 C2        218.1210  -17.9310  361.5930 C.ar      3 BEZ1        0.0000 
     22 C3        217.4380  -17.9720  360.3890 C.ar      3 BEZ1        0.0000 
     23 C4        217.9210  -17.2740  359.2930 C.ar      3 BEZ1        0.0000 
     24 C5        219.0860  -16.5330  359.3840 C.ar      3 BEZ1        0.0000 
     25 C6        219.7660  -16.4860  360.5870 C.ar      3 BEZ1        0.0000 
@<TRIPOS>BOND
     1    1    2 1    
     2    1   18 du   
     3    2    3 1    
     4    2    5 1    
     5    3    4 2    
     6    3    9 am   
     7    5    6 1    
     8    6    7 1    
     9    6    8 1    
    10    9   10 1    
    11   10   11 1    
    12   10   13 1    
    13   11   12 2    
    14   11   17 1    
    15   13   14 1    
    16   14   15 1    
    17   14   16 1    
    18   18   19 ar   
    19   18   20 1    
    20   20   21 ar   
    21   20   25 ar   
    22   21   22 ar   
    23   22   23 ar   
    24   23   24 ar   
    25   24   25 ar   
@<TRIPOS>SUBSTRUCTURE
     1 LEU2        1 RESIDUE 
     2 LEU3        9 RESIDUE 
     3 BEZ1       18 GROUP   
@<TRIPOS>SET

