#    Name: 6iw7_1_LEU_LEU_BEZ
#    Modification time : Fri May 22 19:30:55 2020

@<TRIPOS>MOLECULE
6iw7_1_LEU_LEU_BEZ
   25    25     3     0     0
SMALL
NO_CHARGES


@<TRIPOS>ATOM
      1 N         231.3410   -4.5590  421.1850 N.am      1 LEU2        0.0000 
      2 CA        232.1430   -3.4950  420.6240 C.3       1 LEU2        0.0000 
      3 C         232.0100   -2.2450  421.4340 C.2       1 LEU2        0.0000 
      4 O         230.9250   -1.8620  421.8030 O.2       1 LEU2        0.0000 
      5 CB        231.6670   -3.1690  419.2160 C.3       1 LEU2        0.0000 
      6 CG        231.8520   -4.3240  418.2420 C.3       1 LEU2        0.0000 
      7 CD1       233.0860   -5.1170  418.6090 C.3       1 LEU2        0.0000 
      8 CD2       230.6410   -5.2430  418.1940 C.3       1 LEU2        0.0000 
      9 N         233.1210   -1.5880  421.7190 N.am      2 LEU3        0.0000 
     10 CA        233.1570   -0.1540  421.8610 C.3       2 LEU3        0.0000 
     11 C         233.4820    0.4590  420.5310 C.2       2 LEU3        0.0000 
     12 O         232.5680    0.8100  419.7520 O.2       2 LEU3        0.0000 
     13 CB        234.2490    0.2300  422.8560 C.3       2 LEU3        0.0000 
     14 CG        233.7570    0.3920  424.2860 C.3       2 LEU3        0.0000 
     15 CD1       234.9270    0.5660  425.2350 C.3       2 LEU3        0.0000 
     16 CD2       232.8260    1.5790  424.4210 C.3       2 LEU3        0.0000 
     17 OXT       234.6860    0.5720  420.2330 O.3       2 LEU3        0.0000 
     18 C         231.8480   -5.5000  421.9680 C.2       3 BEZ1        0.0000 
     19 O1        233.0420   -5.6110  422.1550 O.co2     3 BEZ1        0.0000 
     20 C1        230.9230   -6.4600  422.6380 C.ar      3 BEZ1        0.0000 
     21 C2        229.6440   -6.6550  422.1520 C.ar      3 BEZ1        0.0000 
     22 C3        228.7960   -7.5510  422.7750 C.ar      3 BEZ1        0.0000 
     23 C4        229.2180   -8.2540  423.8860 C.ar      3 BEZ1        0.0000 
     24 C5        230.4930   -8.0590  424.3740 C.ar      3 BEZ1        0.0000 
     25 C6        231.3470   -7.1660  423.7490 C.ar      3 BEZ1        0.0000 
@<TRIPOS>BOND
     1    1    2 1    
     2    1   18 du   
     3    2    3 1    
     4    2    5 1    
     5    3    4 2    
     6    3    9 am   
     7    5    6 1    
     8    6    7 1    
     9    6    8 1    
    10    9   10 1    
    11   10   11 1    
    12   10   13 1    
    13   11   12 2    
    14   11   17 1    
    15   13   14 1    
    16   14   15 1    
    17   14   16 1    
    18   18   19 ar   
    19   18   20 1    
    20   20   21 ar   
    21   20   25 ar   
    22   21   22 ar   
    23   22   23 ar   
    24   23   24 ar   
    25   24   25 ar   
@<TRIPOS>SUBSTRUCTURE
     1 LEU2        1 RESIDUE 
     2 LEU3        9 RESIDUE 
     3 BEZ1       18 GROUP   
@<TRIPOS>SET

