#    Name: 6iw7_4_LEU_LEU_BEZ
#    Modification time : Fri May 22 19:31:02 2020

@<TRIPOS>MOLECULE
6iw7_4_LEU_LEU_BEZ
   25    25     3     0     0
SMALL
NO_CHARGES


@<TRIPOS>ATOM
      1 N         211.4840  -35.8130  402.3230 N.am      1 LEU2        0.0000 
      2 CA        212.2760  -34.6210  402.2100 C.3       1 LEU2        0.0000 
      3 C         212.1920  -33.8900  403.5000 C.2       1 LEU2        0.0000 
      4 O         211.1850  -33.2880  403.8030 O.2       1 LEU2        0.0000 
      5 CB        211.6990  -33.7820  401.0880 C.3       1 LEU2        0.0000 
      6 CG        212.7640  -33.0600  400.2780 C.3       1 LEU2        0.0000 
      7 CD1       214.0860  -33.8210  400.2780 C.3       1 LEU2        0.0000 
      8 CD2       212.2530  -32.8470  398.8610 C.3       1 LEU2        0.0000 
      9 N         213.2370  -33.9490  404.2950 N.am      2 LEU3        0.0000 
     10 CA        213.2500  -33.1350  405.4880 C.3       2 LEU3        0.0000 
     11 C         214.0210  -31.8600  405.2670 C.2       2 LEU3        0.0000 
     12 O         214.6690  -31.7070  404.2010 O.2       2 LEU3        0.0000 
     13 CB        213.8340  -33.9400  406.6440 C.3       2 LEU3        0.0000 
     14 CG        213.5360  -35.4230  406.4550 C.3       2 LEU3        0.0000 
     15 CD1       214.4910  -36.2810  407.2720 C.3       2 LEU3        0.0000 
     16 CD2       212.0850  -35.7430  406.7920 C.3       2 LEU3        0.0000 
     17 OXT       213.9720  -30.9940  406.1650 O.3       2 LEU3        0.0000 
     18 C         211.9800  -37.0080  402.0860 C.2       3 BEZ1        0.0000 
     19 O1        213.1610  -37.1950  401.8470 O.co2     3 BEZ1        0.0000 
     20 C1        210.9980  -38.1260  402.1330 C.ar      3 BEZ1        0.0000 
     21 C2        209.8200  -37.9260  402.8230 C.ar      3 BEZ1        0.0000 
     22 C3        208.8900  -38.9480  402.8820 C.ar      3 BEZ1        0.0000 
     23 C4        209.1450  -40.1520  402.2490 C.ar      3 BEZ1        0.0000 
     24 C5        210.3300  -40.3450  401.5590 C.ar      3 BEZ1        0.0000 
     25 C6        211.2590  -39.3260  401.4990 C.ar      3 BEZ1        0.0000 
@<TRIPOS>BOND
     1    1    2 1    
     2    1   18 du   
     3    2    3 1    
     4    2    5 1    
     5    3    4 2    
     6    3    9 am   
     7    5    6 1    
     8    6    7 1    
     9    6    8 1    
    10    9   10 1    
    11   10   11 1    
    12   10   13 1    
    13   11   12 2    
    14   11   17 1    
    15   13   14 1    
    16   14   15 1    
    17   14   16 1    
    18   18   19 ar   
    19   18   20 1    
    20   20   21 ar   
    21   20   25 ar   
    22   21   22 ar   
    23   22   23 ar   
    24   23   24 ar   
    25   24   25 ar   
@<TRIPOS>SUBSTRUCTURE
     1 LEU2        1 RESIDUE 
     2 LEU3        9 RESIDUE 
     3 BEZ1       18 GROUP   
@<TRIPOS>SET

