#    Name: 6fyf_4_FAD
#    Modification time : Fri May 22 19:31:13 2020

@<TRIPOS>MOLECULE
6fyf_4_FAD
   53    58     1     0     1
SMALL
NO_CHARGES


@<TRIPOS>ATOM
      1 PA        -10.9220   32.1910   25.6120 P.3       1 FAD501      0.0000 
      2 O1A       -10.8780   30.8710   26.0670 O.co2     1 FAD501      0.0000 
      3 O2A        -9.9680   32.6850   24.7240 O.co2     1 FAD501      0.0000 
      4 O5B       -12.3250   32.5860   25.1040 O.3       1 FAD501      0.0000 
      5 C5B       -13.5300   32.1700   25.6940 C.3       1 FAD501      0.0000 
      6 C4B       -14.7170   32.3860   24.7710 C.3       1 FAD501      0.0000 
      7 O4B       -14.7900   33.6950   24.3440 O.3       1 FAD501      0.0000 
      8 C3B       -14.6340   31.5770   23.5160 C.3       1 FAD501      0.0000 
      9 O3B       -15.9370   31.1590   23.1920 O.3       1 FAD501      0.0000 
     10 C2B       -14.0780   32.5250   22.5130 C.3       1 FAD501      0.0000 
     11 O2B       -14.4930   32.2690   21.2210 O.3       1 FAD501      0.0000 
     12 C1B       -14.6320   33.8210   22.9640 C.3       1 FAD501      0.0000 
     13 N9A       -13.7760   34.9710   22.6940 N.pl3     1 FAD501      0.0000 
     14 C8A       -12.6480   35.2870   23.2880 C.2       1 FAD501      0.0000 
     15 N7A       -12.1580   36.4270   22.8260 N.2       1 FAD501      0.0000 
     16 C5A       -12.9880   36.8720   21.9240 C.ar      1 FAD501      0.0000 
     17 C6A       -13.0540   38.0260   21.0380 C.ar      1 FAD501      0.0000 
     18 N6A       -12.1200   38.9450   21.0790 N.pl3     1 FAD501      0.0000 
     19 N1A       -14.0970   38.1210   20.2230 N.ar      1 FAD501      0.0000 
     20 C2A       -15.0270   37.1940   20.2230 C.ar      1 FAD501      0.0000 
     21 N3A       -15.0470   36.1160   20.9830 N.ar      1 FAD501      0.0000 
     22 C4A       -14.0610   35.9040   21.8370 C.ar      1 FAD501      0.0000 
     23 N1        -14.5640   35.8210   34.9460 N.2       1 FAD501      0.0000 
     24 C2        -14.9840   36.8520   35.6790 C.2       1 FAD501      0.0000 
     25 O2        -15.9710   37.4610   35.3510 O.2       1 FAD501      0.0000 
     26 N3        -14.3630   37.2690   36.7610 N.am      1 FAD501      0.0000 
     27 C4        -13.2810   36.7100   37.1990 C.2       1 FAD501      0.0000 
     28 O4        -12.7410   37.1150   38.1820 O.2       1 FAD501      0.0000 
     29 C4X       -12.7630   35.5500   36.4780 C.2       1 FAD501      0.0000 
     30 N5        -11.6820   34.9110   36.8820 N.2       1 FAD501      0.0000 
     31 C5X       -11.1900   33.9010   36.2040 C.ar      1 FAD501      0.0000 
     32 C6        -10.0440   33.2940   36.6550 C.ar      1 FAD501      0.0000 
     33 C7         -9.5100   32.2280   35.9910 C.ar      1 FAD501      0.0000 
     34 C7M        -8.2790   31.6000   36.5210 C.3       1 FAD501      0.0000 
     35 C8        -10.1660   31.7260   34.7840 C.ar      1 FAD501      0.0000 
     36 C8M        -9.5980   30.5540   34.0480 C.3       1 FAD501      0.0000 
     37 C9        -11.3210   32.3340   34.3400 C.ar      1 FAD501      0.0000 
     38 C9A       -11.8630   33.4120   35.0010 C.ar      1 FAD501      0.0000 
     39 N10       -13.0180   34.0570   34.5690 N.pl3     1 FAD501      0.0000 
     40 C10       -13.4900   35.1410   35.2880 C.2       1 FAD501      0.0000 
     41 C1'       -13.7450   33.5950   33.4340 C.3       1 FAD501      0.0000 
     42 C2'       -13.5150   34.3010   32.1720 C.3       1 FAD501      0.0000 
     43 O2'       -14.3710   35.3990   32.1700 O.3       1 FAD501      0.0000 
     44 C3'       -13.9230   33.3860   31.0450 C.3       1 FAD501      0.0000 
     45 O3'       -13.1750   32.1960   31.1270 O.3       1 FAD501      0.0000 
     46 C4'       -13.6610   34.1380   29.7710 C.3       1 FAD501      0.0000 
     47 O4'       -14.2270   33.4350   28.7140 O.3       1 FAD501      0.0000 
     48 C5'       -12.1820   34.4430   29.5960 C.3       1 FAD501      0.0000 
     49 O5'       -11.9000   34.6030   28.2460 O.3       1 FAD501      0.0000 
     50 P         -10.6130   34.2850   27.4910 P.3       1 FAD501      0.0000 
     51 O1P       -10.6220   35.1400   26.4040 O.co2     1 FAD501      0.0000 
     52 O2P        -9.4650   34.2150   28.3040 O.co2     1 FAD501      0.0000 
     53 O3P       -10.9370   32.8950   26.9940 O.3       1 FAD501      0.0000 
@<TRIPOS>BOND
     1    1    2 ar   
     2    1    3 ar   
     3    1    4 1    
     4    1   53 1    
     5    4    5 1    
     6    5    6 1    
     7    6    7 1    
     8    6    8 1    
     9    7   12 1    
    10    8    9 1    
    11    8   10 1    
    12   10   11 1    
    13   10   12 1    
    14   12   13 1    
    15   13   14 1    
    16   13   22 1    
    17   14   15 2    
    18   15   16 1    
    19   16   17 ar   
    20   16   22 ar   
    21   17   18 1    
    22   17   19 ar   
    23   19   20 ar   
    24   20   21 ar   
    25   21   22 ar   
    26   23   24 1    
    27   23   40 2    
    28   24   25 2    
    29   24   26 am   
    30   26   27 am   
    31   27   28 2    
    32   27   29 1    
    33   29   30 2    
    34   29   40 1    
    35   30   31 1    
    36   31   32 ar   
    37   31   38 ar   
    38   32   33 ar   
    39   33   34 1    
    40   33   35 ar   
    41   35   36 1    
    42   35   37 ar   
    43   37   38 ar   
    44   38   39 1    
    45   39   40 1    
    46   39   41 1    
    47   41   42 1    
    48   42   43 1    
    49   42   44 1    
    50   44   45 1    
    51   44   46 1    
    52   46   47 1    
    53   46   48 1    
    54   48   49 1    
    55   49   50 1    
    56   50   51 ar   
    57   50   52 ar   
    58   50   53 1    
@<TRIPOS>SUBSTRUCTURE
     1 FAD501      1 GROUP   
@<TRIPOS>SET
ATOM$ORANGE STATIC     ATOMS   COLORGROUP SYSTEM 
54 5 5 6 6 8 8 10 10 12 12 14 14 16 16 17 17 20 \
20 22 22 24 24 27 27 29 29 31 31 32 32 33 33 34 34 35 \
35 36 36 37 37 38 38 40 40 41 41 42 42 44 44 46 46 48 \
48 

