#    Name: 6fyf_2_FAD
#    Modification time : Fri May 22 19:30:58 2020

@<TRIPOS>MOLECULE
6fyf_2_FAD
   53    58     1     0     1
SMALL
NO_CHARGES


@<TRIPOS>ATOM
      1 PA         29.3120   12.1450   38.8870 P.3       1 FAD501      0.0000 
      2 O1A        29.3930   13.6040   38.6960 O.co2     1 FAD501      0.0000 
      3 O2A        30.4190   11.5740   39.7610 O.co2     1 FAD501      0.0000 
      4 O5B        27.8860   11.7630   39.4460 O.3       1 FAD501      0.0000 
      5 C5B        26.6870   12.0720   38.7030 C.3       1 FAD501      0.0000 
      6 C4B        25.4620   11.9940   39.5850 C.3       1 FAD501      0.0000 
      7 O4B        25.3070   10.6540   40.1020 O.3       1 FAD501      0.0000 
      8 C3B        25.4450   12.9090   40.8050 C.3       1 FAD501      0.0000 
      9 O3B        24.1130   13.3090   41.1020 O.3       1 FAD501      0.0000 
     10 C2B        26.0190   12.0110   41.9020 C.3       1 FAD501      0.0000 
     11 O2B        25.5760   12.4110   43.1950 O.3       1 FAD501      0.0000 
     12 C1B        25.4380   10.6500   41.5130 C.3       1 FAD501      0.0000 
     13 N9A        26.2580    9.4980   41.8840 N.pl3     1 FAD501      0.0000 
     14 C8A        27.4400    9.1090   41.3110 C.2       1 FAD501      0.0000 
     15 N7A        27.9540    8.0190   41.8300 N.2       1 FAD501      0.0000 
     16 C5A        27.0400    7.6590   42.8080 C.ar      1 FAD501      0.0000 
     17 C6A        27.0000    6.5890   43.7230 C.ar      1 FAD501      0.0000 
     18 N6A        27.9380    5.6400   43.8010 N.pl3     1 FAD501      0.0000 
     19 N1A        25.9440    6.5220   44.5640 N.ar      1 FAD501      0.0000 
     20 C2A        25.0030    7.4670   44.4920 C.ar      1 FAD501      0.0000 
     21 N3A        24.9310    8.5180   43.6710 N.ar      1 FAD501      0.0000 
     22 C4A        25.9870    8.5590   42.8500 C.ar      1 FAD501      0.0000 
     23 N1         25.6300    8.1160   29.6300 N.2       1 FAD501      0.0000 
     24 C2         25.1990    6.9710   29.0280 C.2       1 FAD501      0.0000 
     25 O2         24.1640    6.3990   29.3850 O.2       1 FAD501      0.0000 
     26 N3         25.9300    6.4240   27.9900 N.am      1 FAD501      0.0000 
     27 C4         27.0990    6.9290   27.4680 C.2       1 FAD501      0.0000 
     28 O4         27.6610    6.3530   26.5390 O.2       1 FAD501      0.0000 
     29 C4X        27.5510    8.1420   28.1140 C.2       1 FAD501      0.0000 
     30 N5         28.6540    8.6890   27.6830 N.2       1 FAD501      0.0000 
     31 C5X        29.0840    9.8470   28.2980 C.ar      1 FAD501      0.0000 
     32 C6         30.2610   10.4500   27.8540 C.ar      1 FAD501      0.0000 
     33 C7         30.7310   11.6180   28.4460 C.ar      1 FAD501      0.0000 
     34 C7M        32.0050   12.2460   27.9460 C.3       1 FAD501      0.0000 
     35 C8         30.0080   12.1940   29.5030 C.ar      1 FAD501      0.0000 
     36 C8M        30.4730   13.4560   30.1640 C.3       1 FAD501      0.0000 
     37 C9         28.8380   11.5960   29.9500 C.ar      1 FAD501      0.0000 
     38 C9A        28.3720   10.4340   29.3550 C.ar      1 FAD501      0.0000 
     39 N10        27.1870    9.8080   29.7880 N.pl3     1 FAD501      0.0000 
     40 C10        26.7460    8.6610   29.1890 C.2       1 FAD501      0.0000 
     41 C1'        26.3990   10.3750   30.8950 C.3       1 FAD501      0.0000 
     42 C2'        26.7340    9.7550   32.2480 C.3       1 FAD501      0.0000 
     43 O2'        25.9810    8.5590   32.4510 O.3       1 FAD501      0.0000 
     44 C3'        26.3840   10.7410   33.3620 C.3       1 FAD501      0.0000 
     45 O3'        27.1140   11.9480   33.1640 O.3       1 FAD501      0.0000 
     46 C4'        26.6920   10.2030   34.7590 C.3       1 FAD501      0.0000 
     47 O4'        25.9190   10.9080   35.7310 O.3       1 FAD501      0.0000 
     48 C5'        28.1730   10.2740   35.0600 C.3       1 FAD501      0.0000 
     49 O5'        28.4560    9.5180   36.2540 O.3       1 FAD501      0.0000 
     50 P          29.6660    9.9040   37.1770 P.3       1 FAD501      0.0000 
     51 O1P        29.6270    9.1130   38.4870 O.co2     1 FAD501      0.0000 
     52 O2P        30.8900    9.8160   36.3760 O.co2     1 FAD501      0.0000 
     53 O3P        29.3410   11.4190   37.4800 O.3       1 FAD501      0.0000 
@<TRIPOS>BOND
     1    1    2 ar   
     2    1    3 ar   
     3    1    4 1    
     4    1   53 1    
     5    4    5 1    
     6    5    6 1    
     7    6    7 1    
     8    6    8 1    
     9    7   12 1    
    10    8    9 1    
    11    8   10 1    
    12   10   11 1    
    13   10   12 1    
    14   12   13 1    
    15   13   14 1    
    16   13   22 1    
    17   14   15 2    
    18   15   16 1    
    19   16   17 ar   
    20   16   22 ar   
    21   17   18 1    
    22   17   19 ar   
    23   19   20 ar   
    24   20   21 ar   
    25   21   22 ar   
    26   23   24 1    
    27   23   40 2    
    28   24   25 2    
    29   24   26 am   
    30   26   27 am   
    31   27   28 2    
    32   27   29 1    
    33   29   30 2    
    34   29   40 1    
    35   30   31 1    
    36   31   32 ar   
    37   31   38 ar   
    38   32   33 ar   
    39   33   34 1    
    40   33   35 ar   
    41   35   36 1    
    42   35   37 ar   
    43   37   38 ar   
    44   38   39 1    
    45   39   40 1    
    46   39   41 1    
    47   41   42 1    
    48   42   43 1    
    49   42   44 1    
    50   44   45 1    
    51   44   46 1    
    52   46   47 1    
    53   46   48 1    
    54   48   49 1    
    55   49   50 1    
    56   50   51 ar   
    57   50   52 ar   
    58   50   53 1    
@<TRIPOS>SUBSTRUCTURE
     1 FAD501      1 GROUP   
@<TRIPOS>SET
ATOM$ORANGE STATIC     ATOMS   COLORGROUP SYSTEM 
54 5 5 6 6 8 8 10 10 12 12 14 14 16 16 17 17 20 \
20 22 22 24 24 27 27 29 29 31 31 32 32 33 33 34 34 35 \
35 36 36 37 37 38 38 40 40 41 41 42 42 44 44 46 46 48 \
48 

