#    Name: 6i2p_2_ACP
#    Modification time : Fri May 22 19:24:48 2020

@<TRIPOS>MOLECULE
6i2p_2_ACP
   31    33     1     0     1
SMALL
NO_CHARGES


@<TRIPOS>ATOM
      1 PG         12.5350   -8.3940   -7.6510 P.3       1 ACP301      0.0000 
      2 O1G        14.0460   -8.6810   -7.5220 O.co2     1 ACP301      0.0000 
      3 O2G        11.7000   -9.3390   -6.8450 O.co2     1 ACP301      0.0000 
      4 O3G        12.2700   -6.9100   -7.3270 O.co2     1 ACP301      0.0000 
      5 PB         12.1840  -10.1370  -10.1180 P.3       1 ACP301      0.0000 
      6 O1B        13.6250  -10.7050  -10.0360 O.co2     1 ACP301      0.0000 
      7 O2B        11.2590  -11.1560   -9.4950 O.co2     1 ACP301      0.0000 
      8 C3B        12.2310   -8.4860   -9.4160 C.3       1 ACP301      0.0000 
      9 PA         10.5240   -9.4230  -12.4210 P.3       1 ACP301      0.0000 
     10 O1A         9.4370  -10.4580  -12.1500 O.co2     1 ACP301      0.0000 
     11 O2A        10.1400   -8.0390  -12.0240 O.co2     1 ACP301      0.0000 
     12 O3A        11.8410   -9.9120  -11.6700 O.3       1 ACP301      0.0000 
     13 O5'        10.8960   -9.5130  -13.9950 O.3       1 ACP301      0.0000 
     14 C5'        11.8460   -8.6310  -14.6240 C.3       1 ACP301      0.0000 
     15 C4'        11.3420   -8.2330  -15.9880 C.3       1 ACP301      0.0000 
     16 O4'        11.2000   -9.4070  -16.8170 O.3       1 ACP301      0.0000 
     17 C3'         9.9740   -7.5540  -16.0260 C.3       1 ACP301      0.0000 
     18 O3'        10.0710   -6.1550  -15.7840 O.3       1 ACP301      0.0000 
     19 C2'         9.4740   -7.8870  -17.4360 C.3       1 ACP301      0.0000 
     20 O2'         9.9830   -6.9940  -18.4210 O.3       1 ACP301      0.0000 
     21 C1'        10.0590   -9.2870  -17.6540 C.3       1 ACP301      0.0000 
     22 N9          9.1340  -10.3870  -17.3670 N.pl3     1 ACP301      0.0000 
     23 C8          8.9620  -11.0390  -16.1740 C.2       1 ACP301      0.0000 
     24 N7          8.1320  -12.0540  -16.2320 N.2       1 ACP301      0.0000 
     25 C5          7.7080  -12.0580  -17.5530 C.ar      1 ACP301      0.0000 
     26 C6          6.8210  -12.8950  -18.2710 C.ar      1 ACP301      0.0000 
     27 N6          6.1420  -13.9150  -17.7270 N.pl3     1 ACP301      0.0000 
     28 N1          6.6460  -12.6410  -19.5890 N.ar      1 ACP301      0.0000 
     29 C2          7.3030  -11.6140  -20.1410 C.ar      1 ACP301      0.0000 
     30 N3          8.1490  -10.7520  -19.5640 N.ar      1 ACP301      0.0000 
     31 C4          8.3160  -11.0310  -18.2650 C.ar      1 ACP301      0.0000 
@<TRIPOS>BOND
     1    1    2 ar   
     2    1    3 ar   
     3    1    4 ar   
     4    1    8 1    
     5    5    6 ar   
     6    5    7 ar   
     7    5    8 1    
     8    5   12 1    
     9    9   10 ar   
    10    9   11 ar   
    11    9   12 1    
    12    9   13 1    
    13   13   14 1    
    14   14   15 1    
    15   15   16 1    
    16   15   17 1    
    17   16   21 1    
    18   17   18 1    
    19   17   19 1    
    20   19   20 1    
    21   19   21 1    
    22   21   22 1    
    23   22   23 1    
    24   22   31 1    
    25   23   24 2    
    26   24   25 1    
    27   25   26 ar   
    28   25   31 ar   
    29   26   27 1    
    30   26   28 ar   
    31   28   29 ar   
    32   29   30 ar   
    33   30   31 ar   
@<TRIPOS>SUBSTRUCTURE
     1 ACP301      1 GROUP   
@<TRIPOS>SET
ATOM$ORANGE STATIC     ATOMS   COLORGROUP SYSTEM 
22 8 8 14 14 15 15 17 17 19 19 21 21 23 23 25 25 26 \
26 29 29 31 31 

