#    Name: 6i2p_3_ACP
#    Modification time : Fri May 22 19:24:54 2020

@<TRIPOS>MOLECULE
6i2p_3_ACP
   31    33     1     0     1
SMALL
NO_CHARGES


@<TRIPOS>ATOM
      1 PG          7.3740    1.1830   38.4460 P.3       1 ACP301      0.0000 
      2 O1G         8.1750   -0.1400   38.5670 O.co2     1 ACP301      0.0000 
      3 O2G         6.0500    0.9750   39.2170 O.co2     1 ACP301      0.0000 
      4 O3G         8.1470    2.3290   39.0190 O.co2     1 ACP301      0.0000 
      5 PB          5.2700    1.3870   36.2290 P.3       1 ACP301      0.0000 
      6 O1B         4.8170   -0.0840   36.4300 O.co2     1 ACP301      0.0000 
      7 O2B         4.3210    2.2650   37.0070 O.co2     1 ACP301      0.0000 
      8 C3B         7.0040    1.4370   36.7000 C.3       1 ACP301      0.0000 
      9 PA          5.4910    2.9830   33.7850 P.3       1 ACP301      0.0000 
     10 O1A         6.8930    3.4140   33.9220 O.co2     1 ACP301      0.0000 
     11 O2A         4.4810    4.0220   34.2180 O.co2     1 ACP301      0.0000 
     12 O3A         5.2180    1.6750   34.6490 O.3       1 ACP301      0.0000 
     13 O5'         5.1500    2.5580   32.2750 O.3       1 ACP301      0.0000 
     14 C5'         5.9540    1.6260   31.5230 C.3       1 ACP301      0.0000 
     15 C4'         6.0820    2.0810   30.0920 C.3       1 ACP301      0.0000 
     16 O4'         4.7760    2.1440   29.4780 O.3       1 ACP301      0.0000 
     17 C3'         6.6890    3.4630   29.8910 C.3       1 ACP301      0.0000 
     18 O3'         8.1090    3.4120   29.8810 O.3       1 ACP301      0.0000 
     19 C2'         6.1050    3.8790   28.5410 C.3       1 ACP301      0.0000 
     20 O2'         6.8350    3.3640   27.4340 O.3       1 ACP301      0.0000 
     21 C1'         4.7060    3.2540   28.5970 C.3       1 ACP301      0.0000 
     22 N9          3.6520    4.1560   29.0540 N.pl3     1 ACP301      0.0000 
     23 C8          3.2240    4.3540   30.3420 C.2       1 ACP301      0.0000 
     24 N7          2.2210    5.1860   30.4510 N.2       1 ACP301      0.0000 
     25 C5          1.9680    5.5690   29.1430 C.ar      1 ACP301      0.0000 
     26 C6          1.0010    6.4150   28.5750 C.ar      1 ACP301      0.0000 
     27 N6          0.0980    7.0850   29.2910 N.pl3     1 ACP301      0.0000 
     28 N1          0.9970    6.5550   27.2300 N.ar      1 ACP301      0.0000 
     29 C2          1.9160    5.9000   26.5130 C.ar      1 ACP301      0.0000 
     30 N3          2.8820    5.0830   26.9400 N.ar      1 ACP301      0.0000 
     31 C4          2.8480    4.9500   28.2720 C.ar      1 ACP301      0.0000 
@<TRIPOS>BOND
     1    1    2 ar   
     2    1    3 ar   
     3    1    4 ar   
     4    1    8 1    
     5    5    6 ar   
     6    5    7 ar   
     7    5    8 1    
     8    5   12 1    
     9    9   10 ar   
    10    9   11 ar   
    11    9   12 1    
    12    9   13 1    
    13   13   14 1    
    14   14   15 1    
    15   15   16 1    
    16   15   17 1    
    17   16   21 1    
    18   17   18 1    
    19   17   19 1    
    20   19   20 1    
    21   19   21 1    
    22   21   22 1    
    23   22   23 1    
    24   22   31 1    
    25   23   24 2    
    26   24   25 1    
    27   25   26 ar   
    28   25   31 ar   
    29   26   27 1    
    30   26   28 ar   
    31   28   29 ar   
    32   29   30 ar   
    33   30   31 ar   
@<TRIPOS>SUBSTRUCTURE
     1 ACP301      1 GROUP   
@<TRIPOS>SET
ATOM$ORANGE STATIC     ATOMS   COLORGROUP SYSTEM 
22 8 8 14 14 15 15 17 17 19 19 21 21 23 23 25 25 26 \
26 29 29 31 31 

