#    Name: 6hyt_3_ADP
#    Modification time : Fri May 22 19:35:54 2020

@<TRIPOS>MOLECULE
6hyt_3_ADP
   27    29     1     0     1
SMALL
NO_CHARGES


@<TRIPOS>ATOM
      1 PB         26.2440  -13.5240   90.0350 P.3       1 ADP1301     0.0000 
      2 O1B        26.4530  -13.0150   88.6630 O.co2     1 ADP1301     0.0000 
      3 O2B        27.5090  -13.5960   90.8000 O.co2     1 ADP1301     0.0000 
      4 O3B        25.5010  -14.8590   89.9330 O.co2     1 ADP1301     0.0000 
      5 PA         24.1370  -11.4970   90.3930 P.3       1 ADP1301     0.0000 
      6 O1A        23.3090  -12.0730   89.2480 O.co2     1 ADP1301     0.0000 
      7 O2A        24.7540  -10.2060   90.0140 O.co2     1 ADP1301     0.0000 
      8 O3A        25.3000  -12.5020   90.8030 O.3       1 ADP1301     0.0000 
      9 O5'        23.1700  -11.4980   91.6870 O.3       1 ADP1301     0.0000 
     10 C5'        23.1810  -10.4850   92.7050 C.3       1 ADP1301     0.0000 
     11 C4'        21.8110  -10.3550   93.3250 C.3       1 ADP1301     0.0000 
     12 O4'        20.8800   -9.6680   92.4530 O.3       1 ADP1301     0.0000 
     13 C3'        21.1120  -11.6410   93.7910 C.3       1 ADP1301     0.0000 
     14 O3'        20.9690  -11.5650   95.2020 O.3       1 ADP1301     0.0000 
     15 C2'        19.7410  -11.5670   93.1030 C.3       1 ADP1301     0.0000 
     16 O2'        18.6470  -12.0890   93.8470 O.3       1 ADP1301     0.0000 
     17 C1'        19.6090  -10.0650   92.9190 C.3       1 ADP1301     0.0000 
     18 N9         18.5340   -9.5960   92.0430 N.pl3     1 ADP1301     0.0000 
     19 C8         17.4450   -8.8690   92.4550 C.2       1 ADP1301     0.0000 
     20 N7         16.6150   -8.5560   91.4910 N.2       1 ADP1301     0.0000 
     21 C5         17.1910   -9.1210   90.3630 C.ar      1 ADP1301     0.0000 
     22 C6         16.7740   -9.1880   89.0170 C.ar      1 ADP1301     0.0000 
     23 N6         15.7030   -8.5380   88.5400 N.pl3     1 ADP1301     0.0000 
     24 N1         17.5290   -9.9210   88.1590 N.ar      1 ADP1301     0.0000 
     25 C2         18.6390  -10.5130   88.6200 C.ar      1 ADP1301     0.0000 
     26 N3         19.1490  -10.4890   89.8580 N.ar      1 ADP1301     0.0000 
     27 C4         18.3700   -9.7760   90.6900 C.ar      1 ADP1301     0.0000 
@<TRIPOS>BOND
     1    1    2 ar   
     2    1    3 ar   
     3    1    4 ar   
     4    1    8 1    
     5    5    6 ar   
     6    5    7 ar   
     7    5    8 1    
     8    5    9 1    
     9    9   10 1    
    10   10   11 1    
    11   11   12 1    
    12   11   13 1    
    13   12   17 1    
    14   13   14 1    
    15   13   15 1    
    16   15   16 1    
    17   15   17 1    
    18   17   18 1    
    19   18   19 1    
    20   18   27 1    
    21   19   20 2    
    22   20   21 1    
    23   21   22 ar   
    24   21   27 ar   
    25   22   23 1    
    26   22   24 ar   
    27   24   25 ar   
    28   25   26 ar   
    29   26   27 ar   
@<TRIPOS>SUBSTRUCTURE
     1 ADP1301     1 GROUP   
@<TRIPOS>SET
ATOM$ORANGE STATIC     ATOMS   COLORGROUP SYSTEM 
20 10 10 11 11 13 13 15 15 17 17 19 19 21 21 22 22 25 \
25 27 27 

