#    Name: 6hyt_2_ADP
#    Modification time : Fri May 22 19:35:48 2020

@<TRIPOS>MOLECULE
6hyt_2_ADP
   27    29     1     0     1
SMALL
NO_CHARGES


@<TRIPOS>ATOM
      1 PB         -0.2950  -15.9300  124.9460 P.3       1 ADP1301     0.0000 
      2 O1B        -1.6740  -16.1540  124.3160 O.co2     1 ADP1301     0.0000 
      3 O2B        -0.4730  -15.3720  126.3300 O.co2     1 ADP1301     0.0000 
      4 O3B         0.5460  -17.0730  124.8880 O.co2     1 ADP1301     0.0000 
      5 PA          1.2910  -13.5150  124.5170 P.3       1 ADP1301     0.0000 
      6 O1A         0.4810  -12.3860  125.0250 O.co2     1 ADP1301     0.0000 
      7 O2A         2.3370  -13.9750  125.4830 O.co2     1 ADP1301     0.0000 
      8 O3A         0.3790  -14.7530  124.1140 O.3       1 ADP1301     0.0000 
      9 O5'         1.9700  -12.9130  123.2560 O.3       1 ADP1301     0.0000 
     10 C5'         2.6100  -13.6710  122.2300 C.3       1 ADP1301     0.0000 
     11 C4'         3.3040  -12.6790  121.3330 C.3       1 ADP1301     0.0000 
     12 O4'         3.8190  -11.5800  122.1250 O.3       1 ADP1301     0.0000 
     13 C3'         4.4930  -13.2690  120.5750 C.3       1 ADP1301     0.0000 
     14 O3'         4.5190  -12.8470  119.2200 O.3       1 ADP1301     0.0000 
     15 C2'         5.6950  -12.8270  121.4130 C.3       1 ADP1301     0.0000 
     16 O2'         6.9380  -12.7270  120.7190 O.3       1 ADP1301     0.0000 
     17 C1'         5.2190  -11.4760  121.9450 C.3       1 ADP1301     0.0000 
     18 N9          5.8560  -11.0950  123.2020 N.pl3     1 ADP1301     0.0000 
     19 C8          5.5790  -11.5210  124.4770 C.2       1 ADP1301     0.0000 
     20 N7          6.4080  -11.0640  125.3870 N.2       1 ADP1301     0.0000 
     21 C5          7.2940  -10.2810  124.6580 C.ar      1 ADP1301     0.0000 
     22 C6          8.4300   -9.5310  125.0300 C.ar      1 ADP1301     0.0000 
     23 N6          8.8840   -9.4320  126.2810 N.pl3     1 ADP1301     0.0000 
     24 N1          9.0990   -8.8780  124.0510 N.ar      1 ADP1301     0.0000 
     25 C2          8.6610   -8.9770  122.7900 C.ar      1 ADP1301     0.0000 
     26 N3          7.6080   -9.6490  122.3210 N.ar      1 ADP1301     0.0000 
     27 C4          6.9610  -10.2870  123.3130 C.ar      1 ADP1301     0.0000 
@<TRIPOS>BOND
     1    1    2 ar   
     2    1    3 ar   
     3    1    4 ar   
     4    1    8 1    
     5    5    6 ar   
     6    5    7 ar   
     7    5    8 1    
     8    5    9 1    
     9    9   10 1    
    10   10   11 1    
    11   11   12 1    
    12   11   13 1    
    13   12   17 1    
    14   13   14 1    
    15   13   15 1    
    16   15   16 1    
    17   15   17 1    
    18   17   18 1    
    19   18   19 1    
    20   18   27 1    
    21   19   20 2    
    22   20   21 1    
    23   21   22 ar   
    24   21   27 ar   
    25   22   23 1    
    26   22   24 ar   
    27   24   25 ar   
    28   25   26 ar   
    29   26   27 ar   
@<TRIPOS>SUBSTRUCTURE
     1 ADP1301     1 GROUP   
@<TRIPOS>SET
ATOM$ORANGE STATIC     ATOMS   COLORGROUP SYSTEM 
20 10 10 11 11 13 13 15 15 17 17 19 19 21 21 22 22 25 \
25 27 27 

