#    Name: 6hyt_1_ADP
#    Modification time : Fri May 22 19:35:41 2020

@<TRIPOS>MOLECULE
6hyt_1_ADP
   27    29     1     0     1
SMALL
NO_CHARGES


@<TRIPOS>ATOM
      1 PB         21.8900   17.0750  125.9810 P.3       1 ADP1301     0.0000 
      2 O1B        23.2230   17.4150  125.3470 O.co2     1 ADP1301     0.0000 
      3 O2B        20.9880   18.2790  125.8890 O.co2     1 ADP1301     0.0000 
      4 O3B        21.9450   16.5620  127.3090 O.co2     1 ADP1301     0.0000 
      5 PA         20.3580   14.6900  125.2960 P.3       1 ADP1301     0.0000 
      6 O1A        21.1500   13.5530  125.8260 O.co2     1 ADP1301     0.0000 
      7 O2A        19.2800   15.1520  126.2770 O.co2     1 ADP1301     0.0000 
      8 O3A        21.3150   15.9340  125.0290 O.3       1 ADP1301     0.0000 
      9 O5'        19.5710   14.3840  123.9380 O.3       1 ADP1301     0.0000 
     10 C5'        19.9460   13.4550  122.9050 C.3       1 ADP1301     0.0000 
     11 C4'        18.6850   13.0880  122.1620 C.3       1 ADP1301     0.0000 
     12 O4'        17.8610   12.2860  123.0290 O.3       1 ADP1301     0.0000 
     13 C3'        17.8300   14.2830  121.7230 C.3       1 ADP1301     0.0000 
     14 O3'        17.9140   14.5630  120.3330 O.3       1 ADP1301     0.0000 
     15 C2'        16.4090   13.9510  122.2140 C.3       1 ADP1301     0.0000 
     16 O2'        15.3740   14.1210  121.2470 O.3       1 ADP1301     0.0000 
     17 C1'        16.5140   12.5000  122.6870 C.3       1 ADP1301     0.0000 
     18 N9         15.6680   12.1800  123.8360 N.pl3     1 ADP1301     0.0000 
     19 C8         15.7920   12.5770  125.1440 C.2       1 ADP1301     0.0000 
     20 N7         14.8660   12.0940  125.9410 N.2       1 ADP1301     0.0000 
     21 C5         14.0790   11.3230  125.0960 C.ar      1 ADP1301     0.0000 
     22 C6         12.9410   10.5190  125.3230 C.ar      1 ADP1301     0.0000 
     23 N6         12.4110   10.2890  126.5280 N.pl3     1 ADP1301     0.0000 
     24 N1         12.3940    9.8940  124.2540 N.ar      1 ADP1301     0.0000 
     25 C2         12.9630   10.0450  123.0540 C.ar      1 ADP1301     0.0000 
     26 N3         14.0400   10.7610  122.7230 N.ar      1 ADP1301     0.0000 
     27 C4         14.5550   11.3780  123.7950 C.ar      1 ADP1301     0.0000 
@<TRIPOS>BOND
     1    1    2 ar   
     2    1    3 ar   
     3    1    4 ar   
     4    1    8 1    
     5    5    6 ar   
     6    5    7 ar   
     7    5    8 1    
     8    5    9 1    
     9    9   10 1    
    10   10   11 1    
    11   11   12 1    
    12   11   13 1    
    13   12   17 1    
    14   13   14 1    
    15   13   15 1    
    16   15   16 1    
    17   15   17 1    
    18   17   18 1    
    19   18   19 1    
    20   18   27 1    
    21   19   20 2    
    22   20   21 1    
    23   21   22 ar   
    24   21   27 ar   
    25   22   23 1    
    26   22   24 ar   
    27   24   25 ar   
    28   25   26 ar   
    29   26   27 ar   
@<TRIPOS>SUBSTRUCTURE
     1 ADP1301     1 GROUP   
@<TRIPOS>SET
ATOM$ORANGE STATIC     ATOMS   COLORGROUP SYSTEM 
20 10 10 11 11 13 13 15 15 17 17 19 19 21 21 22 22 25 \
25 27 27 

