#    Name: 6j95_1_RET
#    Modification time : Fri May 22 19:36:13 2020

@<TRIPOS>MOLECULE
6j95_1_RET
   21    21     1     0     0
SMALL
NO_CHARGES


@<TRIPOS>ATOM
      1 C1        -26.7400    7.3530  -18.2500 C.3       1 RET602      0.0000 
      2 C2        -26.1210    7.7850  -16.9160 C.3       1 RET602      0.0000 
      3 C3        -24.6990    8.3090  -17.0540 C.3       1 RET602      0.0000 
      4 C4        -24.5800    9.4440  -18.0640 C.3       1 RET602      0.0000 
      5 C5        -25.6420    9.4400  -19.1440 C.2       1 RET602      0.0000 
      6 C6        -26.4840    8.4080  -19.3230 C.2       1 RET602      0.0000 
      7 C7        -27.2730    8.2490  -20.5290 C.2       1 RET602      0.0000 
      8 C8        -26.7470    7.9180  -21.6800 C.2       1 RET602      0.0000 
      9 C9        -27.3970    7.7130  -22.9550 C.2       1 RET602      0.0000 
     10 C10       -26.6340    7.2820  -23.9810 C.2       1 RET602      0.0000 
     11 C11       -27.0230    6.9790  -25.3290 C.2       1 RET602      0.0000 
     12 C12       -26.1340    6.3720  -26.1090 C.2       1 RET602      0.0000 
     13 C13       -26.2490    5.9420  -27.4840 C.2       1 RET602      0.0000 
     14 C14       -25.3430    5.0440  -27.9360 C.2       1 RET602      0.0000 
     15 C15       -25.2320    4.4700  -29.2480 C.2       1 RET602      0.0000 
     16 O1        -24.3730    3.6650  -29.5480 O.2       1 RET602      0.0000 
     17 C16       -26.1130    6.0210  -18.6760 C.3       1 RET602      0.0000 
     18 C17       -28.2460    7.1490  -18.0640 C.3       1 RET602      0.0000 
     19 C18       -25.4870   10.5760  -20.1190 C.3       1 RET602      0.0000 
     20 C19       -28.8710    7.9880  -23.0630 C.3       1 RET602      0.0000 
     21 C20       -27.3470    6.5240  -28.3330 C.3       1 RET602      0.0000 
@<TRIPOS>BOND
     1    1    2 1    
     2    1    6 1    
     3    1   17 1    
     4    1   18 1    
     5    2    3 1    
     6    3    4 1    
     7    4    5 1    
     8    5    6 2    
     9    5   19 1    
    10    6    7 1    
    11    7    8 2    
    12    8    9 1    
    13    9   10 2    
    14    9   20 1    
    15   10   11 1    
    16   11   12 2    
    17   12   13 1    
    18   13   14 2    
    19   13   21 1    
    20   14   15 1    
    21   15   16 2    
@<TRIPOS>SUBSTRUCTURE
     1 RET602      1 GROUP   
@<TRIPOS>SET

