#    Name: 6u5l_1_3RJ
#    Modification time : Fri May 22 19:24:48 2020

@<TRIPOS>MOLECULE
6u5l_1_3RJ
   50    55     1     0     0
SMALL
NO_CHARGES


@<TRIPOS>ATOM
      1 C13        25.1990   54.8260   93.8720           1 3RJ301      0.0000 
      2 C15        23.1710   55.0350   93.9560           1 3RJ301      0.0000 
      3 C17        26.5940   52.6180   94.5380           1 3RJ301      0.0000 
      4 C21        23.6150   49.3690   96.1090           1 3RJ301      0.0000 
      5 C22        23.6470   50.7140   96.4940           1 3RJ301      0.0000 
      6 C28        21.3170   49.6000   95.3570           1 3RJ301      0.0000 
      7 C01        28.2500   47.6370   96.1980           1 3RJ301      0.0000 
      8 C02        29.0040   46.5060   96.4970           1 3RJ301      0.0000 
      9 C03        30.3790   46.5470   96.3420           1 3RJ301      0.0000 
     10 C04        31.0000   47.7040   95.8950           1 3RJ301      0.0000 
     11 C05        30.2390   48.8380   95.5960           1 3RJ301      0.0000 
     12 C06        28.8410   48.8050   95.7510           1 3RJ301      0.0000 
     13 C07        28.0190   49.8970   95.4700           1 3RJ301      0.0000 
     14 N08        28.6980   51.1140   94.9970           1 3RJ301      0.0000 
     15 C09        28.0040   52.3640   94.6770           1 3RJ301      0.0000 
     16 N10        28.6800   53.5170   94.5080           1 3RJ301      0.0000 
     17 N11        27.7950   54.5310   94.2010           1 3RJ301      0.0000 
     18 C12        26.4970   53.9780   94.2280           1 3RJ301      0.0000 
     19 C14        24.2370   54.1160   93.0480           1 3RJ301      0.0000 
     20 C16        24.4230   55.1400   95.0440           1 3RJ301      0.0000 
     21 N18        26.6870   49.8340   95.6310           1 3RJ301      0.0000 
     22 C19        26.1710   48.6670   96.0650           1 3RJ301      0.0000 
     23 N20        24.7350   48.4290   96.3000           1 3RJ301      0.0000 
     24 C23        22.5200   51.5060   96.2940           1 3RJ301      0.0000 
     25 N24        22.2040   52.7260   96.4990           1 3RJ301      0.0000 
     26 C25        21.0480   53.1960   96.2050           1 3RJ301      0.0000 
     27 N26        20.3550   52.1180   95.6710           1 3RJ301      0.0000 
     28 C27        21.3450   50.9460   95.7210           1 3RJ301      0.0000 
     29 C29        22.4570   48.8060   95.5590           1 3RJ301      0.0000 
     30 N30        26.9360   47.6070   96.3420           1 3RJ301      0.0000 
     31 H131       25.4490   55.6220   93.4410           1 3RJ301      0.0000 
     32 H152       22.9550   55.8570   93.5560           1 3RJ301      0.0000 
     33 H151       22.4380   54.5440   94.2780           1 3RJ301      0.0000 
     34 H171       25.8970   52.0290   94.7120           1 3RJ301      0.0000 
     35 H221       24.4160   51.0770   96.8680           1 3RJ301      0.0000 
     36 H281       20.5510   49.2330   94.9810           1 3RJ301      0.0000 
     37 H021       28.5880   45.7310   96.7970           1 3RJ301      0.0000 
     38 H031       30.8890   45.7950   96.5390           1 3RJ301      0.0000 
     39 H041       31.9230   47.7250   95.7920           1 3RJ301      0.0000 
     40 H051       30.6560   49.6120   95.2950           1 3RJ301      0.0000 
     41 H081       29.5600   51.0890   94.9020           1 3RJ301      0.0000 
     42 H111       27.9880   55.3760   94.1420           1 3RJ301      0.0000 
     43 H142       24.1920   53.1950   93.2280           1 3RJ301      0.0000 
     44 H141       24.2660   54.3550   92.1400           1 3RJ301      0.0000 
     45 H161       24.5670   56.0090   95.3700           1 3RJ301      0.0000 
     46 H162       24.4200   54.4580   95.6890           1 3RJ301      0.0000 
     47 H201       24.5230   47.6370   96.5870           1 3RJ301      0.0000 
     48 H241       22.7930   53.2560   96.8530           1 3RJ301      0.0000 
     49 H251       20.7670   53.9970   96.3130           1 3RJ301      0.0000 
     50 H291       22.4460   47.9090   95.3200           1 3RJ301      0.0000 
@<TRIPOS>BOND
     1    1   18 du   
     2    1   19 du   
     3    1   20 du   
     4    1   31 1    
     5    2   19 du   
     6    2   20 du   
     7    2   32 1    
     8    2   33 1    
     9    3   15 du   
    10    3   18 du   
    11    3   34 1    
    12    4    5 du   
    13    4   23 du   
    14    4   29 du   
    15    5   24 du   
    16    5   35 1    
    17    6   28 du   
    18    6   29 du   
    19    6   36 1    
    20    7    8 du   
    21    7   12 du   
    22    7   30 du   
    23    8    9 du   
    24    8   37 1    
    25    9   10 du   
    26    9   38 1    
    27   10   11 du   
    28   10   39 1    
    29   11   12 du   
    30   11   40 1    
    31   12   13 du   
    32   13   14 du   
    33   13   21 du   
    34   14   15 du   
    35   14   41 1    
    36   15   16 du   
    37   16   17 du   
    38   17   18 du   
    39   17   42 1    
    40   19   43 1    
    41   19   44 1    
    42   20   45 1    
    43   20   46 1    
    44   21   22 du   
    45   22   23 du   
    46   22   30 du   
    47   23   47 1    
    48   24   25 du   
    49   24   28 du   
    50   25   48 1    
    51   25   26 du   
    52   26   27 du   
    53   26   49 1    
    54   27   28 du   
    55   29   50 1    
@<TRIPOS>SUBSTRUCTURE
     1 3RJ301      1 GROUP   
@<TRIPOS>SET

