#    Name: 6avm_2_D4T
#    Modification time : Fri May 22 19:24:13 2020

@<TRIPOS>MOLECULE
6avm_2_D4T
   28    29     1     0     0
SMALL
NO_CHARGES


@<TRIPOS>ATOM
      1 PC         18.9850  -40.5200  -10.9600 P.3       1 D4T603      0.0000 
      2 O1C        17.6330  -40.0880  -10.4960 O.co2     1 D4T603      0.0000 
      3 O2C        20.0190  -40.0460   -9.9960 O.co2     1 D4T603      0.0000 
      4 O3C        19.2710  -39.9310  -12.3060 O.co2     1 D4T603      0.0000 
      5 O7'        19.0270  -42.0850  -11.0550 O.3       1 D4T603      0.0000 
      6 PB         19.3520  -43.0210   -9.8470 P.3       1 D4T603      0.0000 
      7 O1B        19.4220  -44.4650  -10.3240 O.co2     1 D4T603      0.0000 
      8 O2B        20.6800  -42.6260   -9.2490 O.co2     1 D4T603      0.0000 
      9 O6'        18.2210  -42.8870   -8.7620 O.3       1 D4T603      0.0000 
     10 PA         18.4950  -42.6670   -7.2610 P.3       1 D4T603      0.0000 
     11 O1A        19.5590  -41.6310   -7.0950 O.co2     1 D4T603      0.0000 
     12 O2A        17.2380  -42.2020   -6.5880 O.co2     1 D4T603      0.0000 
     13 O5'        18.9850  -44.0860   -6.5830 O.3       1 D4T603      0.0000 
     14 C5'        20.3410  -44.2000   -6.1280 C.3       1 D4T603      0.0000 
     15 C4'        20.7780  -45.6120   -6.1460 C.3       1 D4T603      0.0000 
     16 O4'        20.0770  -46.3610   -5.1180 O.3       1 D4T603      0.0000 
     17 C1'        19.2890  -47.3890   -5.7030 C.3       1 D4T603      0.0000 
     18 N1         17.8920  -47.2740   -5.2860 N.am      1 D4T603      0.0000 
     19 C6         17.3780  -46.1040   -4.9590 C.2       1 D4T603      0.0000 
     20 C2         17.1050  -48.3970   -5.2330 C.2       1 D4T603      0.0000 
     21 O2         17.5760  -49.4960   -5.5360 O.2       1 D4T603      0.0000 
     22 N3         15.7950  -48.3010   -4.8440 N.am      1 D4T603      0.0000 
     23 C4         15.2730  -47.1070   -4.5120 C.2       1 D4T603      0.0000 
     24 O4         14.0760  -47.0260   -4.1570 O.2       1 D4T603      0.0000 
     25 C5         16.0470  -46.0030   -4.5630 C.2       1 D4T603      0.0000 
     26 C5A        15.4600  -44.6090   -4.1810 C.3       1 D4T603      0.0000 
     27 C2'        19.5090  -47.2410   -7.1760 C.2       1 D4T603      0.0000 
     28 C3'        20.3380  -46.2500   -7.4000 C.2       1 D4T603      0.0000 
@<TRIPOS>BOND
     1    1    2 ar   
     2    1    3 ar   
     3    1    4 ar   
     4    1    5 1    
     5    5    6 1    
     6    6    7 ar   
     7    6    8 ar   
     8    6    9 1    
     9    9   10 1    
    10   10   11 ar   
    11   10   12 ar   
    12   10   13 1    
    13   13   14 1    
    14   14   15 1    
    15   15   16 1    
    16   15   28 1    
    17   16   17 1    
    18   17   18 1    
    19   17   27 1    
    20   18   19 1    
    21   18   20 1    
    22   19   25 2    
    23   20   21 2    
    24   20   22 1    
    25   22   23 1    
    26   23   24 2    
    27   23   25 1    
    28   25   26 1    
    29   27   28 2    
@<TRIPOS>SUBSTRUCTURE
     1 D4T603      1 GROUP   
@<TRIPOS>SET

