#    Name: 6avm_1_D4T
#    Modification time : Fri May 22 19:24:06 2020

@<TRIPOS>MOLECULE
6avm_1_D4T
   28    29     1     0     0
SMALL
NO_CHARGES


@<TRIPOS>ATOM
      1 PC         40.7000   31.4440   33.3540 P.3       1 D4T603      0.0000 
      2 O1C        39.6980   32.3780   33.9480 O.co2     1 D4T603      0.0000 
      3 O2C        41.3450   30.6480   34.4360 O.co2     1 D4T603      0.0000 
      4 O3C        41.7470   32.2330   32.6320 O.co2     1 D4T603      0.0000 
      5 O7'        39.9840   30.4760   32.3500 O.3       1 D4T603      0.0000 
      6 PB         39.3840   29.0940   32.7670 P.3       1 D4T603      0.0000 
      7 O1B        38.8790   28.3630   31.5290 O.co2     1 D4T603      0.0000 
      8 O2B        40.4590   28.2680   33.4290 O.co2     1 D4T603      0.0000 
      9 O6'        38.1860   29.3200   33.7660 O.3       1 D4T603      0.0000 
     10 PA         38.0000   28.5530   35.0910 P.3       1 D4T603      0.0000 
     11 O1A        39.3220   28.4030   35.7700 O.co2     1 D4T603      0.0000 
     12 O2A        37.0640   29.3110   35.9850 O.co2     1 D4T603      0.0000 
     13 O5'        37.3620   27.0680   34.7790 O.3       1 D4T603      0.0000 
     14 C5'        38.1440   25.9150   35.1210 C.3       1 D4T603      0.0000 
     15 C4'        37.7530   24.7550   34.2960 C.3       1 D4T603      0.0000 
     16 O4'        36.4710   24.2490   34.7510 O.3       1 D4T603      0.0000 
     17 C1'        35.5030   24.3680   33.7200 C.3       1 D4T603      0.0000 
     18 N1         34.3610   25.1460   34.1860 N.am      1 D4T603      0.0000 
     19 C6         34.4990   26.0360   35.1480 C.2       1 D4T603      0.0000 
     20 C2         33.1340   24.9460   33.6110 C.2       1 D4T603      0.0000 
     21 O2         33.0070   24.1120   32.7110 O.2       1 D4T603      0.0000 
     22 N3         32.0510   25.6700   34.0340 N.am      1 D4T603      0.0000 
     23 C4         32.1910   26.5780   35.0140 C.2       1 D4T603      0.0000 
     24 O4         31.1980   27.2340   35.3950 O.2       1 D4T603      0.0000 
     25 C5         33.4010   26.7750   35.5810 C.2       1 D4T603      0.0000 
     26 C5A        33.5860   27.8240   36.7210 C.3       1 D4T603      0.0000 
     27 C2'        36.2360   24.9980   32.5790 C.2       1 D4T603      0.0000 
     28 C3'        37.4830   25.2060   32.9190 C.2       1 D4T603      0.0000 
@<TRIPOS>BOND
     1    1    2 ar   
     2    1    3 ar   
     3    1    4 ar   
     4    1    5 1    
     5    5    6 1    
     6    6    7 ar   
     7    6    8 ar   
     8    6    9 1    
     9    9   10 1    
    10   10   11 ar   
    11   10   12 ar   
    12   10   13 1    
    13   13   14 1    
    14   14   15 1    
    15   15   16 1    
    16   15   28 1    
    17   16   17 1    
    18   17   18 1    
    19   17   27 1    
    20   18   19 1    
    21   18   20 1    
    22   19   25 2    
    23   20   21 2    
    24   20   22 1    
    25   22   23 1    
    26   23   24 2    
    27   23   25 1    
    28   25   26 1    
    29   27   28 2    
@<TRIPOS>SUBSTRUCTURE
     1 D4T603      1 GROUP   
@<TRIPOS>SET

