#    Name: 6avm_2_D4T_CAVITY_N1_4
#    Modification time : Fri May 22 19:24:15 2020

@<TRIPOS>MOLECULE
6avm_2_D4T_CAVITY_N1_4
   46     0     4     0     0
SMALL
NO_CHARGES


@<TRIPOS>ATOM
      1 OD1        16.8500  -41.4200  -14.2500 O.co2     1 ASP3        0.0000 
      2 OD1        17.1900  -40.1400  -13.5500 O.co2     1 ASP3        0.0000 
      3 OD1        18.2000  -41.2300  -12.0400 O.co2     1 ASP3        0.0000 
      4 OD1        17.9200  -38.2400  -14.1600 O.co2     1 ASP3        0.0000 
      5 OD1        17.5200  -38.8500  -12.8500 O.co2     1 ASP3        0.0000 
      6 OD1        16.1200  -38.3700  -13.0500 O.co2     1 ASP3        0.0000 
      7 OD1        18.5300  -39.9500  -11.3300 O.co2     1 ASP3        0.0000 
      8 OD1        17.1300  -39.4700  -11.5400 O.co2     1 ASP3        0.0000 
      9 OD1        15.7200  -38.9900  -11.7400 O.co2     1 ASP3        0.0000 
     10 OD1        14.3100  -38.5100  -11.9400 O.co2     1 ASP3        0.0000 
     11 OD1        18.1400  -40.5600  -10.0200 O.co2     1 ASP3        0.0000 
     12 OD1        16.7300  -40.0800  -10.2300 O.co2     1 ASP3        0.0000 
     13 OD1        15.3200  -39.6000  -10.4300 O.co2     1 ASP3        0.0000 
     14 OD1        16.3300  -40.6900   -8.9200 O.co2     1 ASP3        0.0000 
     15 OD1        18.2600  -36.9600  -13.4500 O.co2     1 ASP3        0.0000 
     16 OD1        16.4500  -37.0900  -12.3500 O.co2     1 ASP3        0.0000 
     17 OD1        20.2800  -39.1400  -10.4300 O.co2     1 ASP3        0.0000 
     18 OD1        18.8700  -38.6600  -10.6300 O.co2     1 ASP3        0.0000 
     19 OD1        15.6600  -38.3200   -9.7300 O.co2     1 ASP3        0.0000 
     20 OD1        15.2600  -38.9300   -8.4200 O.co2     1 ASP3        0.0000 
     21 NZ         20.8000  -39.8700  -15.7600 N.4       2 LYS4        0.0000 
     22 NZ         19.3900  -39.3900  -15.9700 N.4       2 LYS4        0.0000 
     23 NZ         20.4000  -40.4800  -14.4500 N.4       2 LYS4        0.0000 
     24 NZ         18.9900  -40.0000  -14.6600 N.4       2 LYS4        0.0000 
     25 NZ         18.6000  -40.6100  -13.3500 N.4       2 LYS4        0.0000 
     26 CA         17.2500  -40.8000  -15.5600 C.3       3 GLY6        0.0000 
     27 CA         17.5900  -39.5200  -14.8600 C.3       3 GLY6        0.0000 
     28 CA         15.7800  -39.6600  -13.7500 C.3       3 GLY6        0.0000 
     29 CA         21.1300  -38.5800  -15.0600 C.3       3 GLY6        0.0000 
     30 CA         20.7400  -39.2000  -13.7500 C.3       3 GLY6        0.0000 
     31 CA         19.3300  -38.7200  -13.9500 C.3       3 GLY6        0.0000 
     32 CA         18.9300  -39.3300  -12.6400 C.3       3 GLY6        0.0000 
     33 CA         19.9400  -40.4200  -11.1300 C.3       3 GLY6        0.0000 
     34 CA         13.9200  -39.1200  -10.6300 C.3       3 GLY6        0.0000 
     35 CA         14.9200  -40.2200   -9.1200 C.3       3 GLY6        0.0000 
     36 CA         21.0700  -37.9200  -13.0500 C.3       3 GLY6        0.0000 
     37 CA         19.6600  -37.4400  -13.2500 C.3       3 GLY6        0.0000 
     38 CA         19.2700  -38.0500  -11.9400 C.3       3 GLY6        0.0000 
     39 CA         17.8600  -37.5700  -12.1400 C.3       3 GLY6        0.0000 
     40 CA         17.4600  -38.1800  -10.8300 C.3       3 GLY6        0.0000 
     41 CA         16.0600  -37.7100  -11.0400 C.3       3 GLY6        0.0000 
     42 CA         20.0000  -36.1500  -12.5500 C.3       3 GLY6        0.0000 
     43 CA         21.0100  -37.2500  -11.0400 C.3       3 GLY6        0.0000 
     44 CA         19.6000  -36.7700  -11.2400 C.3       3 GLY6        0.0000 
     45 CA         18.2000  -36.2900  -11.4400 C.3       3 GLY6        0.0000 
     46 DU         19.7300  -38.1100  -15.2600 H         4 CUB7        0.0000 
@<TRIPOS>BOND
@<TRIPOS>SUBSTRUCTURE
     1 ASP3        1 GROUP   
     2 LYS4       21 GROUP   
     3 GLY6       26 GROUP   
     4 CUB7       46 GROUP   
@<TRIPOS>SET

