#    Name: 6he9_5_ADP
#    Modification time : Fri May 22 19:33:22 2020

@<TRIPOS>MOLECULE
6he9_5_ADP
   27    29     1     0     1
SMALL
NO_CHARGES


@<TRIPOS>ATOM
      1 PB        264.5650  287.7270  365.3820 P.3       1 ADP401      0.0000 
      2 O1B       264.7810  286.5270  364.4160 O.co2     1 ADP401      0.0000 
      3 O2B       264.3330  289.1090  364.7260 O.co2     1 ADP401      0.0000 
      4 O3B       263.5160  287.4220  366.4760 O.co2     1 ADP401      0.0000 
      5 PA        267.2250  288.8180  367.0350 P.3       1 ADP401      0.0000 
      6 O1A       266.6750  290.1350  367.3760 O.co2     1 ADP401      0.0000 
      7 O2A       267.7480  287.9350  368.1020 O.co2     1 ADP401      0.0000 
      8 O3A       266.0440  287.9630  366.1390 O.3       1 ADP401      0.0000 
      9 O5'       268.2500  289.0080  365.8150 O.3       1 ADP401      0.0000 
     10 C5'       269.5550  288.3890  365.8070 C.3       1 ADP401      0.0000 
     11 C4'       270.7830  289.3150  365.9960 C.3       1 ADP401      0.0000 
     12 O4'       270.6840  290.3600  365.0360 O.3       1 ADP401      0.0000 
     13 C3'       270.9880  290.0470  367.3840 C.3       1 ADP401      0.0000 
     14 O3'       272.3460  290.0990  367.6710 O.3       1 ADP401      0.0000 
     15 C2'       270.3430  291.3780  367.1170 C.3       1 ADP401      0.0000 
     16 O2'       270.7650  292.4280  367.9500 O.3       1 ADP401      0.0000 
     17 C1'       270.7060  291.6170  365.6850 C.3       1 ADP401      0.0000 
     18 N9        269.8080  292.5560  364.9760 N.pl3     1 ADP401      0.0000 
     19 C8        268.7890  292.2030  364.1480 C.2       1 ADP401      0.0000 
     20 N7        268.1020  293.2130  363.7030 N.2       1 ADP401      0.0000 
     21 C5        268.7240  294.3400  364.1910 C.ar      1 ADP401      0.0000 
     22 C6        268.5960  295.6960  363.8480 C.ar      1 ADP401      0.0000 
     23 N6        267.5810  296.1120  362.9780 N.pl3     1 ADP401      0.0000 
     24 N1        269.5270  296.5300  364.4260 N.ar      1 ADP401      0.0000 
     25 C2        270.3630  296.0330  365.3130 C.ar      1 ADP401      0.0000 
     26 N3        270.7080  294.7790  365.6500 N.ar      1 ADP401      0.0000 
     27 C4        269.8330  293.9670  365.0080 C.ar      1 ADP401      0.0000 
@<TRIPOS>BOND
     1    1    2 ar   
     2    1    3 ar   
     3    1    4 ar   
     4    1    8 1    
     5    5    6 ar   
     6    5    7 ar   
     7    5    8 1    
     8    5    9 1    
     9    9   10 1    
    10   10   11 1    
    11   11   12 1    
    12   11   13 1    
    13   12   17 1    
    14   13   14 1    
    15   13   15 1    
    16   15   16 1    
    17   15   17 1    
    18   17   18 1    
    19   18   19 1    
    20   18   27 1    
    21   19   20 2    
    22   20   21 1    
    23   21   22 ar   
    24   21   27 ar   
    25   22   23 1    
    26   22   24 ar   
    27   24   25 ar   
    28   25   26 ar   
    29   26   27 ar   
@<TRIPOS>SUBSTRUCTURE
     1 ADP401      1 GROUP   
@<TRIPOS>SET
ATOM$ORANGE STATIC     ATOMS   COLORGROUP SYSTEM 
20 10 10 11 11 13 13 15 15 17 17 19 19 21 21 22 22 25 \
25 27 27 

