#    Name: 6he9_2_ATP
#    Modification time : Fri May 22 19:32:43 2020

@<TRIPOS>MOLECULE
6he9_2_ATP
   31    33     1     0     1
SMALL
NO_CHARGES


@<TRIPOS>ATOM
      1 PG        239.8040  238.2000  369.0520 P.3       1 ATP401      0.0000 
      2 O1G       240.6370  238.8530  367.9820 O.co2     1 ATP401      0.0000 
      3 O2G       240.5100  237.9680  370.3570 O.co2     1 ATP401      0.0000 
      4 O3G       238.4470  238.9440  369.1620 O.co2     1 ATP401      0.0000 
      5 PB        239.6610  234.7270  368.2170 P.3       1 ATP401      0.0000 
      6 O1B       240.1260  234.3650  366.8130 O.co2     1 ATP401      0.0000 
      7 O2B       240.5640  234.3440  369.3470 O.co2     1 ATP401      0.0000 
      8 O3B       239.4870  236.5440  368.5320 O.3       1 ATP401      0.0000 
      9 PA        236.7260  233.3460  369.2210 P.3       1 ATP401      0.0000 
     10 O1A       237.1060  232.0550  369.7340 O.co2     1 ATP401      0.0000 
     11 O2A       236.1080  234.2700  370.2020 O.co2     1 ATP401      0.0000 
     12 O3A       238.0410  234.0530  368.4740 O.3       1 ATP401      0.0000 
     13 O5'       235.8320  233.2540  367.9990 O.3       1 ATP401      0.0000 
     14 C5'       234.7180  234.1760  367.8030 C.3       1 ATP401      0.0000 
     15 C4'       233.4200  233.4480  367.5080 C.3       1 ATP401      0.0000 
     16 O4'       233.5500  232.5040  366.4520 O.3       1 ATP401      0.0000 
     17 C3'       232.8270  232.6680  368.6720 C.3       1 ATP401      0.0000 
     18 O3'       231.3890  232.8170  368.7770 O.3       1 ATP401      0.0000 
     19 C2'       233.2930  231.2630  368.3480 C.3       1 ATP401      0.0000 
     20 O2'       232.5080  230.3250  369.0010 O.3       1 ATP401      0.0000 
     21 C1'       233.0850  231.2690  366.8840 C.3       1 ATP401      0.0000 
     22 N9        233.8590  230.1970  366.2070 N.pl3     1 ATP401      0.0000 
     23 C8        235.2820  230.1740  365.9880 C.2       1 ATP401      0.0000 
     24 N7        235.6250  229.0900  365.3590 N.2       1 ATP401      0.0000 
     25 C5        234.4830  228.2990  365.2420 C.ar      1 ATP401      0.0000 
     26 C6        234.2940  227.0750  364.6490 C.ar      1 ATP401      0.0000 
     27 N6        235.3870  226.3720  364.1770 N.pl3     1 ATP401      0.0000 
     28 N1        233.0160  226.5770  364.6090 N.ar      1 ATP401      0.0000 
     29 C2        232.0350  227.3620  365.0970 C.ar      1 ATP401      0.0000 
     30 N3        232.1180  228.5920  365.6980 N.ar      1 ATP401      0.0000 
     31 C4        233.3710  228.9760  365.8160 C.ar      1 ATP401      0.0000 
@<TRIPOS>BOND
     1    1    2 ar   
     2    1    3 ar   
     3    1    4 ar   
     4    1    8 1    
     5    5    6 ar   
     6    5    7 ar   
     7    5    8 1    
     8    5   12 1    
     9    9   10 ar   
    10    9   11 ar   
    11    9   12 1    
    12    9   13 1    
    13   13   14 1    
    14   14   15 1    
    15   15   16 1    
    16   15   17 1    
    17   16   21 1    
    18   17   18 1    
    19   17   19 1    
    20   19   20 1    
    21   19   21 1    
    22   21   22 1    
    23   22   23 1    
    24   22   31 1    
    25   23   24 2    
    26   24   25 1    
    27   25   26 ar   
    28   25   31 ar   
    29   26   27 1    
    30   26   28 ar   
    31   28   29 ar   
    32   29   30 ar   
    33   30   31 ar   
@<TRIPOS>SUBSTRUCTURE
     1 ATP401      1 GROUP   
@<TRIPOS>SET
ATOM$ORANGE STATIC     ATOMS   COLORGROUP SYSTEM 
20 14 14 15 15 17 17 19 19 21 21 23 23 25 25 26 26 29 \
29 31 31 

