#    Name: 6he9_1_ATP
#    Modification time : Fri May 22 19:32:29 2020

@<TRIPOS>MOLECULE
6he9_1_ATP
   31    33     1     0     1
SMALL
NO_CHARGES


@<TRIPOS>ATOM
      1 PG        265.8780  238.5690  374.4920 P.3       1 ATP401      0.0000 
      2 O1G       266.3550  239.5980  373.4140 O.co2     1 ATP401      0.0000 
      3 O2G       266.0730  238.9880  375.8950 O.co2     1 ATP401      0.0000 
      4 O3G       264.4680  238.0180  374.1920 O.co2     1 ATP401      0.0000 
      5 PB        268.5550  236.4750  374.3190 P.3       1 ATP401      0.0000 
      6 O1B       269.3290  236.6200  372.9980 O.co2     1 ATP401      0.0000 
      7 O2B       269.2360  236.8640  375.6700 O.co2     1 ATP401      0.0000 
      8 O3B       267.1050  237.3010  374.1430 O.3       1 ATP401      0.0000 
      9 PA        267.4930  233.3560  375.1060 P.3       1 ATP401      0.0000 
     10 O1A       266.1990  233.4670  375.7910 O.co2     1 ATP401      0.0000 
     11 O2A       268.6380  232.8770  375.9360 O.co2     1 ATP401      0.0000 
     12 O3A       267.8460  234.8120  374.4390 O.3       1 ATP401      0.0000 
     13 O5'       267.2050  232.2790  374.0230 O.3       1 ATP401      0.0000 
     14 C5'       267.5050  230.8940  374.4760 C.3       1 ATP401      0.0000 
     15 C4'       267.0030  229.8240  373.4030 C.3       1 ATP401      0.0000 
     16 O4'       267.9170  229.7450  372.2360 O.3       1 ATP401      0.0000 
     17 C3'       267.1660  228.4730  374.0290 C.3       1 ATP401      0.0000 
     18 O3'       266.2230  227.5700  373.3950 O.3       1 ATP401      0.0000 
     19 C2'       268.6670  228.2490  373.7190 C.3       1 ATP401      0.0000 
     20 O2'       268.9780  226.9270  373.8030 O.3       1 ATP401      0.0000 
     21 C1'       268.7460  228.6950  372.3380 C.3       1 ATP401      0.0000 
     22 N9        270.0860  229.0720  371.8660 N.pl3     1 ATP401      0.0000 
     23 C8        270.4370  230.2800  371.2420 C.2       1 ATP401      0.0000 
     24 N7        271.7020  230.3490  370.9260 N.2       1 ATP401      0.0000 
     25 C5        272.2640  229.1240  371.2200 C.ar      1 ATP401      0.0000 
     26 C6        273.5900  228.6890  371.1430 C.ar      1 ATP401      0.0000 
     27 N6        274.4680  229.5370  370.4510 N.pl3     1 ATP401      0.0000 
     28 N1        273.8150  227.5170  371.7750 N.ar      1 ATP401      0.0000 
     29 C2        272.7870  226.8520  372.4020 C.ar      1 ATP401      0.0000 
     30 N3        271.4970  227.1960  372.5550 N.ar      1 ATP401      0.0000 
     31 C4        271.2810  228.3400  371.9090 C.ar      1 ATP401      0.0000 
@<TRIPOS>BOND
     1    1    2 ar   
     2    1    3 ar   
     3    1    4 ar   
     4    1    8 1    
     5    5    6 ar   
     6    5    7 ar   
     7    5    8 1    
     8    5   12 1    
     9    9   10 ar   
    10    9   11 ar   
    11    9   12 1    
    12    9   13 1    
    13   13   14 1    
    14   14   15 1    
    15   15   16 1    
    16   15   17 1    
    17   16   21 1    
    18   17   18 1    
    19   17   19 1    
    20   19   20 1    
    21   19   21 1    
    22   21   22 1    
    23   22   23 1    
    24   22   31 1    
    25   23   24 2    
    26   24   25 1    
    27   25   26 ar   
    28   25   31 ar   
    29   26   27 1    
    30   26   28 ar   
    31   28   29 ar   
    32   29   30 ar   
    33   30   31 ar   
@<TRIPOS>SUBSTRUCTURE
     1 ATP401      1 GROUP   
@<TRIPOS>SET
ATOM$ORANGE STATIC     ATOMS   COLORGROUP SYSTEM 
20 14 14 15 15 17 17 19 19 21 21 23 23 25 25 26 26 29 \
29 31 31 

