#    Name: 6he9_4_ATP
#    Modification time : Fri May 22 19:33:09 2020

@<TRIPOS>MOLECULE
6he9_4_ATP
   31    33     1     0     1
SMALL
NO_CHARGES


@<TRIPOS>ATOM
      1 PG        237.4890  283.6860  366.0630 P.3       1 ATP401      0.0000 
      2 O1G       236.9300  283.0130  364.7750 O.co2     1 ATP401      0.0000 
      3 O2G       237.1730  282.8880  367.3450 O.co2     1 ATP401      0.0000 
      4 O3G       238.9560  284.1230  365.9350 O.co2     1 ATP401      0.0000 
      5 PB        234.8080  285.8230  366.5550 P.3       1 ATP401      0.0000 
      6 O1B       233.9010  285.7660  365.3110 O.co2     1 ATP401      0.0000 
      7 O2B       234.2860  285.1600  367.7820 O.co2     1 ATP401      0.0000 
      8 O3B       236.3950  285.1050  366.1700 O.3       1 ATP401      0.0000 
      9 PA        235.1820  288.7970  367.9340 P.3       1 ATP401      0.0000 
     10 O1A       233.8090  289.2200  367.9200 O.co2     1 ATP401      0.0000 
     11 O2A       235.8630  288.3490  369.2290 O.co2     1 ATP401      0.0000 
     12 O3A       235.1600  287.5410  366.7990 O.3       1 ATP401      0.0000 
     13 O5'       236.0830  289.9520  367.2920 O.3       1 ATP401      0.0000 
     14 C5'       236.8510  290.8810  368.1780 C.3       1 ATP401      0.0000 
     15 C4'       236.0350  292.2010  368.3470 C.3       1 ATP401      0.0000 
     16 O4'       235.7530  292.7190  367.0460 O.3       1 ATP401      0.0000 
     17 C3'       234.7450  292.1860  369.0770 C.3       1 ATP401      0.0000 
     18 O3'       234.9070  292.1580  370.4970 O.3       1 ATP401      0.0000 
     19 C2'       234.0870  293.4680  368.5510 C.3       1 ATP401      0.0000 
     20 O2'       234.5680  294.5670  369.3070 O.3       1 ATP401      0.0000 
     21 C1'       234.5490  293.4450  367.0840 C.3       1 ATP401      0.0000 
     22 N9        233.5590  292.8570  366.1500 N.pl3     1 ATP401      0.0000 
     23 C8        233.5820  291.6120  365.5220 C.2       1 ATP401      0.0000 
     24 N7        232.4630  291.4470  364.7830 N.2       1 ATP401      0.0000 
     25 C5        231.6670  292.6240  364.9610 C.ar      1 ATP401      0.0000 
     26 C6        230.3620  292.9130  364.5790 C.ar      1 ATP401      0.0000 
     27 N6        229.7730  292.0290  363.7840 N.pl3     1 ATP401      0.0000 
     28 N1        230.0210  294.2170  364.9530 N.ar      1 ATP401      0.0000 
     29 C2        230.7610  294.9490  365.7990 C.ar      1 ATP401      0.0000 
     30 N3        231.9890  294.6630  366.2540 N.ar      1 ATP401      0.0000 
     31 C4        232.3840  293.4440  365.8130 C.ar      1 ATP401      0.0000 
@<TRIPOS>BOND
     1    1    2 ar   
     2    1    3 ar   
     3    1    4 ar   
     4    1    8 1    
     5    5    6 ar   
     6    5    7 ar   
     7    5    8 1    
     8    5   12 1    
     9    9   10 ar   
    10    9   11 ar   
    11    9   12 1    
    12    9   13 1    
    13   13   14 1    
    14   14   15 1    
    15   15   16 1    
    16   15   17 1    
    17   16   21 1    
    18   17   18 1    
    19   17   19 1    
    20   19   20 1    
    21   19   21 1    
    22   21   22 1    
    23   22   23 1    
    24   22   31 1    
    25   23   24 2    
    26   24   25 1    
    27   25   26 ar   
    28   25   31 ar   
    29   26   27 1    
    30   26   28 ar   
    31   28   29 ar   
    32   29   30 ar   
    33   30   31 ar   
@<TRIPOS>SUBSTRUCTURE
     1 ATP401      1 GROUP   
@<TRIPOS>SET
ATOM$ORANGE STATIC     ATOMS   COLORGROUP SYSTEM 
20 14 14 15 15 17 17 19 19 21 21 23 23 25 25 26 26 29 \
29 31 31 

