#    Name: 6he9_3_ATP
#    Modification time : Fri May 22 19:32:56 2020

@<TRIPOS>MOLECULE
6he9_3_ATP
   31    33     1     0     1
SMALL
NO_CHARGES


@<TRIPOS>ATOM
      1 PG        225.5650  259.5460  368.4670 P.3       1 ATP401      0.0000 
      2 O1G       226.6680  259.0960  367.5720 O.co2     1 ATP401      0.0000 
      3 O2G       225.6210  258.9220  369.9110 O.co2     1 ATP401      0.0000 
      4 O3G       225.2640  261.0780  368.3270 O.co2     1 ATP401      0.0000 
      5 PB        222.3590  258.2330  367.6850 P.3       1 ATP401      0.0000 
      6 O1B       222.1290  257.8310  366.2140 O.co2     1 ATP401      0.0000 
      7 O2B       222.2400  257.2270  368.7990 O.co2     1 ATP401      0.0000 
      8 O3B       224.0470  258.8080  367.8410 O.3       1 ATP401      0.0000 
      9 PA        220.7190  260.8450  368.8030 P.3       1 ATP401      0.0000 
     10 O1A       221.7340  261.8410  369.1330 O.co2     1 ATP401      0.0000 
     11 O2A       219.9110  260.2510  369.9680 O.co2     1 ATP401      0.0000 
     12 O3A       221.4310  259.5790  368.0740 O.3       1 ATP401      0.0000 
     13 O5'       219.6420  261.4930  367.7560 O.3       1 ATP401      0.0000 
     14 C5'       219.3600  262.8730  367.8450 C.3       1 ATP401      0.0000 
     15 C4'       217.8600  263.0960  367.9940 C.3       1 ATP401      0.0000 
     16 O4'       217.0680  262.6270  366.8570 O.3       1 ATP401      0.0000 
     17 C3'       217.2510  262.5010  369.2400 C.3       1 ATP401      0.0000 
     18 O3'       216.1940  263.3740  369.8510 O.3       1 ATP401      0.0000 
     19 C2'       216.6610  261.1970  368.6730 C.3       1 ATP401      0.0000 
     20 O2'       215.6120  260.7200  369.4640 O.3       1 ATP401      0.0000 
     21 C1'       216.1360  261.6710  367.3420 C.3       1 ATP401      0.0000 
     22 N9        215.9900  260.5340  366.4140 N.pl3     1 ATP401      0.0000 
     23 C8        216.9030  259.5720  366.0160 C.2       1 ATP401      0.0000 
     24 N7        216.4590  258.6860  365.1430 N.2       1 ATP401      0.0000 
     25 C5        215.1760  259.0650  364.9100 C.ar      1 ATP401      0.0000 
     26 C6        214.2350  258.4450  364.0450 C.ar      1 ATP401      0.0000 
     27 N6        214.5840  257.4130  363.3090 N.pl3     1 ATP401      0.0000 
     28 N1        212.9930  259.0530  364.1070 N.ar      1 ATP401      0.0000 
     29 C2        212.8280  260.1690  364.8400 C.ar      1 ATP401      0.0000 
     30 N3        213.6780  260.8260  365.6650 N.ar      1 ATP401      0.0000 
     31 C4        214.8900  260.2430  365.6180 C.ar      1 ATP401      0.0000 
@<TRIPOS>BOND
     1    1    2 ar   
     2    1    3 ar   
     3    1    4 ar   
     4    1    8 1    
     5    5    6 ar   
     6    5    7 ar   
     7    5    8 1    
     8    5   12 1    
     9    9   10 ar   
    10    9   11 ar   
    11    9   12 1    
    12    9   13 1    
    13   13   14 1    
    14   14   15 1    
    15   15   16 1    
    16   15   17 1    
    17   16   21 1    
    18   17   18 1    
    19   17   19 1    
    20   19   20 1    
    21   19   21 1    
    22   21   22 1    
    23   22   23 1    
    24   22   31 1    
    25   23   24 2    
    26   24   25 1    
    27   25   26 ar   
    28   25   31 ar   
    29   26   27 1    
    30   26   28 ar   
    31   28   29 ar   
    32   29   30 ar   
    33   30   31 ar   
@<TRIPOS>SUBSTRUCTURE
     1 ATP401      1 GROUP   
@<TRIPOS>SET
ATOM$ORANGE STATIC     ATOMS   COLORGROUP SYSTEM 
20 14 14 15 15 17 17 19 19 21 21 23 23 25 25 26 26 29 \
29 31 31 

