#    Name: 5y0p_2_TAT
#    Modification time : Fri May 22 19:21:14 2020

@<TRIPOS>MOLECULE
5y0p_2_TAT
   31    33     1     0     0
SMALL
NO_CHARGES


@<TRIPOS>ATOM
      1 N1         12.4550   -1.7510   10.6700 N.ar      1 TAT1001     0.0000 
      2 C2         13.5840   -2.3530   11.0900 C.ar      1 TAT1001     0.0000 
      3 N3         14.5990   -2.6450   10.2720 N.ar      1 TAT1001     0.0000 
      4 C4         14.5280   -2.3340    8.9550 C.ar      1 TAT1001     0.0000 
      5 C5         13.3270   -1.6800    8.4200 C.ar      1 TAT1001     0.0000 
      6 C6         12.2480   -1.3950    9.3830 C.ar      1 TAT1001     0.0000 
      7 N6         11.1020   -0.7970    8.9850 N.pl3     1 TAT1001     0.0000 
      8 N7         13.5300   -1.4980    7.1040 N.2       1 TAT1001     0.0000 
      9 C8         14.7660   -1.9840    6.8200 C.2       1 TAT1001     0.0000 
     10 N9         15.3500   -2.4790    7.9230 N.pl3     1 TAT1001     0.0000 
     11 PA         17.8270   -2.9190    3.1220 P.3       1 TAT1001     0.0000 
     12 PB         15.1890   -4.1420    3.1190 P.3       1 TAT1001     0.0000 
     13 PG         12.5600   -3.4110    3.2370 P.3       1 TAT1001     0.0000 
     14 C1'        16.6800   -3.0920    8.0280 C.3       1 TAT1001     0.0000 
     15 O1A        12.8220   -2.2960    4.2160 O.co2     1 TAT1001     0.0000 
     16 O1B        15.2940   -5.5710    2.6650 O.co2     1 TAT1001     0.0000 
     17 S1G        18.8570   -4.5350    2.8020 S.3       1 TAT1001     0.0000 
     18 C2'        16.7640   -4.3410    7.1840 C.3       1 TAT1001     0.0000 
     19 O2'        16.4150   -5.5100    7.9280 O.3       1 TAT1001     0.0000 
     20 O2A        18.3450   -1.5410    2.7920 O.2       1 TAT1001     0.0000 
     21 O2B        15.0430   -3.9140    4.5920 O.co2     1 TAT1001     0.0000 
     22 O2G        11.5020   -3.0960    2.2160 O.co2     1 TAT1001     0.0000 
     23 C3'        18.2070   -4.3500    6.7440 C.3       1 TAT1001     0.0000 
     24 O3'        18.9640   -5.2100    7.5960 O.3       1 TAT1001     0.0000 
     25 O3A        16.3340   -3.1580    2.5240 O.3       1 TAT1001     0.0000 
     26 O3B        13.9160   -3.4890    2.3930 O.3       1 TAT1001     0.0000 
     27 O3G        12.4780   -4.7910    3.8440 O.co2     1 TAT1001     0.0000 
     28 C4'        18.6670   -2.9040    6.8680 C.3       1 TAT1001     0.0000 
     29 O4'        17.6540   -2.1740    7.5470 O.3       1 TAT1001     0.0000 
     30 C5'        18.7690   -2.2930    5.4820 C.3       1 TAT1001     0.0000 
     31 O5'        17.6940   -2.8390    4.7130 O.3       1 TAT1001     0.0000 
@<TRIPOS>BOND
     1    1    2 ar   
     2    1    6 ar   
     3    2    3 ar   
     4    3    4 ar   
     5    4    5 ar   
     6    4   10 1    
     7    5    6 ar   
     8    5    8 1    
     9    6    7 1    
    10    8    9 2    
    11    9   10 1    
    12   10   14 1    
    13   11   17 1    
    14   11   20 2    
    15   11   25 1    
    16   11   31 1    
    17   12   16 ar   
    18   12   21 ar   
    19   12   25 1    
    20   12   26 1    
    21   13   15 ar   
    22   13   22 ar   
    23   13   26 1    
    24   13   27 ar   
    25   14   18 1    
    26   14   29 1    
    27   18   19 1    
    28   18   23 1    
    29   23   24 1    
    30   23   28 1    
    31   28   29 1    
    32   28   30 1    
    33   30   31 1    
@<TRIPOS>SUBSTRUCTURE
     1 TAT1001     1 GROUP   
@<TRIPOS>SET

