#    Name: 5y0p_1_TAT_CAVITY_N1_4
#    Modification time : Fri May 22 19:21:11 2020

@<TRIPOS>MOLECULE
5y0p_1_TAT_CAVITY_N1_4
  127     0     7     0     0
SMALL
NO_CHARGES


@<TRIPOS>ATOM
      1 OG         19.0500    0.7100  -63.9400 O.3       1 SER1        0.0000 
      2 OG         18.1500    0.1500  -62.1100 O.3       1 SER1        0.0000 
      3 OG         19.3200    0.9900  -62.5000 O.3       1 SER1        0.0000 
      4 OG         19.3100   -0.7800  -60.5900 O.3       1 SER1        0.0000 
      5 OG         18.0900    2.2100  -57.8300 O.3       1 SER1        0.0000 
      6 OG         18.9800    1.0000  -57.7700 O.3       1 SER1        0.0000 
      7 OG         19.8600   -0.2100  -57.7000 O.3       1 SER1        0.0000 
      8 OG         18.9600   -0.7700  -55.8600 O.3       1 SER1        0.0000 
      9 OG         18.3700    2.4900  -56.3900 O.3       1 SER1        0.0000 
     10 OG         19.2600    1.2800  -56.3200 O.3       1 SER1        0.0000 
     11 OG         20.1400    0.0700  -56.2500 O.3       1 SER1        0.0000 
     12 OG         18.6700    4.5400  -56.8400 O.3       1 SER1        0.0000 
     13 OG         21.5700    5.0200  -52.8300 O.3       1 SER1        0.0000 
     14 OG         20.6600    4.4600  -50.9900 O.3       1 SER1        0.0000 
     15 OG         22.7300    4.0900  -51.3200 O.3       1 SER1        0.0000 
     16 OG         23.0200    6.1400  -51.7700 O.3       1 SER1        0.0000 
     17 N          16.1000    2.2900  -63.6900 N.am      2 ALA2        0.0000 
     18 N          17.2600    1.3600  -62.1700 N.am      2 ALA2        0.0000 
     19 N          16.6700    4.6200  -62.7000 N.am      2 ALA2        0.0000 
     20 N          16.3600    0.8000  -60.3400 N.am      2 ALA2        0.0000 
     21 N          17.5400    1.6400  -60.7300 N.am      2 ALA2        0.0000 
     22 O          21.3700   -1.1500  -60.9200 O.2       2 ALA2        0.0000 
     23 O          18.4300    7.7900  -62.1000 O.2       2 ALA2        0.0000 
     24 N          19.2900   -2.5500  -58.6900 N.am      2 ALA2        0.0000 
     25 N          20.4700   -1.7100  -59.0800 N.am      2 ALA2        0.0000 
     26 O          21.6500   -0.8700  -59.4700 O.2       2 ALA2        0.0000 
     27 N          16.6400    8.4400  -60.3300 N.am      2 ALA2        0.0000 
     28 N          19.5700   -2.2600  -57.2400 N.am      2 ALA2        0.0000 
     29 N          20.7500   -1.4200  -57.6300 N.am      2 ALA2        0.0000 
     30 N          21.6300   -2.6300  -57.5700 N.am      2 ALA2        0.0000 
     31 N          16.6200    6.6800  -58.4200 N.am      2 ALA2        0.0000 
     32 O          21.0400    0.6300  -58.0900 O.2       2 ALA2        0.0000 
     33 O          19.8400   -1.9800  -55.8000 O.2       2 ALA2        0.0000 
     34 O          21.0200   -1.1400  -56.1900 O.2       2 ALA2        0.0000 
     35 N          21.9100   -2.3500  -56.1200 N.am      2 ALA2        0.0000 
     36 O          17.7800    5.7500  -56.9100 O.2       2 ALA2        0.0000 
     37 O          21.3200    0.9100  -56.6400 O.2       2 ALA2        0.0000 
     38 O          22.2000   -0.3000  -56.5800 O.2       2 ALA2        0.0000 
     39 O          20.1200   -1.7000  -54.3500 O.2       2 ALA2        0.0000 
     40 O          18.9500    4.8200  -55.4000 O.2       2 ALA2        0.0000 
     41 O          21.6000    1.1900  -55.2000 O.2       2 ALA2        0.0000 
     42 O          20.1300    5.6600  -55.7900 O.2       2 ALA2        0.0000 
     43 N          21.8900    3.2400  -55.6600 N.am      2 ALA2        0.0000 
     44 O          22.7800    2.0300  -55.5900 O.2       2 ALA2        0.0000 
     45 O          23.6600    0.8200  -55.5200 O.2       2 ALA2        0.0000 
     46 N          23.0700    4.0800  -56.0500 N.am      2 ALA2        0.0000 
     47 N          23.9600    2.8700  -55.9800 N.am      2 ALA2        0.0000 
     48 N          24.2500    4.9200  -56.4400 N.am      2 ALA2        0.0000 
     49 OD1        20.5000    1.8300  -62.8900 O.co2     3 ASP3        0.0000 
     50 OD1        17.8300    3.6900  -61.1800 O.co2     3 ASP3        0.0000 
     51 OD1        18.7200    2.4800  -61.1200 O.co2     3 ASP3        0.0000 
     52 OD1        19.6000    1.2700  -61.0500 O.co2     3 ASP3        0.0000 
     53 OD1        20.4900    0.0600  -60.9800 O.co2     3 ASP3        0.0000 
     54 OD1        21.6700    0.9000  -61.3800 O.co2     3 ASP3        0.0000 
     55 OD1        18.7000    0.7100  -59.2100 O.co2     3 ASP3        0.0000 
     56 OD1        19.5800   -0.5000  -59.1500 O.co2     3 ASP3        0.0000 
     57 OD1        18.1100    3.9700  -59.7400 O.co2     3 ASP3        0.0000 
     58 OD1        20.7600    0.3400  -59.5400 O.co2     3 ASP3        0.0000 
     59 OD1        18.4100    6.0200  -60.2000 O.co2     3 ASP3        0.0000 
     60 OD1        18.3900    4.2600  -58.2900 O.co2     3 ASP3        0.0000 
     61 OD1        18.6900    6.3100  -58.7500 O.co2     3 ASP3        0.0000 
     62 OD1        19.8700    7.1500  -59.1400 O.co2     3 ASP3        0.0000 
     63 OD1        19.5500    3.3300  -56.7800 O.co2     3 ASP3        0.0000 
     64 OD1        20.4400    2.1200  -56.7100 O.co2     3 ASP3        0.0000 
     65 OD1        19.8500    5.3800  -57.2400 O.co2     3 ASP3        0.0000 
     66 OD1        20.7300    4.1700  -57.1700 O.co2     3 ASP3        0.0000 
     67 OD1        21.6200    2.9600  -57.1000 O.co2     3 ASP3        0.0000 
     68 OD1        21.0300    6.2200  -57.6300 O.co2     3 ASP3        0.0000 
     69 OD1        22.2100    7.0600  -58.0200 O.co2     3 ASP3        0.0000 
     70 OD1        22.4800   -0.0200  -55.1300 O.co2     3 ASP3        0.0000 
     71 OD1        22.1900    5.2900  -56.1100 O.co2     3 ASP3        0.0000 
     72 OD1        21.8800    1.4800  -53.7500 O.co2     3 ASP3        0.0000 
     73 OD1        23.0600    2.3200  -54.1400 O.co2     3 ASP3        0.0000 
     74 OD1        23.3500    4.3700  -54.6000 O.co2     3 ASP3        0.0000 
     75 OD1        22.1500    1.7600  -52.3000 O.co2     3 ASP3        0.0000 
     76 OD1        22.4500    3.8100  -52.7600 O.co2     3 ASP3        0.0000 
     77 OD1        23.6300    4.6500  -53.1500 O.co2     3 ASP3        0.0000 
     78 NZ         21.3000   -0.8600  -54.7400 N.4       4 LYS4        0.0000 
     79 NZ         20.7000    0.6300  -53.3600 N.4       4 LYS4        0.0000 
     80 NZ         20.9700    0.9200  -51.9100 N.4       4 LYS4        0.0000 
     81 CZ         17.8800    1.6300  -65.4600 C.ar      5 PHE5        0.0000 
     82 CZ         18.1600    1.9200  -64.0100 C.ar      5 PHE5        0.0000 
     83 CZ         18.1300   -1.6200  -60.2000 C.ar      5 PHE5        0.0000 
     84 CZ         20.1900   -1.9900  -60.5300 C.ar      5 PHE5        0.0000 
     85 CZ         18.4100   -1.3400  -58.7600 C.ar      5 PHE5        0.0000 
     86 CZ         16.9300    3.1300  -59.3500 C.ar      5 PHE5        0.0000 
     87 CZ         17.8200    1.9200  -59.2800 C.ar      5 PHE5        0.0000 
     88 CZ         17.2300    5.1800  -59.8000 C.ar      5 PHE5        0.0000 
     89 CZ         18.6800   -1.0500  -57.3100 C.ar      5 PHE5        0.0000 
     90 CZ         17.5100    5.4700  -58.3600 C.ar      5 PHE5        0.0000 
     91 CA         16.9800    1.0800  -63.6200 C.3       6 GLY6        0.0000 
     92 CA         17.5600    3.4100  -62.6300 C.3       6 GLY6        0.0000 
     93 CA         18.4400    2.2000  -62.5600 C.3       6 GLY6        0.0000 
     94 CA         20.2100   -0.2200  -62.4300 C.3       6 GLY6        0.0000 
     95 CA         17.2400   -0.4100  -60.2700 C.3       6 GLY6        0.0000 
     96 CA         18.4200    0.4300  -60.6600 C.3       6 GLY6        0.0000 
     97 CA         16.0700    6.1100  -61.3200 C.3       6 GLY6        0.0000 
     98 CA         16.9500    4.9000  -61.2500 C.3       6 GLY6        0.0000 
     99 CA         16.3600    8.1600  -61.7800 C.3       6 GLY6        0.0000 
    100 CA         17.2500    6.9500  -61.7100 C.3       6 GLY6        0.0000 
    101 CA         18.1300    5.7400  -61.6400 C.3       6 GLY6        0.0000 
    102 CA         19.0100    4.5300  -61.5800 C.3       6 GLY6        0.0000 
    103 CA         17.5400    9.0000  -62.1700 C.3       6 GLY6        0.0000 
    104 CA         16.3400    6.3900  -59.8700 C.3       6 GLY6        0.0000 
    105 CA         17.5200    7.2300  -60.2600 C.3       6 GLY6        0.0000 
    106 CA         17.8000    7.5200  -58.8200 C.3       6 GLY6        0.0000 
    107 CA         20.7300   -3.1900  -55.7300 C.3       6 GLY6        0.0000 
    108 CA         23.0900   -1.5100  -56.5100 C.3       6 GLY6        0.0000 
    109 CA         18.9600    6.5900  -57.3000 C.3       6 GLY6        0.0000 
    110 CA         19.2600    8.6400  -57.7600 C.3       6 GLY6        0.0000 
    111 CA         20.1400    7.4300  -57.6900 C.3       6 GLY6        0.0000 
    112 CA         18.6500    2.7700  -54.9400 C.3       6 GLY6        0.0000 
    113 CA         22.1900   -2.0700  -54.6700 C.3       6 GLY6        0.0000 
    114 CA         19.8300    3.6100  -55.3300 C.3       6 GLY6        0.0000 
    115 CA         23.3700   -1.2300  -55.0600 C.3       6 GLY6        0.0000 
    116 CA         20.4200    7.7100  -56.2500 C.3       6 GLY6        0.0000 
    117 CA         20.1100    3.9000  -53.8800 C.3       6 GLY6        0.0000 
    118 CA         19.2100    3.3400  -52.0500 C.3       6 GLY6        0.0000 
    119 CA         20.3900    4.1800  -52.4400 C.3       6 GLY6        0.0000 
    120 DU         20.4200    0.3500  -54.8100 H         7 CUB7        0.0000 
    121 DU         20.7100    2.4000  -55.2600 H         7 CUB7        0.0000 
    122 DU         21.0100    4.4500  -55.7200 H         7 CUB7        0.0000 
    123 DU         20.9900    2.6900  -53.8200 H         7 CUB7        0.0000 
    124 DU         21.2900    4.7400  -54.2800 H         7 CUB7        0.0000 
    125 DU         22.1700    3.5300  -54.2100 H         7 CUB7        0.0000 
    126 DU         20.0900    2.1300  -51.9800 H         7 CUB7        0.0000 
    127 DU         21.2700    2.9700  -52.3700 H         7 CUB7        0.0000 
@<TRIPOS>BOND
@<TRIPOS>SUBSTRUCTURE
     1 SER1        1 GROUP   
     2 ALA2       17 GROUP   
     3 ASP3       49 GROUP   
     4 LYS4       78 GROUP   
     5 PHE5       81 GROUP   
     6 GLY6       91 GROUP   
     7 CUB7      120 GROUP   
@<TRIPOS>SET

