#    Name: 5y0p_1_TAT
#    Modification time : Fri May 22 19:21:10 2020

@<TRIPOS>MOLECULE
5y0p_1_TAT
   31    33     1     0     0
SMALL
NO_CHARGES


@<TRIPOS>ATOM
      1 N1         17.0680    4.0670  -63.6660 N.ar      1 TAT1001     0.0000 
      2 C2         17.7790    2.9900  -64.0420 C.ar      1 TAT1001     0.0000 
      3 N3         18.1840    2.0240  -63.2110 N.ar      1 TAT1001     0.0000 
      4 C4         17.8730    2.0850  -61.9040 C.ar      1 TAT1001     0.0000 
      5 C5         17.0940    3.2220  -61.4020 C.ar      1 TAT1001     0.0000 
      6 C6         16.6880    4.2510  -62.3860 C.ar      1 TAT1001     0.0000 
      7 N6         15.9730    5.3420  -62.0230 N.pl3     1 TAT1001     0.0000 
      8 N7         16.9370    3.0140  -60.0850 N.2       1 TAT1001     0.0000 
      9 C8         17.5660    1.8470  -59.7780 C.2       1 TAT1001     0.0000 
     10 N9         18.1260    1.3020  -60.8690 N.pl3     1 TAT1001     0.0000 
     11 PA         19.4810   -0.6850  -55.9420 P.3       1 TAT1001     0.0000 
     12 PB         20.5740    2.0190  -56.0230 P.3       1 TAT1001     0.0000 
     13 PG         20.5500    4.7850  -55.5020 P.3       1 TAT1001     0.0000 
     14 C1'        18.8880    0.0400  -60.9630 C.3       1 TAT1001     0.0000 
     15 O1A        20.6350    5.4770  -54.1640 O.co2     1 TAT1001     0.0000 
     16 O1B        20.0790    2.2620  -57.4220 O.co2     1 TAT1001     0.0000 
     17 S1G        21.1610   -1.5990  -55.6130 S.3       1 TAT1001     0.0000 
     18 C2'        20.2930    0.1280  -60.3970 C.3       1 TAT1001     0.0000 
     19 O2'        21.2520    0.5580  -61.3650 O.3       1 TAT1001     0.0000 
     20 O2A        18.1440   -1.2510  -55.5000 O.2       1 TAT1001     0.0000 
     21 O2B        22.0560    1.8340  -55.7470 O.co2     1 TAT1001     0.0000 
     22 O2G        19.4380    5.2810  -56.3950 O.co2     1 TAT1001     0.0000 
     23 C3'        20.5560   -1.2920  -59.9280 C.3       1 TAT1001     0.0000 
     24 O3'        21.1800   -2.0770  -60.9550 O.3       1 TAT1001     0.0000 
     25 O3A        19.6620    0.8350  -55.4010 O.3       1 TAT1001     0.0000 
     26 O3B        20.1030    3.2770  -55.1290 O.3       1 TAT1001     0.0000 
     27 O3G        21.8840    4.6350  -56.1900 O.co2     1 TAT1001     0.0000 
     28 C4'        19.1700   -1.8480  -59.6350 C.3       1 TAT1001     0.0000 
     29 O4'        18.2190   -0.9650  -60.2130 O.3       1 TAT1001     0.0000 
     30 C5'        18.8890   -1.8840  -58.1430 C.3       1 TAT1001     0.0000 
     31 O5'        19.3570   -0.6780  -57.5370 O.3       1 TAT1001     0.0000 
@<TRIPOS>BOND
     1    1    2 ar   
     2    1    6 ar   
     3    2    3 ar   
     4    3    4 ar   
     5    4    5 ar   
     6    4   10 1    
     7    5    6 ar   
     8    5    8 1    
     9    6    7 1    
    10    8    9 2    
    11    9   10 1    
    12   10   14 1    
    13   11   17 1    
    14   11   20 2    
    15   11   25 1    
    16   11   31 1    
    17   12   16 ar   
    18   12   21 ar   
    19   12   25 1    
    20   12   26 1    
    21   13   15 ar   
    22   13   22 ar   
    23   13   26 1    
    24   13   27 ar   
    25   14   18 1    
    26   14   29 1    
    27   18   19 1    
    28   18   23 1    
    29   23   24 1    
    30   23   28 1    
    31   28   29 1    
    32   28   30 1    
    33   30   31 1    
@<TRIPOS>SUBSTRUCTURE
     1 TAT1001     1 GROUP   
@<TRIPOS>SET

