#    Name: 6ili_2_8DG_CAVITY_N1_6
#    Modification time : Fri May 22 19:24:43 2020

@<TRIPOS>MOLECULE
6ili_2_8DG_CAVITY_N1_6
   75     0     5     0     0
SMALL
NO_CHARGES


@<TRIPOS>ATOM
      1 N          17.9200   14.0700  -13.1800 N.am      1 ALA2        0.0000 
      2 N          14.5600   19.9600  -14.2800 N.am      1 ALA2        0.0000 
      3 N          15.1900   18.9700  -13.3500 N.am      1 ALA2        0.0000 
      4 O          13.3500   19.8600  -11.1600 O.2       1 ALA2        0.0000 
      5 N          19.2100   15.6500  -14.7900 N.am      1 ALA2        0.0000 
      6 N          18.2900   16.1000  -13.6900 N.am      1 ALA2        0.0000 
      7 O          17.3700   16.5400  -12.5900 O.2       1 ALA2        0.0000 
      8 N          18.9300   15.1000  -12.7600 N.am      1 ALA2        0.0000 
      9 O          18.0000   15.5500  -11.6600 O.2       1 ALA2        0.0000 
     10 N          19.5600   14.1100  -11.8300 N.am      1 ALA2        0.0000 
     11 N          20.1900   13.1200  -10.9000 N.am      1 ALA2        0.0000 
     12 N          16.4800   20.5500  -14.9600 N.am      1 ALA2        0.0000 
     13 N          17.1100   19.5600  -14.0300 N.am      1 ALA2        0.0000 
     14 N          16.1900   20.0000  -12.9300 N.am      1 ALA2        0.0000 
     15 N          15.2700   20.4500  -11.8300 N.am      1 ALA2        0.0000 
     16 O          18.6600   18.1200  -14.2000 O.2       1 ALA2        0.0000 
     17 N          20.2200   16.6800  -14.3600 N.am      1 ALA2        0.0000 
     18 O          19.3000   17.1300  -13.2700 O.2       1 ALA2        0.0000 
     19 N          18.1100   20.5900  -13.6100 N.am      1 ALA2        0.0000 
     20 O          19.6700   19.1500  -13.7700 O.2       1 ALA2        0.0000 
     21 O          18.7500   19.6000  -12.6800 O.2       1 ALA2        0.0000 
     22 OD1        16.4000   19.0700  -16.4800 O.co2     2 ASP3        0.0000 
     23 OD1        18.9500   18.6700  -16.2200 O.co2     2 ASP3        0.0000 
     24 OD1        19.5800   17.6800  -15.2900 O.co2     2 ASP3        0.0000 
     25 CZ         13.9000   17.3900  -11.7500 C.ar      3 PHE5        0.0000 
     26 CZ         14.5300   16.4000  -10.8100 C.ar      3 PHE5        0.0000 
     27 CZ         17.0000   14.5100  -12.0800 C.ar      3 PHE5        0.0000 
     28 CZ         16.0800   14.9600  -10.9800 C.ar      3 PHE5        0.0000 
     29 CZ         18.5500   13.0800  -12.2500 C.ar      3 PHE5        0.0000 
     30 CZ         17.6300   13.5200  -11.1500 C.ar      3 PHE5        0.0000 
     31 CZ         16.7100   13.9700  -10.0500 C.ar      3 PHE5        0.0000 
     32 CZ         19.1900   12.0900  -11.3200 C.ar      3 PHE5        0.0000 
     33 CZ         15.8200   17.9800  -12.4200 C.ar      3 PHE5        0.0000 
     34 CZ         14.9000   18.4200  -11.3200 C.ar      3 PHE5        0.0000 
     35 CZ         13.9800   18.8700  -10.2300 C.ar      3 PHE5        0.0000 
     36 CZ         16.4500   16.9800  -11.4900 C.ar      3 PHE5        0.0000 
     37 CZ         15.5300   17.4300  -10.3900 C.ar      3 PHE5        0.0000 
     38 CZ         17.0800   15.9900  -10.5600 C.ar      3 PHE5        0.0000 
     39 CZ         16.1600   16.4400   -9.4600 C.ar      3 PHE5        0.0000 
     40 CZ         18.6400   14.5600  -10.7300 C.ar      3 PHE5        0.0000 
     41 CZ         17.7200   15.0000   -9.6300 C.ar      3 PHE5        0.0000 
     42 CZ         19.2700   13.5600   -9.8000 C.ar      3 PHE5        0.0000 
     43 CZ         17.7400   18.5700  -13.1000 C.ar      3 PHE5        0.0000 
     44 CA         14.7400   15.4700  -14.3600 C.3       4 GLY6        0.0000 
     45 CA         13.8200   15.9100  -13.2700 C.3       4 GLY6        0.0000 
     46 CA         12.9000   16.3500  -12.1700 C.3       4 GLY6        0.0000 
     47 CA         16.9200   13.0400  -13.6000 C.3       4 GLY6        0.0000 
     48 CA         15.7400   16.5000  -13.9400 C.3       4 GLY6        0.0000 
     49 CA         14.8200   16.9400  -12.8400 C.3       4 GLY6        0.0000 
     50 CA         17.2900   15.0600  -14.1100 C.3       4 GLY6        0.0000 
     51 CA         16.3700   15.5100  -13.0100 C.3       4 GLY6        0.0000 
     52 CA         15.4500   15.9500  -11.9100 C.3       4 GLY6        0.0000 
     53 CA         13.6400   20.4100  -13.1900 C.3       4 GLY6        0.0000 
     54 CA         12.7200   20.8500  -12.0900 C.3       4 GLY6        0.0000 
     55 CA         17.4000   20.1100  -16.0600 C.3       4 GLY6        0.0000 
     56 CA         18.0300   19.1100  -15.1300 C.3       4 GLY6        0.0000 
     57 CA         19.0400   20.1500  -14.7100 C.3       4 GLY6        0.0000 
     58 CA         21.5100   18.2700  -15.9700 C.3       4 GLY6        0.0000 
     59 CA         20.5900   18.7100  -14.8700 C.3       4 GLY6        0.0000 
     60 CA         22.1400   17.2700  -15.0400 C.3       4 GLY6        0.0000 
     61 CA         21.2200   17.7200  -13.9400 C.3       4 GLY6        0.0000 
     62 CA         21.5900   19.7400  -14.4500 C.3       4 GLY6        0.0000 
     63 CA         20.6700   20.1900  -13.3500 C.3       4 GLY6        0.0000 
     64 CA         22.2200   18.7500  -13.5200 C.3       4 GLY6        0.0000 
     65 DU         16.0300   17.0500  -15.9700 H         5 CUB7        0.0000 
     66 DU         15.1100   17.4900  -14.8700 H         5 CUB7        0.0000 
     67 DU         14.1900   17.9400  -13.7700 H         5 CUB7        0.0000 
     68 DU         13.2700   18.3800  -12.6800 H         5 CUB7        0.0000 
     69 DU         17.5800   15.6100  -16.1400 H         5 CUB7        0.0000 
     70 DU         15.4800   19.5200  -15.3800 H         5 CUB7        0.0000 
     71 DU         17.0300   18.0800  -15.5500 H         5 CUB7        0.0000 
     72 DU         16.1100   18.5200  -14.4500 H         5 CUB7        0.0000 
     73 DU         14.2700   19.4100  -12.2500 H         5 CUB7        0.0000 
     74 DU         17.6600   17.0900  -14.6200 H         5 CUB7        0.0000 
     75 DU         16.7400   17.5300  -13.5200 H         5 CUB7        0.0000 
@<TRIPOS>BOND
@<TRIPOS>SUBSTRUCTURE
     1 ALA2        1 GROUP   
     2 ASP3       22 GROUP   
     3 PHE5       25 GROUP   
     4 GLY6       44 GROUP   
     5 CUB7       65 GROUP   
@<TRIPOS>SET

