#    Name: 6ili_2_8DG
#    Modification time : Fri May 22 19:24:42 2020

@<TRIPOS>MOLECULE
6ili_2_8DG
   32    34     1     0     0
SMALL
NO_CHARGES


@<TRIPOS>ATOM
      1 PG         14.6240   19.8560  -20.5740 P.3       1 8DG201      0.0000 
      2 O1G        13.8590   18.9910  -21.5590 O.co2     1 8DG201      0.0000 
      3 O2G        16.1310   19.6680  -20.5720 O.co2     1 8DG201      0.0000 
      4 O3G        14.1880   21.3070  -20.5630 O.co2     1 8DG201      0.0000 
      5 O3B        14.1050   19.3320  -19.1400 O.3       1 8DG201      0.0000 
      6 PB         14.8950   18.2700  -18.2180 P.3       1 8DG201      0.0000 
      7 O1B        14.6880   16.8790  -18.7740 O.co2     1 8DG201      0.0000 
      8 O2B        16.2990   18.7670  -17.9440 O.co2     1 8DG201      0.0000 
      9 O3A        14.0550   18.4450  -16.8570 O.3       1 8DG201      0.0000 
     10 PA         12.5380   17.9260  -16.6410 P.3       1 8DG201      0.0000 
     11 O1A        12.3430   16.5810  -17.3030 O.co2     1 8DG201      0.0000 
     12 O2A        11.5890   19.0600  -16.9610 O.co2     1 8DG201      0.0000 
     13 O5'        12.5500   17.7400  -15.0380 O.3       1 8DG201      0.0000 
     14 C5'        13.3960   16.7440  -14.4690 C.3       1 8DG201      0.0000 
     15 C4'        13.9500   17.2180  -13.1290 C.3       1 8DG201      0.0000 
     16 O4'        14.8240   16.2280  -12.5720 O.3       1 8DG201      0.0000 
     17 C3'        14.7530   18.5050  -13.2590 C.3       1 8DG201      0.0000 
     18 O3'        14.1700   19.5340  -12.4520 O.3       1 8DG201      0.0000 
     19 C2'        16.1420   18.1810  -12.7490 C.3       1 8DG201      0.0000 
     20 C1'        15.9680   16.8620  -12.0060 C.3       1 8DG201      0.0000 
     21 N9         17.2080   16.0400  -12.0350 N.am      1 8DG201      0.0000 
     22 C8         18.1150   15.8370  -12.9880 C.2       1 8DG201      0.0000 
     23 N7         19.1290   15.0290  -12.6230 N.am      1 8DG201      0.0000 
     24 C5         18.8600   14.6910  -11.3420 C.2       1 8DG201      0.0000 
     25 C6         19.5480   13.8390  -10.3230 C.2       1 8DG201      0.0000 
     26 O6         20.6310   13.2230  -10.5210 O.2       1 8DG201      0.0000 
     27 N1         18.9480   13.7450   -9.1280 N.am      1 8DG201      0.0000 
     28 C2         17.7920   14.3980   -8.8610 C.2       1 8DG201      0.0000 
     29 N2         17.2320   14.2670   -7.6420 N.pl3     1 8DG201      0.0000 
     30 N3         17.1530   15.1710   -9.7720 N.2       1 8DG201      0.0000 
     31 C4         17.6640   15.3300  -10.9980 C.2       1 8DG201      0.0000 
     32 O8         18.0520   16.3480  -14.1700 O.2       1 8DG201      0.0000 
@<TRIPOS>BOND
     1    1    2 ar   
     2    1    3 ar   
     3    1    4 ar   
     4    1    5 1    
     5    5    6 1    
     6    6    7 ar   
     7    6    8 ar   
     8    6    9 1    
     9    9   10 1    
    10   10   11 ar   
    11   10   12 ar   
    12   10   13 1    
    13   13   14 1    
    14   14   15 1    
    15   15   16 1    
    16   15   17 1    
    17   16   20 1    
    18   17   18 1    
    19   17   19 1    
    20   19   20 1    
    21   20   21 1    
    22   21   22 am   
    23   21   31 1    
    24   22   23 am   
    25   22   32 2    
    26   23   24 1    
    27   24   25 1    
    28   24   31 2    
    29   25   26 2    
    30   25   27 am   
    31   27   28 1    
    32   28   29 1    
    33   28   30 2    
    34   30   31 1    
@<TRIPOS>SUBSTRUCTURE
     1 8DG201      1 GROUP   
@<TRIPOS>SET

