#    Name: 5xxt_1_GTP
#    Modification time : Fri May 22 19:12:29 2020

@<TRIPOS>MOLECULE
5xxt_1_GTP
   32    34     1     0     1
SMALL
NO_CHARGES


@<TRIPOS>ATOM
      1 PG        585.0980  568.4110  520.1370 P.3       1 GTP501      0.0000 
      2 O1G       584.1710  567.4370  519.4380 O.co2     1 GTP501      0.0000 
      3 O2G       584.7610  569.8730  519.8190 O.co2     1 GTP501      0.0000 
      4 O3G       586.5450  568.2630  519.6820 O.co2     1 GTP501      0.0000 
      5 O3B       584.9210  568.0250  521.7400 O.3       1 GTP501      0.0000 
      6 PB        585.1840  566.5460  522.4190 P.3       1 GTP501      0.0000 
      7 O1B       583.9190  565.8870  522.7170 O.co2     1 GTP501      0.0000 
      8 O2B       586.1600  566.7950  523.5590 O.co2     1 GTP501      0.0000 
      9 O3A       586.0260  565.7910  521.3910 O.3       1 GTP501      0.0000 
     10 PA        586.4390  564.3410  521.1690 P.3       1 GTP501      0.0000 
     11 O1A       587.2480  564.2900  519.9180 O.co2     1 GTP501      0.0000 
     12 O2A       585.2840  563.4240  521.2250 O.co2     1 GTP501      0.0000 
     13 O5'       587.4810  564.0500  522.4110 O.3       1 GTP501      0.0000 
     14 C5'       587.9940  562.7310  522.4030 C.3       1 GTP501      0.0000 
     15 C4'       588.9560  562.3910  523.4960 C.3       1 GTP501      0.0000 
     16 O4'       588.2460  561.9120  524.6670 O.3       1 GTP501      0.0000 
     17 C3'       589.8150  561.2390  523.0340 C.3       1 GTP501      0.0000 
     18 O3'       591.0500  561.2590  523.7150 O.3       1 GTP501      0.0000 
     19 C2'       588.9500  560.0380  523.3840 C.3       1 GTP501      0.0000 
     20 O2'       589.7840  558.8940  523.5860 O.3       1 GTP501      0.0000 
     21 C1'       588.2310  560.4750  524.6680 C.3       1 GTP501      0.0000 
     22 N9        586.8320  560.0340  524.7950 N.pl3     1 GTP501      0.0000 
     23 C8        585.8010  560.2930  523.9250 C.2       1 GTP501      0.0000 
     24 N7        584.6620  559.7710  524.2970 N.2       1 GTP501      0.0000 
     25 C5        584.9520  559.1190  525.4700 C.2       1 GTP501      0.0000 
     26 C6        584.1350  558.3710  526.3150 C.2       1 GTP501      0.0000 
     27 O6        582.9330  558.1570  526.1690 O.2       1 GTP501      0.0000 
     28 N1        584.8140  557.8560  527.4430 N.am      1 GTP501      0.0000 
     29 C2        586.1530  558.0450  527.7020 C.2       1 GTP501      0.0000 
     30 N2        586.6210  557.4900  528.7840 N.pl3     1 GTP501      0.0000 
     31 N3        586.9530  558.7490  526.9020 N.2       1 GTP501      0.0000 
     32 C4        586.3020  559.2660  525.8080 C.2       1 GTP501      0.0000 
@<TRIPOS>BOND
     1    1    2 ar   
     2    1    3 ar   
     3    1    4 ar   
     4    1    5 1    
     5    5    6 1    
     6    6    7 ar   
     7    6    8 ar   
     8    6    9 1    
     9    9   10 1    
    10   10   11 ar   
    11   10   12 ar   
    12   10   13 1    
    13   13   14 1    
    14   14   15 1    
    15   15   16 1    
    16   15   17 1    
    17   16   21 1    
    18   17   18 1    
    19   17   19 1    
    20   19   20 1    
    21   19   21 1    
    22   21   22 1    
    23   22   23 1    
    24   22   32 1    
    25   23   24 2    
    26   24   25 1    
    27   25   26 1    
    28   25   32 2    
    29   26   27 2    
    30   26   28 am   
    31   28   29 1    
    32   29   30 1    
    33   29   31 2    
    34   31   32 1    
@<TRIPOS>SUBSTRUCTURE
     1 GTP501      1 GROUP   
@<TRIPOS>SET
ATOM$ORANGE STATIC     ATOMS   COLORGROUP SYSTEM 
20 14 14 15 15 17 17 19 19 21 21 23 23 25 25 26 26 29 \
29 32 32 

