#    Name: 5xxt_2_GDP
#    Modification time : Fri May 22 19:12:46 2020

@<TRIPOS>MOLECULE
5xxt_2_GDP
   28    30     1     0     1
SMALL
NO_CHARGES


@<TRIPOS>ATOM
      1 PB        584.9530  567.6790  480.9890 P.3       1 GDP901      0.0000 
      2 O1B       585.3150  568.5630  479.6620 O.co2     1 GDP901      0.0000 
      3 O2B       583.8660  566.8160  480.8180 O.co2     1 GDP901      0.0000 
      4 O3B       584.8790  568.5930  482.1460 O.co2     1 GDP901      0.0000 
      5 O3A       586.1770  566.7270  481.2670 O.3       1 GDP901      0.0000 
      6 PA        586.2380  565.0590  481.3660 P.3       1 GDP901      0.0000 
      7 O1A       585.7420  564.5360  480.0270 O.co2     1 GDP901      0.0000 
      8 O2A       585.4620  564.6140  482.5560 O.co2     1 GDP901      0.0000 
      9 O5'       587.7500  564.8360  481.6480 O.3       1 GDP901      0.0000 
     10 C5'       588.4070  563.5750  481.3150 C.3       1 GDP901      0.0000 
     11 C4'       589.0380  562.8980  482.4350 C.3       1 GDP901      0.0000 
     12 O4'       587.9850  562.5090  483.4040 O.3       1 GDP901      0.0000 
     13 C3'       589.6780  561.5020  482.1000 C.3       1 GDP901      0.0000 
     14 O3'       590.9080  561.4210  482.9090 O.3       1 GDP901      0.0000 
     15 C2'       588.7210  560.3770  482.5630 C.3       1 GDP901      0.0000 
     16 O2'       589.2710  559.1350  483.0300 O.3       1 GDP901      0.0000 
     17 C1'       587.9310  561.0430  483.6890 C.3       1 GDP901      0.0000 
     18 N9        586.5220  560.6570  483.7570 N.pl3     1 GDP901      0.0000 
     19 C8        585.5790  561.1300  482.6880 C.2       1 GDP901      0.0000 
     20 N7        584.4670  560.4950  483.2700 N.2       1 GDP901      0.0000 
     21 C5        584.5940  559.7910  484.3870 C.2       1 GDP901      0.0000 
     22 C6        583.9380  558.9960  485.3530 C.2       1 GDP901      0.0000 
     23 O6        582.6170  558.8240  485.1730 O.2       1 GDP901      0.0000 
     24 N1        584.5350  558.4440  486.4300 N.am      1 GDP901      0.0000 
     25 C2        585.9950  558.6600  486.6140 C.2       1 GDP901      0.0000 
     26 N2        586.3630  558.0210  487.7040 N.pl3     1 GDP901      0.0000 
     27 N3        586.6500  559.3500  485.7750 N.2       1 GDP901      0.0000 
     28 C4        586.0040  559.9090  484.7340 C.2       1 GDP901      0.0000 
@<TRIPOS>BOND
     1    1    2 ar   
     2    1    3 ar   
     3    1    4 ar   
     4    1    5 1    
     5    5    6 1    
     6    6    7 ar   
     7    6    8 ar   
     8    6    9 1    
     9    9   10 1    
    10   10   11 1    
    11   11   12 1    
    12   11   13 1    
    13   12   17 1    
    14   13   14 1    
    15   13   15 1    
    16   15   16 1    
    17   15   17 1    
    18   17   18 1    
    19   18   19 1    
    20   18   28 1    
    21   19   20 2    
    22   20   21 1    
    23   21   22 1    
    24   21   28 2    
    25   22   23 2    
    26   22   24 am   
    27   24   25 1    
    28   25   26 1    
    29   25   27 2    
    30   27   28 1    
@<TRIPOS>SUBSTRUCTURE
     1 GDP901      1 GROUP   
@<TRIPOS>SET
ATOM$ORANGE STATIC     ATOMS   COLORGROUP SYSTEM 
20 10 10 11 11 13 13 15 15 17 17 19 19 21 21 22 22 25 \
25 28 28 

