#    Name: 5xxt_3_GTP
#    Modification time : Fri May 22 19:13:03 2020

@<TRIPOS>MOLECULE
5xxt_3_GTP
   32    34     1     0     1
SMALL
NO_CHARGES


@<TRIPOS>ATOM
      1 PG        543.1790  600.9330  511.4530 P.3       1 GTP501      0.0000 
      2 O1G       542.7700  599.6550  510.7530 O.co2     1 GTP501      0.0000 
      3 O2G       542.2390  602.1040  511.1360 O.co2     1 GTP501      0.0000 
      4 O3G       544.5480  601.4310  510.9990 O.co2     1 GTP501      0.0000 
      5 O3B       543.1880  600.5080  513.0550 O.3       1 GTP501      0.0000 
      6 PB        544.0680  599.2910  513.7340 P.3       1 GTP501      0.0000 
      7 O1B       543.2160  598.1470  514.0310 O.co2     1 GTP501      0.0000 
      8 O2B       544.8390  599.9380  514.8750 O.co2     1 GTP501      0.0000 
      9 O3A       545.1560  598.9790  512.7050 O.3       1 GTP501      0.0000 
     10 PA        546.1600  597.8530  512.4840 P.3       1 GTP501      0.0000 
     11 O1A       546.9100  598.1600  511.2320 O.co2     1 GTP501      0.0000 
     12 O2A       545.5170  596.5260  512.5380 O.co2     1 GTP501      0.0000 
     13 O5'       547.2220  598.0430  513.7260 O.3       1 GTP501      0.0000 
     14 C5'       548.2600  597.0800  513.7160 C.3       1 GTP501      0.0000 
     15 C4'       549.2710  597.1910  514.8100 C.3       1 GTP501      0.0000 
     16 O4'       548.8430  596.4500  515.9810 O.3       1 GTP501      0.0000 
     17 C3'       550.5490  596.5280  514.3480 C.3       1 GTP501      0.0000 
     18 O3'       551.6510  597.0830  515.0300 O.3       1 GTP501      0.0000 
     19 C2'       550.2920  595.0710  514.6970 C.3       1 GTP501      0.0000 
     20 O2'       551.5400  594.4030  514.9000 O.3       1 GTP501      0.0000 
     21 C1'       549.4540  595.1490  515.9810 C.3       1 GTP501      0.0000 
     22 N9        548.3860  594.1430  516.1080 N.pl3     1 GTP501      0.0000 
     23 C8        547.3450  593.9270  515.2370 C.2       1 GTP501      0.0000 
     24 N7        546.5470  592.9620  515.6070 N.2       1 GTP501      0.0000 
     25 C5        547.0920  592.5010  516.7800 C.2       1 GTP501      0.0000 
     26 C6        546.6820  591.4710  517.6250 C.2       1 GTP501      0.0000 
     27 O6        545.6930  590.7550  517.4760 O.2       1 GTP501      0.0000 
     28 N1        547.5170  591.3030  518.7520 N.am      1 GTP501      0.0000 
     29 C2        548.6400  592.0540  519.0120 C.2       1 GTP501      0.0000 
     30 N2        549.3020  591.7580  520.0930 N.pl3     1 GTP501      0.0000 
     31 N3        549.0530  593.0370  518.2120 N.2       1 GTP501      0.0000 
     32 C4        548.2420  593.2200  517.1190 C.2       1 GTP501      0.0000 
@<TRIPOS>BOND
     1    1    2 ar   
     2    1    3 ar   
     3    1    4 ar   
     4    1    5 1    
     5    5    6 1    
     6    6    7 ar   
     7    6    8 ar   
     8    6    9 1    
     9    9   10 1    
    10   10   11 ar   
    11   10   12 ar   
    12   10   13 1    
    13   13   14 1    
    14   14   15 1    
    15   15   16 1    
    16   15   17 1    
    17   16   21 1    
    18   17   18 1    
    19   17   19 1    
    20   19   20 1    
    21   19   21 1    
    22   21   22 1    
    23   22   23 1    
    24   22   32 1    
    25   23   24 2    
    26   24   25 1    
    27   25   26 1    
    28   25   32 2    
    29   26   27 2    
    30   26   28 am   
    31   28   29 1    
    32   29   30 1    
    33   29   31 2    
    34   31   32 1    
@<TRIPOS>SUBSTRUCTURE
     1 GTP501      1 GROUP   
@<TRIPOS>SET
ATOM$ORANGE STATIC     ATOMS   COLORGROUP SYSTEM 
20 14 14 15 15 17 17 19 19 21 21 23 23 25 25 26 26 29 \
29 32 32 

