#    Name: 5xxt_11_GTP_CAVITY_N1_6
#    Modification time : Fri May 22 19:15:02 2020

@<TRIPOS>MOLECULE
5xxt_11_GTP_CAVITY_N1_6
  100     0     7     0     0
SMALL
NO_CHARGES


@<TRIPOS>ATOM
      1 OG        608.7500  514.6100  447.7500 O.3       1 SER1        0.0000 
      2 OG        610.6000  515.5100  447.2400 O.3       1 SER1        0.0000 
      3 OG        608.8800  510.0000  448.8700 O.3       1 SER1        0.0000 
      4 OG        606.6900  512.6800  450.1100 O.3       1 SER1        0.0000 
      5 OG        608.1100  512.2100  450.0100 O.3       1 SER1        0.0000 
      6 OG        610.8200  515.8700  448.6800 O.3       1 SER1        0.0000 
      7 OG        610.3900  514.4900  449.0900 O.3       1 SER1        0.0000 
      8 OG        609.9600  513.1100  449.5000 O.3       1 SER1        0.0000 
      9 OG        609.5300  511.7300  449.9000 O.3       1 SER1        0.0000 
     10 OG        609.1000  510.3500  450.3100 O.3       1 SER1        0.0000 
     11 OG        611.8100  514.0100  448.9900 O.3       1 SER1        0.0000 
     12 OG        611.3800  512.6400  449.3900 O.3       1 SER1        0.0000 
     13 OG        606.9100  513.0400  451.5500 O.3       1 SER1        0.0000 
     14 OG        609.1900  515.3200  450.6300 O.3       1 SER1        0.0000 
     15 OG        608.3300  512.5600  451.4500 O.3       1 SER1        0.0000 
     16 OG        610.6100  514.8500  450.5300 O.3       1 SER1        0.0000 
     17 OG        607.8700  520.7600  451.0500 O.3       1 SER1        0.0000 
     18 OG        609.8400  517.0500  451.6600 O.3       1 SER1        0.0000 
     19 OG        608.9800  514.3000  452.4800 O.3       1 SER1        0.0000 
     20 O         607.7600  516.4600  447.4400 O.2       2 ALA2        0.0000 
     21 O         609.1800  515.9800  447.3400 O.2       2 ALA2        0.0000 
     22 O         610.7300  510.9000  448.3600 O.2       2 ALA2        0.0000 
     23 N         610.3000  509.5200  448.7700 N.am      2 ALA2        0.0000 
     24 N         606.5600  517.2900  448.9900 N.am      2 ALA2        0.0000 
     25 N         610.9500  511.2600  449.8000 N.am      2 ALA2        0.0000 
     26 N         610.5200  509.8800  450.2100 N.am      2 ALA2        0.0000 
     27 N         610.0900  508.5000  450.6200 N.am      2 ALA2        0.0000 
     28 O         602.6500  514.4600  451.8500 O.2       2 ALA2        0.0000 
     29 O         605.7900  519.4900  450.1200 O.2       2 ALA2        0.0000 
     30 O         604.5000  515.3600  451.3400 O.2       2 ALA2        0.0000 
     31 O         604.0700  513.9800  451.7500 O.2       2 ALA2        0.0000 
     32 O         607.2100  519.0200  450.0200 O.2       2 ALA2        0.0000 
     33 O         606.7800  517.6400  450.4300 O.2       2 ALA2        0.0000 
     34 O         607.9000  511.1800  451.8500 O.2       2 ALA2        0.0000 
     35 O         611.0400  516.2200  450.1200 O.2       2 ALA2        0.0000 
     36 O         609.3200  510.7100  451.7500 O.2       2 ALA2        0.0000 
     37 O         608.8900  509.3300  452.1600 O.2       2 ALA2        0.0000 
     38 N         610.7400  510.2400  451.6500 N.am      2 ALA2        0.0000 
     39 N         612.5900  511.1400  451.1400 N.am      2 ALA2        0.0000 
     40 N         612.1600  509.7600  451.5500 N.am      2 ALA2        0.0000 
     41 O         602.4400  513.4400  453.7000 O.2       2 ALA2        0.0000 
     42 O         607.4300  519.3800  451.4600 O.2       2 ALA2        0.0000 
     43 O         607.1300  513.3900  452.9900 O.2       2 ALA2        0.0000 
     44 O         606.7000  512.0200  453.4000 O.2       2 ALA2        0.0000 
     45 O         608.5500  512.9200  452.8900 O.2       2 ALA2        0.0000 
     46 O         609.5400  511.0700  453.1900 O.2       2 ALA2        0.0000 
     47 O         610.9600  510.5900  453.0900 O.2       2 ALA2        0.0000 
     48 O         610.5300  509.2200  453.5000 O.2       2 ALA2        0.0000 
     49 O         604.0900  513.3200  455.0400 O.2       2 ALA2        0.0000 
     50 N         605.0700  511.4700  455.3400 N.am      2 ALA2        0.0000 
     51 O         606.9200  512.3700  454.8300 O.2       2 ALA2        0.0000 
     52 OD1       607.4200  520.0400  448.1700 O.co2     3 ASP3        0.0000 
     53 OD1       606.9900  518.6600  448.5800 O.co2     3 ASP3        0.0000 
     54 OD1       608.4100  518.1900  448.4800 O.co2     3 ASP3        0.0000 
     55 OD1       609.8300  517.7200  448.3800 O.co2     3 ASP3        0.0000 
     56 OD1       607.6400  520.4000  449.6100 O.co2     3 ASP3        0.0000 
     57 NZ        608.6700  508.9800  450.7200 N.4       4 LYS4        0.0000 
     58 NZ        612.0300  514.3700  450.4300 N.4       4 LYS4        0.0000 
     59 NZ        611.6000  512.9900  450.8300 N.4       4 LYS4        0.0000 
     60 NZ        611.8200  513.3500  452.2700 N.4       4 LYS4        0.0000 
     61 CZ        605.4900  513.5100  451.6500 C.ar      5 PHE5        0.0000 
     62 CZ        603.8600  512.9600  453.6000 C.ar      5 PHE5        0.0000 
     63 CZ        605.2800  512.4900  453.5000 C.ar      5 PHE5        0.0000 
     64 CA        609.3100  511.3800  448.4600 C.3       6 GLY6        0.0000 
     65 CA        606.1300  515.9100  449.3900 C.3       6 GLY6        0.0000 
     66 CA        607.5500  515.4400  449.2900 C.3       6 GLY6        0.0000 
     67 CA        608.9700  514.9600  449.1900 C.3       6 GLY6        0.0000 
     68 CA        608.5400  513.5800  449.6000 C.3       6 GLY6        0.0000 
     69 CA        612.3700  510.7900  449.7000 C.3       6 GLY6        0.0000 
     70 CA        606.3500  516.2700  450.8300 C.3       6 GLY6        0.0000 
     71 CA        605.9200  514.8900  451.2400 C.3       6 GLY6        0.0000 
     72 CA        609.0600  519.9300  449.5100 C.3       6 GLY6        0.0000 
     73 CA        608.6300  518.5500  449.9200 C.3       6 GLY6        0.0000 
     74 CA        607.3400  514.4100  451.1400 C.3       6 GLY6        0.0000 
     75 CA        610.0500  518.0700  449.8100 C.3       6 GLY6        0.0000 
     76 CA        609.6200  516.7000  450.2200 C.3       6 GLY6        0.0000 
     77 CA        610.3100  508.8600  452.0600 C.3       6 GLY6        0.0000 
     78 CA        602.8700  514.8100  453.2900 C.3       6 GLY6        0.0000 
     79 CA        604.2900  514.3400  453.1900 C.3       6 GLY6        0.0000 
     80 CA        607.0000  518.0000  451.8700 C.3       6 GLY6        0.0000 
     81 CA        605.7100  513.8700  453.0900 C.3       6 GLY6        0.0000 
     82 CA        609.2800  520.2800  450.9500 C.3       6 GLY6        0.0000 
     83 CA        608.8500  518.9000  451.3600 C.3       6 GLY6        0.0000 
     84 CA        608.4200  517.5300  451.7600 C.3       6 GLY6        0.0000 
     85 CA        607.9900  516.1500  452.1700 C.3       6 GLY6        0.0000 
     86 CA        607.5600  514.7700  452.5800 C.3       6 GLY6        0.0000 
     87 CA        609.9700  512.4500  452.7800 C.3       6 GLY6        0.0000 
     88 CA        611.3900  511.9700  452.6800 C.3       6 GLY6        0.0000 
     89 CA        612.8100  511.5000  452.5800 C.3       6 GLY6        0.0000 
     90 CA        604.5200  514.7000  454.6300 C.3       6 GLY6        0.0000 
     91 CA        605.9400  514.2200  454.5300 C.3       6 GLY6        0.0000 
     92 CA        605.5000  512.8500  454.9400 C.3       6 GLY6        0.0000 
     93 DU        607.9800  516.8100  448.8800 H         7 CUB7        0.0000 
     94 DU        609.4000  516.3400  448.7800 H         7 CUB7        0.0000 
     95 DU        608.2000  517.1700  450.3200 H         7 CUB7        0.0000 
     96 DU        607.7700  515.7900  450.7300 H         7 CUB7        0.0000 
     97 DU        608.7600  513.9400  451.0400 H         7 CUB7        0.0000 
     98 DU        610.1800  513.4700  450.9400 H         7 CUB7        0.0000 
     99 DU        609.7500  512.0900  451.3400 H         7 CUB7        0.0000 
    100 DU        611.1700  511.6200  451.2400 H         7 CUB7        0.0000 
@<TRIPOS>BOND
@<TRIPOS>SUBSTRUCTURE
     1 SER1        1 GROUP   
     2 ALA2       20 GROUP   
     3 ASP3       52 GROUP   
     4 LYS4       57 GROUP   
     5 PHE5       61 GROUP   
     6 GLY6       64 GROUP   
     7 CUB7       93 GROUP   
@<TRIPOS>SET

