#    Name: 5xxt_16_GDP
#    Modification time : Fri May 22 19:16:14 2020

@<TRIPOS>MOLECULE
5xxt_16_GDP
   28    30     1     0     1
SMALL
NO_CHARGES


@<TRIPOS>ATOM
      1 PB        585.5820  566.9300  562.2250 P.3       1 GDP901      0.0000 
      2 O1B       585.9540  567.8090  560.8980 O.co2     1 GDP901      0.0000 
      3 O2B       584.4900  566.0740  562.0520 O.co2     1 GDP901      0.0000 
      4 O3B       585.5130  567.8440  563.3810 O.co2     1 GDP901      0.0000 
      5 O3A       586.7980  565.9680  562.5050 O.3       1 GDP901      0.0000 
      6 PA        586.8480  564.3010  562.6060 P.3       1 GDP901      0.0000 
      7 O1A       586.3510  563.7800  561.2670 O.co2     1 GDP901      0.0000 
      8 O2A       586.0670  563.8620  563.7950 O.co2     1 GDP901      0.0000 
      9 O5'       588.3580  564.0670  562.8920 O.3       1 GDP901      0.0000 
     10 C5'       589.0050  562.8010  562.5610 C.3       1 GDP901      0.0000 
     11 C4'       589.6290  562.1200  563.6820 C.3       1 GDP901      0.0000 
     12 O4'       588.5720  561.7390  564.6500 O.3       1 GDP901      0.0000 
     13 C3'       590.2590  560.7200  563.3510 C.3       1 GDP901      0.0000 
     14 O3'       591.4880  560.6290  564.1620 O.3       1 GDP901      0.0000 
     15 C2'       589.2940  559.6020  563.8110 C.3       1 GDP901      0.0000 
     16 O2'       589.8340  558.3550  564.2820 O.3       1 GDP901      0.0000 
     17 C1'       588.5060  560.2740  564.9350 C.3       1 GDP901      0.0000 
     18 N9        587.0940  559.8970  565.0020 N.pl3     1 GDP901      0.0000 
     19 C8        586.1580  560.3770  563.9300 C.2       1 GDP901      0.0000 
     20 N7        585.0400  559.7510  564.5100 N.2       1 GDP901      0.0000 
     21 C5        585.1590  559.0470  565.6290 C.2       1 GDP901      0.0000 
     22 C6        584.4950  558.2580  566.5930 C.2       1 GDP901      0.0000 
     23 O6        583.1730  558.0940  566.4110 O.2       1 GDP901      0.0000 
     24 N1        585.0860  557.7020  567.6710 N.am      1 GDP901      0.0000 
     25 C2        586.5470  557.9070  567.8590 C.2       1 GDP901      0.0000 
     26 N2        586.9080  557.2660  568.9500 N.pl3     1 GDP901      0.0000 
     27 N3        587.2100  558.5910  567.0200 N.2       1 GDP901      0.0000 
     28 C4        586.5690  559.1540  565.9790 C.2       1 GDP901      0.0000 
@<TRIPOS>BOND
     1    1    2 ar   
     2    1    3 ar   
     3    1    4 ar   
     4    1    5 1    
     5    5    6 1    
     6    6    7 ar   
     7    6    8 ar   
     8    6    9 1    
     9    9   10 1    
    10   10   11 1    
    11   11   12 1    
    12   11   13 1    
    13   12   17 1    
    14   13   14 1    
    15   13   15 1    
    16   15   16 1    
    17   15   17 1    
    18   17   18 1    
    19   18   19 1    
    20   18   28 1    
    21   19   20 2    
    22   20   21 1    
    23   21   22 1    
    24   21   28 2    
    25   22   23 2    
    26   22   24 am   
    27   24   25 1    
    28   25   26 1    
    29   25   27 2    
    30   27   28 1    
@<TRIPOS>SUBSTRUCTURE
     1 GDP901      1 GROUP   
@<TRIPOS>SET
ATOM$ORANGE STATIC     ATOMS   COLORGROUP SYSTEM 
20 10 10 11 11 13 13 15 15 17 17 19 19 21 21 22 22 25 \
25 28 28 

