#    Name: 5xxt_11_GTP
#    Modification time : Fri May 22 19:15:00 2020

@<TRIPOS>MOLECULE
5xxt_11_GTP
   32    34     1     0     1
SMALL
NO_CHARGES


@<TRIPOS>ATOM
      1 PG        608.4710  521.7840  447.5930 P.3       1 GTP501      0.0000 
      2 O1G       607.2160  521.3010  446.8950 O.co2     1 GTP501      0.0000 
      3 O2G       608.7920  523.2510  447.2730 O.co2     1 GTP501      0.0000 
      4 O3G       609.7140  521.0300  447.1400 O.co2     1 GTP501      0.0000 
      5 O3B       608.1470  521.5130  449.1950 O.3       1 GTP501      0.0000 
      6 PB        607.7500  520.0650  449.8770 P.3       1 GTP501      0.0000 
      7 O1B       606.3250  520.0130  450.1760 O.co2     1 GTP501      0.0000 
      8 O2B       608.7380  519.8730  451.0170 O.co2     1 GTP501      0.0000 
      9 O3A       608.1880  519.0220  448.8510 O.3       1 GTP501      0.0000 
     10 PA        607.9390  517.5330  448.6320 P.3       1 GTP501      0.0000 
     11 O1A       608.6470  517.1380  447.3790 O.co2     1 GTP501      0.0000 
     12 O2A       606.5030  517.2010  448.6880 O.co2     1 GTP501      0.0000 
     13 O5'       608.7570  516.8270  449.8730 O.3       1 GTP501      0.0000 
     14 C5'       608.6550  515.4140  449.8660 C.3       1 GTP501      0.0000 
     15 C4'       609.3790  514.6980  450.9600 C.3       1 GTP501      0.0000 
     16 O4'       608.5320  514.5690  452.1320 O.3       1 GTP501      0.0000 
     17 C3'       609.6610  513.2870  450.5000 C.3       1 GTP501      0.0000 
     18 O3'       610.7850  512.7770  451.1820 O.3       1 GTP501      0.0000 
     19 C2'       608.3650  512.5720  450.8510 C.3       1 GTP501      0.0000 
     20 O2'       608.6280  511.1820  451.0550 O.3       1 GTP501      0.0000 
     21 C1'       607.9020  513.2760  452.1340 C.3       1 GTP501      0.0000 
     22 N9        606.4480  513.4780  452.2610 N.pl3     1 GTP501      0.0000 
     23 C8        605.6280  514.1530  451.3920 C.2       1 GTP501      0.0000 
     24 N7        604.3760  514.1690  451.7630 N.2       1 GTP501      0.0000 
     25 C5        604.3600  513.4580  452.9380 C.2       1 GTP501      0.0000 
     26 C6        603.3000  513.1330  453.7840 C.2       1 GTP501      0.0000 
     27 O6        602.1230  513.4530  453.6360 O.2       1 GTP501      0.0000 
     28 N1        603.6940  512.3790  454.9110 N.am      1 GTP501      0.0000 
     29 C2        604.9850  511.9750  455.1710 C.2       1 GTP501      0.0000 
     30 N2        605.1700  511.2740  456.2530 N.pl3     1 GTP501      0.0000 
     31 N3        606.0090  512.2680  454.3700 N.2       1 GTP501      0.0000 
     32 C4        605.6410  513.0130  453.2750 C.2       1 GTP501      0.0000 
@<TRIPOS>BOND
     1    1    2 ar   
     2    1    3 ar   
     3    1    4 ar   
     4    1    5 1    
     5    5    6 1    
     6    6    7 ar   
     7    6    8 ar   
     8    6    9 1    
     9    9   10 1    
    10   10   11 ar   
    11   10   12 ar   
    12   10   13 1    
    13   13   14 1    
    14   14   15 1    
    15   15   16 1    
    16   15   17 1    
    17   16   21 1    
    18   17   18 1    
    19   17   19 1    
    20   19   20 1    
    21   19   21 1    
    22   21   22 1    
    23   22   23 1    
    24   22   32 1    
    25   23   24 2    
    26   24   25 1    
    27   25   26 1    
    28   25   32 2    
    29   26   27 2    
    30   26   28 am   
    31   28   29 1    
    32   29   30 1    
    33   29   31 2    
    34   31   32 1    
@<TRIPOS>SUBSTRUCTURE
     1 GTP501      1 GROUP   
@<TRIPOS>SET
ATOM$ORANGE STATIC     ATOMS   COLORGROUP SYSTEM 
20 14 14 15 15 17 17 19 19 21 21 23 23 25 25 26 26 29 \
29 32 32 

