#    Name: 5xxt_10_GDP
#    Modification time : Fri May 22 19:14:44 2020

@<TRIPOS>MOLECULE
5xxt_10_GDP
   28    30     1     0     1
SMALL
NO_CHARGES


@<TRIPOS>ATOM
      1 PB        584.3900  568.3890  399.7460 P.3       1 GDP901      0.0000 
      2 O1B       584.7440  569.2730  398.4160 O.co2     1 GDP901      0.0000 
      3 O2B       583.3110  567.5150  399.5750 O.co2     1 GDP901      0.0000 
      4 O3B       584.3080  569.3030  400.9010 O.co2     1 GDP901      0.0000 
      5 O3A       585.6210  567.4480  400.0250 O.3       1 GDP901      0.0000 
      6 PA        585.6990  565.7810  400.1280 P.3       1 GDP901      0.0000 
      7 O1A       585.2060  565.2500  398.7910 O.co2     1 GDP901      0.0000 
      8 O2A       584.9260  565.3320  401.3210 O.co2     1 GDP901      0.0000 
      9 O5'       587.2120  565.5710  400.4130 O.3       1 GDP901      0.0000 
     10 C5'       587.8800  564.3180  400.0820 C.3       1 GDP901      0.0000 
     11 C4'       588.5170  563.6480  401.2030 C.3       1 GDP901      0.0000 
     12 O4'       587.4670  563.2520  402.1740 O.3       1 GDP901      0.0000 
     13 C3'       589.1690  562.2570  400.8730 C.3       1 GDP901      0.0000 
     14 O3'       590.4000  562.1880  401.6830 O.3       1 GDP901      0.0000 
     15 C2'       588.2220  561.1240  401.3380 C.3       1 GDP901      0.0000 
     16 O2'       588.7830  559.8880  401.8080 O.3       1 GDP901      0.0000 
     17 C1'       587.4260  561.7860  402.4610 C.3       1 GDP901      0.0000 
     18 N9        586.0200  561.3850  402.5300 N.pl3     1 GDP901      0.0000 
     19 C8        585.0740  561.8490  401.4590 C.2       1 GDP901      0.0000 
     20 N7        583.9670  561.2060  402.0420 N.2       1 GDP901      0.0000 
     21 C5        584.1000  560.5050  403.1620 C.2       1 GDP901      0.0000 
     22 C6        583.4500  559.7070  404.1290 C.2       1 GDP901      0.0000 
     23 O6        582.1310  559.5230  403.9490 O.2       1 GDP901      0.0000 
     24 N1        584.0510  559.1620  405.2060 N.am      1 GDP901      0.0000 
     25 C2        585.5090  559.3910  405.3910 C.2       1 GDP901      0.0000 
     26 N2        585.8830  558.7590  406.4830 N.pl3     1 GDP901      0.0000 
     27 N3        586.1590  560.0850  404.5510 N.2       1 GDP901      0.0000 
     28 C4        585.5080  560.6370  403.5100 C.2       1 GDP901      0.0000 
@<TRIPOS>BOND
     1    1    2 ar   
     2    1    3 ar   
     3    1    4 ar   
     4    1    5 1    
     5    5    6 1    
     6    6    7 ar   
     7    6    8 ar   
     8    6    9 1    
     9    9   10 1    
    10   10   11 1    
    11   11   12 1    
    12   11   13 1    
    13   12   17 1    
    14   13   14 1    
    15   13   15 1    
    16   15   16 1    
    17   15   17 1    
    18   17   18 1    
    19   18   19 1    
    20   18   28 1    
    21   19   20 2    
    22   20   21 1    
    23   21   22 1    
    24   21   28 2    
    25   22   23 2    
    26   22   24 am   
    27   24   25 1    
    28   25   26 1    
    29   25   27 2    
    30   27   28 1    
@<TRIPOS>SUBSTRUCTURE
     1 GDP901      1 GROUP   
@<TRIPOS>SET
ATOM$ORANGE STATIC     ATOMS   COLORGROUP SYSTEM 
20 10 10 11 11 13 13 15 15 17 17 19 19 21 21 22 22 25 \
25 28 28 

