#    Name: 5xxt_7_GTP
#    Modification time : Fri May 22 19:14:09 2020

@<TRIPOS>MOLECULE
5xxt_7_GTP
   32    34     1     0     1
SMALL
NO_CHARGES


@<TRIPOS>ATOM
      1 PG        542.3550  601.2980  430.2080 P.3       1 GTP501      0.0000 
      2 O1G       541.9550  600.0140  429.5110 O.co2     1 GTP501      0.0000 
      3 O2G       541.4050  602.4590  429.8870 O.co2     1 GTP501      0.0000 
      4 O3G       543.7180  601.8050  429.7520 O.co2     1 GTP501      0.0000 
      5 O3B       542.3680  600.8760  431.8100 O.3       1 GTP501      0.0000 
      6 PB        543.2570  599.6670  432.4920 P.3       1 GTP501      0.0000 
      7 O1B       542.4150  598.5180  432.7920 O.co2     1 GTP501      0.0000 
      8 O2B       544.0220  600.3240  433.6310 O.co2     1 GTP501      0.0000 
      9 O3A       544.3460  599.3620  431.4640 O.3       1 GTP501      0.0000 
     10 PA        545.3590  598.2420  431.2440 P.3       1 GTP501      0.0000 
     11 O1A       546.1070  598.5540  429.9920 O.co2     1 GTP501      0.0000 
     12 O2A       544.7290  596.9110  431.3030 O.co2     1 GTP501      0.0000 
     13 O5'       546.4210  598.4460  432.4860 O.3       1 GTP501      0.0000 
     14 C5'       547.4660  597.4900  432.4790 C.3       1 GTP501      0.0000 
     15 C4'       548.4780  597.6120  433.5720 C.3       1 GTP501      0.0000 
     16 O4'       548.0540  596.8700  434.7440 O.3       1 GTP501      0.0000 
     17 C3'       549.7600  596.9580  433.1110 C.3       1 GTP501      0.0000 
     18 O3'       550.8570  597.5230  433.7920 O.3       1 GTP501      0.0000 
     19 C2'       549.5150  595.4990  433.4640 C.3       1 GTP501      0.0000 
     20 O2'       550.7680  594.8420  433.6670 O.3       1 GTP501      0.0000 
     21 C1'       548.6770  595.5750  434.7460 C.3       1 GTP501      0.0000 
     22 N9        547.6160  594.5600  434.8750 N.pl3     1 GTP501      0.0000 
     23 C8        546.5770  594.3350  434.0060 C.2       1 GTP501      0.0000 
     24 N7        545.7880  593.3630  434.3790 N.2       1 GTP501      0.0000 
     25 C5        546.3370  592.9090  435.5530 C.2       1 GTP501      0.0000 
     26 C6        545.9350  591.8780  436.4000 C.2       1 GTP501      0.0000 
     27 O6        544.9500  591.1540  436.2550 O.2       1 GTP501      0.0000 
     28 N1        546.7700  591.7180  437.5280 N.am      1 GTP501      0.0000 
     29 C2        547.8880  592.4800  437.7870 C.2       1 GTP501      0.0000 
     30 N2        548.5530  592.1920  438.8670 N.pl3     1 GTP501      0.0000 
     31 N3        548.2940  593.4650  436.9840 N.2       1 GTP501      0.0000 
     32 C4        547.4820  593.6380  435.8900 C.2       1 GTP501      0.0000 
@<TRIPOS>BOND
     1    1    2 ar   
     2    1    3 ar   
     3    1    4 ar   
     4    1    5 1    
     5    5    6 1    
     6    6    7 ar   
     7    6    8 ar   
     8    6    9 1    
     9    9   10 1    
    10   10   11 ar   
    11   10   12 ar   
    12   10   13 1    
    13   13   14 1    
    14   14   15 1    
    15   15   16 1    
    16   15   17 1    
    17   16   21 1    
    18   17   18 1    
    19   17   19 1    
    20   19   20 1    
    21   19   21 1    
    22   21   22 1    
    23   22   23 1    
    24   22   32 1    
    25   23   24 2    
    26   24   25 1    
    27   25   26 1    
    28   25   32 2    
    29   26   27 2    
    30   26   28 am   
    31   28   29 1    
    32   29   30 1    
    33   29   31 2    
    34   31   32 1    
@<TRIPOS>SUBSTRUCTURE
     1 GTP501      1 GROUP   
@<TRIPOS>SET
ATOM$ORANGE STATIC     ATOMS   COLORGROUP SYSTEM 
20 14 14 15 15 17 17 19 19 21 21 23 23 25 25 26 26 29 \
29 32 32 

