#    Name: 5xxt_5_GTP
#    Modification time : Fri May 22 19:13:36 2020

@<TRIPOS>MOLECULE
5xxt_5_GTP
   32    34     1     0     1
SMALL
NO_CHARGES


@<TRIPOS>ATOM
      1 PG        608.7050  520.9250  528.8370 P.3       1 GTP501      0.0000 
      2 O1G       607.4480  520.4510  528.1360 O.co2     1 GTP501      0.0000 
      3 O2G       609.0380  522.3880  528.5190 O.co2     1 GTP501      0.0000 
      4 O3G       609.9440  520.1610  528.3850 O.co2     1 GTP501      0.0000 
      5 O3B       608.3750  520.6540  530.4390 O.3       1 GTP501      0.0000 
      6 PB        607.9680  519.2080  531.1170 P.3       1 GTP501      0.0000 
      7 O1B       606.5420  519.1660  531.4150 O.co2     1 GTP501      0.0000 
      8 O2B       608.9530  519.0070  532.2590 O.co2     1 GTP501      0.0000 
      9 O3A       608.4000  518.1630  530.0910 O.3       1 GTP501      0.0000 
     10 PA        608.1410  516.6760  529.8690 P.3       1 GTP501      0.0000 
     11 O1A       608.8490  516.2780  528.6180 O.co2     1 GTP501      0.0000 
     12 O2A       606.7020  516.3550  529.9230 O.co2     1 GTP501      0.0000 
     13 O5'       608.9500  515.9620  531.1120 O.3       1 GTP501      0.0000 
     14 C5'       608.8390  514.5500  531.1030 C.3       1 GTP501      0.0000 
     15 C4'       609.5540  513.8270  532.1980 C.3       1 GTP501      0.0000 
     16 O4'       608.7060  513.7040  533.3670 O.3       1 GTP501      0.0000 
     17 C3'       609.8290  512.4140  531.7370 C.3       1 GTP501      0.0000 
     18 O3'       610.9470  511.8960  532.4200 O.3       1 GTP501      0.0000 
     19 C2'       608.5260  511.7100  532.0840 C.3       1 GTP501      0.0000 
     20 O2'       608.7790  510.3170  532.2880 O.3       1 GTP501      0.0000 
     21 C1'       608.0660  512.4150  533.3670 C.3       1 GTP501      0.0000 
     22 N9        606.6130  512.6280  533.4920 N.pl3     1 GTP501      0.0000 
     23 C8        605.8000  513.3090  532.6220 C.2       1 GTP501      0.0000 
     24 N7        604.5480  513.3340  532.9910 N.2       1 GTP501      0.0000 
     25 C5        604.5240  512.6220  534.1630 C.2       1 GTP501      0.0000 
     26 C6        603.4610  512.3030  535.0070 C.2       1 GTP501      0.0000 
     27 O6        602.2850  512.6340  534.8590 O.2       1 GTP501      0.0000 
     28 N1        603.8460  511.5450  536.1360 N.am      1 GTP501      0.0000 
     29 C2        605.1330  511.1330  536.3980 C.2       1 GTP501      0.0000 
     30 N2        605.3120  510.4290  537.4780 N.pl3     1 GTP501      0.0000 
     31 N3        606.1610  511.4190  535.5970 N.2       1 GTP501      0.0000 
     32 C4        605.8010  512.1680  534.5040 C.2       1 GTP501      0.0000 
@<TRIPOS>BOND
     1    1    2 ar   
     2    1    3 ar   
     3    1    4 ar   
     4    1    5 1    
     5    5    6 1    
     6    6    7 ar   
     7    6    8 ar   
     8    6    9 1    
     9    9   10 1    
    10   10   11 ar   
    11   10   12 ar   
    12   10   13 1    
    13   13   14 1    
    14   14   15 1    
    15   15   16 1    
    16   15   17 1    
    17   16   21 1    
    18   17   18 1    
    19   17   19 1    
    20   19   20 1    
    21   19   21 1    
    22   21   22 1    
    23   22   23 1    
    24   22   32 1    
    25   23   24 2    
    26   24   25 1    
    27   25   26 1    
    28   25   32 2    
    29   26   27 2    
    30   26   28 am   
    31   28   29 1    
    32   29   30 1    
    33   29   31 2    
    34   31   32 1    
@<TRIPOS>SUBSTRUCTURE
     1 GTP501      1 GROUP   
@<TRIPOS>SET
ATOM$ORANGE STATIC     ATOMS   COLORGROUP SYSTEM 
20 14 14 15 15 17 17 19 19 21 21 23 23 25 25 26 26 29 \
29 32 32 

