#    Name: 5xxt_9_GTP
#    Modification time : Fri May 22 19:14:35 2020

@<TRIPOS>MOLECULE
5xxt_9_GTP
   32    34     1     0     1
SMALL
NO_CHARGES


@<TRIPOS>ATOM
      1 PG        584.4930  569.1050  438.9050 P.3       1 GTP501      0.0000 
      2 O1G       583.5730  568.1210  438.2080 O.co2     1 GTP501      0.0000 
      3 O2G       584.1420  570.5630  438.5850 O.co2     1 GTP501      0.0000 
      4 O3G       585.9400  568.9680  438.4500 O.co2     1 GTP501      0.0000 
      5 O3B       584.3210  568.7190  440.5080 O.3       1 GTP501      0.0000 
      6 PB        584.5980  567.2450  441.1900 P.3       1 GTP501      0.0000 
      7 O1B       583.3390  566.5740  441.4910 O.co2     1 GTP501      0.0000 
      8 O2B       585.5720  567.5030  442.3280 O.co2     1 GTP501      0.0000 
      9 O3A       585.4450  566.4960  440.1610 O.3       1 GTP501      0.0000 
     10 PA        585.8720  565.0480  439.9420 P.3       1 GTP501      0.0000 
     11 O1A       586.6790  565.0020  438.6890 O.co2     1 GTP501      0.0000 
     12 O2A       584.7250  564.1220  439.9990 O.co2     1 GTP501      0.0000 
     13 O5'       586.9160  564.7680  441.1820 O.3       1 GTP501      0.0000 
     14 C5'       587.4420  563.4540  441.1760 C.3       1 GTP501      0.0000 
     15 C4'       588.4060  563.1240  442.2680 C.3       1 GTP501      0.0000 
     16 O4'       587.7030  562.6400  443.4410 O.3       1 GTP501      0.0000 
     17 C3'       589.2780  561.9780  441.8060 C.3       1 GTP501      0.0000 
     18 O3'       590.5110  562.0100  442.4870 O.3       1 GTP501      0.0000 
     19 C2'       588.4230  560.7710  442.1590 C.3       1 GTP501      0.0000 
     20 O2'       589.2660  559.6350  442.3620 O.3       1 GTP501      0.0000 
     21 C1'       587.7000  561.2020  443.4430 C.3       1 GTP501      0.0000 
     22 N9        586.3060  560.7500  443.5730 N.pl3     1 GTP501      0.0000 
     23 C8        585.2710  560.9980  442.7030 C.2       1 GTP501      0.0000 
     24 N7        584.1380  560.4660  443.0760 N.2       1 GTP501      0.0000 
     25 C5        584.4350  559.8190  444.2490 C.2       1 GTP501      0.0000 
     26 C6        583.6250  559.0640  445.0980 C.2       1 GTP501      0.0000 
     27 O6        582.4260  558.8390  444.9510 O.2       1 GTP501      0.0000 
     28 N1        584.3100  558.5580  446.2240 N.am      1 GTP501      0.0000 
     29 C2        585.6480  558.7580  446.4830 C.2       1 GTP501      0.0000 
     30 N2        586.1220  558.2090  447.5630 N.pl3     1 GTP501      0.0000 
     31 N3        586.4400  559.4680  445.6800 N.2       1 GTP501      0.0000 
     32 C4        585.7840  559.9770  444.5870 C.2       1 GTP501      0.0000 
@<TRIPOS>BOND
     1    1    2 ar   
     2    1    3 ar   
     3    1    4 ar   
     4    1    5 1    
     5    5    6 1    
     6    6    7 ar   
     7    6    8 ar   
     8    6    9 1    
     9    9   10 1    
    10   10   11 ar   
    11   10   12 ar   
    12   10   13 1    
    13   13   14 1    
    14   14   15 1    
    15   15   16 1    
    16   15   17 1    
    17   16   21 1    
    18   17   18 1    
    19   17   19 1    
    20   19   20 1    
    21   19   21 1    
    22   21   22 1    
    23   22   23 1    
    24   22   32 1    
    25   23   24 2    
    26   24   25 1    
    27   25   26 1    
    28   25   32 2    
    29   26   27 2    
    30   26   28 am   
    31   28   29 1    
    32   29   30 1    
    33   29   31 2    
    34   31   32 1    
@<TRIPOS>SUBSTRUCTURE
     1 GTP501      1 GROUP   
@<TRIPOS>SET
ATOM$ORANGE STATIC     ATOMS   COLORGROUP SYSTEM 
20 14 14 15 15 17 17 19 19 21 21 23 23 25 25 26 26 29 \
29 32 32 

