#    Name: 5xxt_13_GTP
#    Modification time : Fri May 22 19:15:26 2020

@<TRIPOS>MOLECULE
5xxt_13_GTP
   32    34     1     0     1
SMALL
NO_CHARGES


@<TRIPOS>ATOM
      1 PG        544.0310  600.4940  592.6660 P.3       1 GTP501      0.0000 
      2 O1G       543.6100  599.2140  591.9710 O.co2     1 GTP501      0.0000 
      3 O2G       543.1000  601.6690  592.3430 O.co2     1 GTP501      0.0000 
      4 O3G       545.4020  600.9770  592.2120 O.co2     1 GTP501      0.0000 
      5 O3B       544.0340  600.0750  594.2700 O.3       1 GTP501      0.0000 
      6 PB        544.9040  598.8520  594.9540 P.3       1 GTP501      0.0000 
      7 O1B       544.0410  597.7160  595.2550 O.co2     1 GTP501      0.0000 
      8 O2B       545.6790  599.4970  596.0930 O.co2     1 GTP501      0.0000 
      9 O3A       545.9880  598.5270  593.9290 O.3       1 GTP501      0.0000 
     10 PA        546.9830  597.3910  593.7110 P.3       1 GTP501      0.0000 
     11 O1A       547.7370  597.6870  592.4590 O.co2     1 GTP501      0.0000 
     12 O2A       546.3300  596.0700  593.7700 O.co2     1 GTP501      0.0000 
     13 O5'       548.0460  597.5780  594.9530 O.3       1 GTP501      0.0000 
     14 C5'       549.0760  596.6050  594.9490 C.3       1 GTP501      0.0000 
     15 C4'       550.0880  596.7130  596.0420 C.3       1 GTP501      0.0000 
     16 O4'       549.6510  595.9800  597.2160 O.3       1 GTP501      0.0000 
     17 C3'       551.3590  596.0380  595.5830 C.3       1 GTP501      0.0000 
     18 O3'       552.4650  596.5850  596.2640 O.3       1 GTP501      0.0000 
     19 C2'       551.0910  594.5830  595.9380 C.3       1 GTP501      0.0000 
     20 O2'       552.3330  593.9060  596.1440 O.3       1 GTP501      0.0000 
     21 C1'       550.2530  594.6740  597.2210 C.3       1 GTP501      0.0000 
     22 N9        549.1760  593.6770  597.3500 N.pl3     1 GTP501      0.0000 
     23 C8        548.1340  593.4670  596.4800 C.2       1 GTP501      0.0000 
     24 N7        547.3280  592.5100  596.8530 N.2       1 GTP501      0.0000 
     25 C5        547.8670  592.0490  598.0280 C.2       1 GTP501      0.0000 
     26 C6        547.4490  591.0250  598.8770 C.2       1 GTP501      0.0000 
     27 O6        546.4530  590.3170  598.7310 O.2       1 GTP501      0.0000 
     28 N1        548.2820  590.8540  600.0050 N.am      1 GTP501      0.0000 
     29 C2        549.4100  591.5980  600.2640 C.2       1 GTP501      0.0000 
     30 N2        550.0700  591.2990  601.3460 N.pl3     1 GTP501      0.0000 
     31 N3        549.8330  592.5740  599.4600 N.2       1 GTP501      0.0000 
     32 C4        549.0250  592.7590  598.3660 C.2       1 GTP501      0.0000 
@<TRIPOS>BOND
     1    1    2 ar   
     2    1    3 ar   
     3    1    4 ar   
     4    1    5 1    
     5    5    6 1    
     6    6    7 ar   
     7    6    8 ar   
     8    6    9 1    
     9    9   10 1    
    10   10   11 ar   
    11   10   12 ar   
    12   10   13 1    
    13   13   14 1    
    14   14   15 1    
    15   15   16 1    
    16   15   17 1    
    17   16   21 1    
    18   17   18 1    
    19   17   19 1    
    20   19   20 1    
    21   19   21 1    
    22   21   22 1    
    23   22   23 1    
    24   22   32 1    
    25   23   24 2    
    26   24   25 1    
    27   25   26 1    
    28   25   32 2    
    29   26   27 2    
    30   26   28 am   
    31   28   29 1    
    32   29   30 1    
    33   29   31 2    
    34   31   32 1    
@<TRIPOS>SUBSTRUCTURE
     1 GTP501      1 GROUP   
@<TRIPOS>SET
ATOM$ORANGE STATIC     ATOMS   COLORGROUP SYSTEM 
20 14 14 15 15 17 17 19 19 21 21 23 23 25 25 26 26 29 \
29 32 32 

