#    Name: 5xxt_6_GDP
#    Modification time : Fri May 22 19:13:53 2020

@<TRIPOS>MOLECULE
5xxt_6_GDP
   28    30     1     0     1
SMALL
NO_CHARGES


@<TRIPOS>ATOM
      1 PB        608.2530  520.3010  489.6700 P.3       1 GDP901      0.0000 
      2 O1B       608.9640  520.9380  488.3430 O.co2     1 GDP901      0.0000 
      3 O2B       606.8990  519.9960  489.4970 O.co2     1 GDP901      0.0000 
      4 O3B       608.5830  521.1550  490.8280 O.co2     1 GDP901      0.0000 
      5 O3A       608.9390  518.9100  489.9490 O.3       1 GDP901      0.0000 
      6 PA        608.2680  517.3810  490.0480 P.3       1 GDP901      0.0000 
      7 O1A       607.5950  517.1270  488.7080 O.co2     1 GDP901      0.0000 
      8 O2A       607.3750  517.3200  491.2380 O.co2     1 GDP901      0.0000 
      9 O5'       609.5330  516.5220  490.3320 O.3       1 GDP901      0.0000 
     10 C5'       609.5740  515.1020  490.0000 C.3       1 GDP901      0.0000 
     11 C4'       609.8460  514.2190  491.1190 C.3       1 GDP901      0.0000 
     12 O4'       608.7280  514.3270  492.0880 O.3       1 GDP901      0.0000 
     13 C3'       609.8150  512.6820  490.7860 C.3       1 GDP901      0.0000 
     14 O3'       610.8860  512.0730  491.5970 O.3       1 GDP901      0.0000 
     15 C2'       608.4640  512.0870  491.2480 C.3       1 GDP901      0.0000 
     16 O2'       608.4170  510.7290  491.7150 O.3       1 GDP901      0.0000 
     17 C1'       608.0400  513.0310  492.3730 C.3       1 GDP901      0.0000 
     18 N9        606.6040  513.2970  492.4400 N.pl3     1 GDP901      0.0000 
     19 C8        605.9620  514.1320  491.3680 C.2       1 GDP901      0.0000 
     20 N7        604.6840  514.0460  491.9490 N.2       1 GDP901      0.0000 
     21 C5        604.4920  513.3570  493.0680 C.2       1 GDP901      0.0000 
     22 C6        603.5530  512.9270  494.0320 C.2       1 GDP901      0.0000 
     23 O6        602.2890  513.3470  493.8520 O.2       1 GDP901      0.0000 
     24 N1        603.8490  512.1710  495.1090 N.am      1 GDP901      0.0000 
     25 C2        605.2570  511.7300  495.2950 C.2       1 GDP901      0.0000 
     26 N2        605.3100  510.9940  496.3860 N.pl3     1 GDP901      0.0000 
     27 N3        606.1480  512.0650  494.4580 N.2       1 GDP901      0.0000 
     28 C4        605.8120  512.8500  493.4170 C.2       1 GDP901      0.0000 
@<TRIPOS>BOND
     1    1    2 ar   
     2    1    3 ar   
     3    1    4 ar   
     4    1    5 1    
     5    5    6 1    
     6    6    7 ar   
     7    6    8 ar   
     8    6    9 1    
     9    9   10 1    
    10   10   11 1    
    11   11   12 1    
    12   11   13 1    
    13   12   17 1    
    14   13   14 1    
    15   13   15 1    
    16   15   16 1    
    17   15   17 1    
    18   17   18 1    
    19   18   19 1    
    20   18   28 1    
    21   19   20 2    
    22   20   21 1    
    23   21   22 1    
    24   21   28 2    
    25   22   23 2    
    26   22   24 am   
    27   24   25 1    
    28   25   26 1    
    29   25   27 2    
    30   27   28 1    
@<TRIPOS>SUBSTRUCTURE
     1 GDP901      1 GROUP   
@<TRIPOS>SET
ATOM$ORANGE STATIC     ATOMS   COLORGROUP SYSTEM 
20 10 10 11 11 13 13 15 15 17 17 19 19 21 21 22 22 25 \
25 28 28 

