#    Name: 5xxt_17_GTP
#    Modification time : Fri May 22 19:16:30 2020

@<TRIPOS>MOLECULE
5xxt_17_GTP
   32    34     1     0     1
SMALL
NO_CHARGES


@<TRIPOS>ATOM
      1 PG        608.9060  519.9640  610.0430 P.3       1 GTP501      0.0000 
      2 O1G       607.6420  519.4980  609.3470 O.co2     1 GTP501      0.0000 
      3 O2G       609.2500  521.4230  609.7210 O.co2     1 GTP501      0.0000 
      4 O3G       610.1360  519.1880  609.5900 O.co2     1 GTP501      0.0000 
      5 O3B       608.5770  519.7000  611.6470 O.3       1 GTP501      0.0000 
      6 PB        608.1590  518.2600  612.3320 P.3       1 GTP501      0.0000 
      7 O1B       606.7330  518.2320  612.6320 O.co2     1 GTP501      0.0000 
      8 O2B       609.1450  518.0540  613.4710 O.co2     1 GTP501      0.0000 
      9 O3A       608.5790  517.2080  611.3070 O.3       1 GTP501      0.0000 
     10 PA        608.3050  515.7240  611.0900 P.3       1 GTP501      0.0000 
     11 O1A       609.0060  515.3160  609.8390 O.co2     1 GTP501      0.0000 
     12 O2A       606.8640  515.4140  611.1480 O.co2     1 GTP501      0.0000 
     13 O5'       609.1120  515.0060  612.3320 O.3       1 GTP501      0.0000 
     14 C5'       608.9880  513.5950  612.3290 C.3       1 GTP501      0.0000 
     15 C4'       609.7000  512.8690  613.4240 C.3       1 GTP501      0.0000 
     16 O4'       608.8530  512.7570  614.5960 O.3       1 GTP501      0.0000 
     17 C3'       609.9590  511.4530  612.9650 C.3       1 GTP501      0.0000 
     18 O3'       611.0750  510.9260  613.6480 O.3       1 GTP501      0.0000 
     19 C2'       608.6540  510.7600  613.3190 C.3       1 GTP501      0.0000 
     20 O2'       608.8920  509.3670  613.5270 O.3       1 GTP501      0.0000 
     21 C1'       608.2020  511.4740  614.6010 C.3       1 GTP501      0.0000 
     22 N9        606.7530  511.7000  614.7300 N.pl3     1 GTP501      0.0000 
     23 C8        605.9420  512.3860  613.8590 C.2       1 GTP501      0.0000 
     24 N7        604.6920  512.4240  614.2310 N.2       1 GTP501      0.0000 
     25 C5        604.6640  511.7150  615.4070 C.2       1 GTP501      0.0000 
     26 C6        603.6010  511.4090  616.2540 C.2       1 GTP501      0.0000 
     27 O6        602.4290  511.7490  616.1090 O.2       1 GTP501      0.0000 
     28 N1        603.9840  510.6500  617.3840 N.am      1 GTP501      0.0000 
     29 C2        605.2670  510.2270  617.6440 C.2       1 GTP501      0.0000 
     30 N2        605.4420  509.5260  618.7260 N.pl3     1 GTP501      0.0000 
     31 N3        606.2940  510.5010  616.8410 N.2       1 GTP501      0.0000 
     32 C4        605.9390  511.2490  615.7450 C.2       1 GTP501      0.0000 
@<TRIPOS>BOND
     1    1    2 ar   
     2    1    3 ar   
     3    1    4 ar   
     4    1    5 1    
     5    5    6 1    
     6    6    7 ar   
     7    6    8 ar   
     8    6    9 1    
     9    9   10 1    
    10   10   11 ar   
    11   10   12 ar   
    12   10   13 1    
    13   13   14 1    
    14   14   15 1    
    15   15   16 1    
    16   15   17 1    
    17   16   21 1    
    18   17   18 1    
    19   17   19 1    
    20   19   20 1    
    21   19   21 1    
    22   21   22 1    
    23   22   23 1    
    24   22   32 1    
    25   23   24 2    
    26   24   25 1    
    27   25   26 1    
    28   25   32 2    
    29   26   27 2    
    30   26   28 am   
    31   28   29 1    
    32   29   30 1    
    33   29   31 2    
    34   31   32 1    
@<TRIPOS>SUBSTRUCTURE
     1 GTP501      1 GROUP   
@<TRIPOS>SET
ATOM$ORANGE STATIC     ATOMS   COLORGROUP SYSTEM 
20 14 14 15 15 17 17 19 19 21 21 23 23 25 25 26 26 29 \
29 32 32 

