#    Name: 5xxt_8_GDP
#    Modification time : Fri May 22 19:14:18 2020

@<TRIPOS>MOLECULE
5xxt_8_GDP
   28    30     1     0     1
SMALL
NO_CHARGES


@<TRIPOS>ATOM
      1 PB        542.5840  600.5910  391.0370 P.3       1 GDP901      0.0000 
      2 O1B       542.5190  601.5400  389.7080 O.co2     1 GDP901      0.0000 
      3 O2B       541.9920  599.3340  390.8680 O.co2     1 GDP901      0.0000 
      4 O3B       542.1120  601.3780  392.1930 O.co2     1 GDP901      0.0000 
      5 O3A       544.1030  600.2780  391.3170 O.3       1 GDP901      0.0000 
      6 PA        544.8960  598.8100  391.4200 P.3       1 GDP901      0.0000 
      7 O1A       544.6830  598.1180  390.0820 O.co2     1 GDP901      0.0000 
      8 O2A       544.3960  598.0700  392.6120 O.co2     1 GDP901      0.0000 
      9 O5'       546.3500  599.2790  391.7030 O.3       1 GDP901      0.0000 
     10 C5'       547.4970  598.4390  391.3730 C.3       1 GDP901      0.0000 
     11 C4'       548.3610  598.1140  392.4930 C.3       1 GDP901      0.0000 
     12 O4'       547.5890  597.3000  393.4640 O.3       1 GDP901      0.0000 
     13 C3'       549.5530  597.1430  392.1620 C.3       1 GDP901      0.0000 
     14 O3'       550.6910  597.6160  392.9710 O.3       1 GDP901      0.0000 
     15 C2'       549.1930  595.7130  392.6270 C.3       1 GDP901      0.0000 
     16 O2'       550.2340  594.8430  393.0970 O.3       1 GDP901      0.0000 
     17 C1'       548.1880  595.9620  393.7530 C.3       1 GDP901      0.0000 
     18 N9        547.0960  594.9920  393.8200 N.pl3     1 GDP901      0.0000 
     19 C8        546.0420  594.9980  392.7500 C.2       1 GDP901      0.0000 
     20 N7        545.3240  593.9370  393.3340 N.2       1 GDP901      0.0000 
     21 C5        545.7500  593.3640  394.4530 C.2       1 GDP901      0.0000 
     22 C6        545.5120  592.3620  395.4200 C.2       1 GDP901      0.0000 
     23 O6        544.4030  591.6230  395.2420 O.2       1 GDP901      0.0000 
     24 N1        546.2910  592.1340  396.4970 N.am      1 GDP901      0.0000 
     25 C2        547.5040  592.9730  396.6820 C.2       1 GDP901      0.0000 
     26 N2        548.1160  592.5650  397.7730 N.pl3     1 GDP901      0.0000 
     27 N3        547.7870  593.8810  395.8420 N.2       1 GDP901      0.0000 
     28 C4        546.9610  594.0940  394.8000 C.2       1 GDP901      0.0000 
@<TRIPOS>BOND
     1    1    2 ar   
     2    1    3 ar   
     3    1    4 ar   
     4    1    5 1    
     5    5    6 1    
     6    6    7 ar   
     7    6    8 ar   
     8    6    9 1    
     9    9   10 1    
    10   10   11 1    
    11   11   12 1    
    12   11   13 1    
    13   12   17 1    
    14   13   14 1    
    15   13   15 1    
    16   15   16 1    
    17   15   17 1    
    18   17   18 1    
    19   18   19 1    
    20   18   28 1    
    21   19   20 2    
    22   20   21 1    
    23   21   22 1    
    24   21   28 2    
    25   22   23 2    
    26   22   24 am   
    27   24   25 1    
    28   25   26 1    
    29   25   27 2    
    30   27   28 1    
@<TRIPOS>SUBSTRUCTURE
     1 GDP901      1 GROUP   
@<TRIPOS>SET
ATOM$ORANGE STATIC     ATOMS   COLORGROUP SYSTEM 
20 10 10 11 11 13 13 15 15 17 17 19 19 21 21 22 22 25 \
25 28 28 

