#    Name: 5xxt_18_GDP
#    Modification time : Fri May 22 19:16:46 2020

@<TRIPOS>MOLECULE
5xxt_18_GDP
   28    30     1     0     1
SMALL
NO_CHARGES


@<TRIPOS>ATOM
      1 PB        608.5060  519.4220  570.9130 P.3       1 GDP901      0.0000 
      2 O1B       609.2250  520.0540  569.5880 O.co2     1 GDP901      0.0000 
      3 O2B       607.1510  519.1260  570.7400 O.co2     1 GDP901      0.0000 
      4 O3B       608.8410  520.2740  572.0720 O.co2     1 GDP901      0.0000 
      5 O3A       609.1820  518.0260  571.1930 O.3       1 GDP901      0.0000 
      6 PA        608.5010  516.5020  571.2920 P.3       1 GDP901      0.0000 
      7 O1A       607.8290  516.2530  569.9510 O.co2     1 GDP901      0.0000 
      8 O2A       607.6060  516.4470  572.4810 O.co2     1 GDP901      0.0000 
      9 O5'       609.7590  515.6350  571.5770 O.3       1 GDP901      0.0000 
     10 C5'       609.7940  514.2150  571.2460 C.3       1 GDP901      0.0000 
     11 C4'       610.0560  513.3290  572.3660 C.3       1 GDP901      0.0000 
     12 O4'       608.9380  513.4460  573.3330 O.3       1 GDP901      0.0000 
     13 C3'       610.0150  511.7940  572.0320 C.3       1 GDP901      0.0000 
     14 O3'       611.0810  511.1770  572.8450 O.3       1 GDP901      0.0000 
     15 C2'       608.6590  511.2080  572.4910 C.3       1 GDP901      0.0000 
     16 O2'       608.6030  509.8500  572.9600 O.3       1 GDP901      0.0000 
     17 C1'       608.2420  512.1540  573.6160 C.3       1 GDP901      0.0000 
     18 N9        606.8060  512.4290  573.6800 N.pl3     1 GDP901      0.0000 
     19 C8        606.1720  513.2700  572.6090 C.2       1 GDP901      0.0000 
     20 N7        604.8920  513.1920  573.1890 N.2       1 GDP901      0.0000 
     21 C5        604.6930  512.5040  574.3060 C.2       1 GDP901      0.0000 
     22 C6        603.7510  512.0810  575.2690 C.2       1 GDP901      0.0000 
     23 O6        602.4900  512.5100  575.0860 O.2       1 GDP901      0.0000 
     24 N1        604.0400  511.3230  576.3460 N.am      1 GDP901      0.0000 
     25 C2        605.4440  510.8710  576.5350 C.2       1 GDP901      0.0000 
     26 N2        605.4890  510.1370  577.6250 N.pl3     1 GDP901      0.0000 
     27 N3        606.3390  511.2010  575.6980 N.2       1 GDP901      0.0000 
     28 C4        606.0090  511.9870  574.6560 C.2       1 GDP901      0.0000 
@<TRIPOS>BOND
     1    1    2 ar   
     2    1    3 ar   
     3    1    4 ar   
     4    1    5 1    
     5    5    6 1    
     6    6    7 ar   
     7    6    8 ar   
     8    6    9 1    
     9    9   10 1    
    10   10   11 1    
    11   11   12 1    
    12   11   13 1    
    13   12   17 1    
    14   13   14 1    
    15   13   15 1    
    16   15   16 1    
    17   15   17 1    
    18   17   18 1    
    19   18   19 1    
    20   18   28 1    
    21   19   20 2    
    22   20   21 1    
    23   21   22 1    
    24   21   28 2    
    25   22   23 2    
    26   22   24 am   
    27   24   25 1    
    28   25   26 1    
    29   25   27 2    
    30   27   28 1    
@<TRIPOS>SUBSTRUCTURE
     1 GDP901      1 GROUP   
@<TRIPOS>SET
ATOM$ORANGE STATIC     ATOMS   COLORGROUP SYSTEM 
20 10 10 11 11 13 13 15 15 17 17 19 19 21 21 22 22 25 \
25 28 28 

