#    Name: 5xxt_4_GDP
#    Modification time : Fri May 22 19:13:20 2020

@<TRIPOS>MOLECULE
5xxt_4_GDP
   28    30     1     0     1
SMALL
NO_CHARGES


@<TRIPOS>ATOM
      1 PB        543.4040  600.1960  472.2920 P.3       1 GDP901      0.0000 
      2 O1B       543.3480  601.1490  470.9650 O.co2     1 GDP901      0.0000 
      3 O2B       542.8020  598.9470  472.1200 O.co2     1 GDP901      0.0000 
      4 O3B       542.9410  600.9860  473.4500 O.co2     1 GDP901      0.0000 
      5 O3A       544.9200  599.8710  472.5710 O.3       1 GDP901      0.0000 
      6 PA        545.7020  598.3970  472.6700 P.3       1 GDP901      0.0000 
      7 O1A       545.4840  597.7090  471.3320 O.co2     1 GDP901      0.0000 
      8 O2A       545.1950  597.6590  473.8610 O.co2     1 GDP901      0.0000 
      9 O5'       547.1610  598.8530  472.9530 O.3       1 GDP901      0.0000 
     10 C5'       548.3000  598.0040  472.6210 C.3       1 GDP901      0.0000 
     11 C4'       549.1620  597.6680  473.7400 C.3       1 GDP901      0.0000 
     12 O4'       548.3820  596.8600  474.7090 O.3       1 GDP901      0.0000 
     13 C3'       550.3460  596.6890  473.4070 C.3       1 GDP901      0.0000 
     14 O3'       551.4890  597.1520  474.2170 O.3       1 GDP901      0.0000 
     15 C2'       549.9730  595.2610  473.8690 C.3       1 GDP901      0.0000 
     16 O2'       551.0080  594.3820  474.3360 O.3       1 GDP901      0.0000 
     17 C1'       548.9720  595.5170  474.9940 C.3       1 GDP901      0.0000 
     18 N9        547.8720  594.5550  475.0620 N.pl3     1 GDP901      0.0000 
     19 C8        546.8180  594.5710  473.9920 C.2       1 GDP901      0.0000 
     20 N7        546.0910  593.5160  474.5740 N.2       1 GDP901      0.0000 
     21 C5        546.5120  592.9380  475.6920 C.2       1 GDP901      0.0000 
     22 C6        546.2650  591.9360  476.6560 C.2       1 GDP901      0.0000 
     23 O6        545.1510  591.2070  476.4780 O.2       1 GDP901      0.0000 
     24 N1        547.0440  591.6990  477.7340 N.am      1 GDP901      0.0000 
     25 C2        548.2640  592.5280  477.9200 C.2       1 GDP901      0.0000 
     26 N2        548.8730  592.1120  479.0090 N.pl3     1 GDP901      0.0000 
     27 N3        548.5550  593.4340  477.0810 N.2       1 GDP901      0.0000 
     28 C4        547.7290  593.6570  476.0400 C.2       1 GDP901      0.0000 
@<TRIPOS>BOND
     1    1    2 ar   
     2    1    3 ar   
     3    1    4 ar   
     4    1    5 1    
     5    5    6 1    
     6    6    7 ar   
     7    6    8 ar   
     8    6    9 1    
     9    9   10 1    
    10   10   11 1    
    11   11   12 1    
    12   11   13 1    
    13   12   17 1    
    14   13   14 1    
    15   13   15 1    
    16   15   16 1    
    17   15   17 1    
    18   17   18 1    
    19   18   19 1    
    20   18   28 1    
    21   19   20 2    
    22   20   21 1    
    23   21   22 1    
    24   21   28 2    
    25   22   23 2    
    26   22   24 am   
    27   24   25 1    
    28   25   26 1    
    29   25   27 2    
    30   27   28 1    
@<TRIPOS>SUBSTRUCTURE
     1 GDP901      1 GROUP   
@<TRIPOS>SET
ATOM$ORANGE STATIC     ATOMS   COLORGROUP SYSTEM 
20 10 10 11 11 13 13 15 15 17 17 19 19 21 21 22 22 25 \
25 28 28 

