#    Name: 5xxt_14_GDP
#    Modification time : Fri May 22 19:15:42 2020

@<TRIPOS>MOLECULE
5xxt_14_GDP
   28    30     1     0     1
SMALL
NO_CHARGES


@<TRIPOS>ATOM
      1 PB        544.2540  599.8230  553.5460 P.3       1 GDP901      0.0000 
      2 O1B       544.2060  600.7770  552.2210 O.co2     1 GDP901      0.0000 
      3 O2B       543.6440  598.5770  553.3720 O.co2     1 GDP901      0.0000 
      4 O3B       543.7950  600.6140  554.7040 O.co2     1 GDP901      0.0000 
      5 O3A       545.7680  599.4850  553.8250 O.3       1 GDP901      0.0000 
      6 PA        546.5390  598.0050  553.9230 P.3       1 GDP901      0.0000 
      7 O1A       546.3160  597.3220  552.5830 O.co2     1 GDP901      0.0000 
      8 O2A       546.0250  597.2690  555.1130 O.co2     1 GDP901      0.0000 
      9 O5'       548.0000  598.4510  554.2100 O.3       1 GDP901      0.0000 
     10 C5'       549.1330  597.5930  553.8770 C.3       1 GDP901      0.0000 
     11 C4'       549.9910  597.2500  554.9960 C.3       1 GDP901      0.0000 
     12 O4'       549.2060  596.4460  555.9650 O.3       1 GDP901      0.0000 
     13 C3'       551.1690  596.2630  554.6630 C.3       1 GDP901      0.0000 
     14 O3'       552.3140  596.7160  555.4750 O.3       1 GDP901      0.0000 
     15 C2'       550.7840  594.8370  555.1230 C.3       1 GDP901      0.0000 
     16 O2'       551.8130  593.9490  555.5910 O.3       1 GDP901      0.0000 
     17 C1'       549.7840  595.0980  556.2480 C.3       1 GDP901      0.0000 
     18 N9        548.6770  594.1450  556.3130 N.pl3     1 GDP901      0.0000 
     19 C8        547.6240  594.1710  555.2420 C.2       1 GDP901      0.0000 
     20 N7        546.8880  593.1190  555.8210 N.2       1 GDP901      0.0000 
     21 C5        547.3040  592.5360  556.9390 C.2       1 GDP901      0.0000 
     22 C6        547.0500  591.5340  557.9020 C.2       1 GDP901      0.0000 
     23 O6        545.9300  590.8140  557.7200 O.2       1 GDP901      0.0000 
     24 N1        547.8250  591.2910  558.9790 N.am      1 GDP901      0.0000 
     25 C2        549.0510  592.1100  559.1670 C.2       1 GDP901      0.0000 
     26 N2        549.6550  591.6880  560.2570 N.pl3     1 GDP901      0.0000 
     27 N3        549.3480  593.0160  558.3300 N.2       1 GDP901      0.0000 
     28 C4        548.5270  593.2450  557.2900 C.2       1 GDP901      0.0000 
@<TRIPOS>BOND
     1    1    2 ar   
     2    1    3 ar   
     3    1    4 ar   
     4    1    5 1    
     5    5    6 1    
     6    6    7 ar   
     7    6    8 ar   
     8    6    9 1    
     9    9   10 1    
    10   10   11 1    
    11   11   12 1    
    12   11   13 1    
    13   12   17 1    
    14   13   14 1    
    15   13   15 1    
    16   15   16 1    
    17   15   17 1    
    18   17   18 1    
    19   18   19 1    
    20   18   28 1    
    21   19   20 2    
    22   20   21 1    
    23   21   22 1    
    24   21   28 2    
    25   22   23 2    
    26   22   24 am   
    27   24   25 1    
    28   25   26 1    
    29   25   27 2    
    30   27   28 1    
@<TRIPOS>SUBSTRUCTURE
     1 GDP901      1 GROUP   
@<TRIPOS>SET
ATOM$ORANGE STATIC     ATOMS   COLORGROUP SYSTEM 
20 10 10 11 11 13 13 15 15 17 17 19 19 21 21 22 22 25 \
25 28 28 

