#    Name: 5xxt_15_GTP
#    Modification time : Fri May 22 19:15:58 2020

@<TRIPOS>MOLECULE
5xxt_15_GTP
   32    34     1     0     1
SMALL
NO_CHARGES


@<TRIPOS>ATOM
      1 PG        585.6650  567.6180  601.3540 P.3       1 GTP501      0.0000 
      2 O1G       584.7290  566.6500  600.6610 O.co2     1 GTP501      0.0000 
      3 O2G       585.3390  569.0830  601.0310 O.co2     1 GTP501      0.0000 
      4 O3G       587.1110  567.4550  600.9000 O.co2     1 GTP501      0.0000 
      5 O3B       585.4860  567.2410  602.9590 O.3       1 GTP501      0.0000 
      6 PB        585.7370  565.7640  603.6440 P.3       1 GTP501      0.0000 
      7 O1B       584.4660  565.1160  603.9480 O.co2     1 GTP501      0.0000 
      8 O2B       586.7160  566.0080  604.7830 O.co2     1 GTP501      0.0000 
      9 O3A       586.5720  564.9970  602.6190 O.3       1 GTP501      0.0000 
     10 PA        586.9720  563.5420  602.4030 P.3       1 GTP501      0.0000 
     11 O1A       587.7800  563.4770  601.1510 O.co2     1 GTP501      0.0000 
     12 O2A       585.8090  562.6360  602.4640 O.co2     1 GTP501      0.0000 
     13 O5'       588.0110  563.2470  603.6450 O.3       1 GTP501      0.0000 
     14 C5'       588.5140  561.9230  603.6420 C.3       1 GTP501      0.0000 
     15 C4'       589.4730  561.5810  604.7370 C.3       1 GTP501      0.0000 
     16 O4'       588.7600  561.1120  605.9100 O.3       1 GTP501      0.0000 
     17 C3'       590.3230  560.4180  604.2780 C.3       1 GTP501      0.0000 
     18 O3'       591.5570  560.4300  604.9590 O.3       1 GTP501      0.0000 
     19 C2'       589.4470  559.2260  604.6340 C.3       1 GTP501      0.0000 
     20 O2'       590.2700  558.0760  604.8400 O.3       1 GTP501      0.0000 
     21 C1'       588.7340  559.6750  605.9170 C.3       1 GTP501      0.0000 
     22 N9        587.3290  559.2460  606.0480 N.pl3     1 GTP501      0.0000 
     23 C8        586.2990  559.5110  605.1780 C.2       1 GTP501      0.0000 
     24 N7        585.1580  559.0000  605.5520 N.2       1 GTP501      0.0000 
     25 C5        585.4430  558.3520  606.7280 C.2       1 GTP501      0.0000 
     26 C6        584.6200  557.6150  607.5770 C.2       1 GTP501      0.0000 
     27 O6        583.4160  557.4100  607.4320 O.2       1 GTP501      0.0000 
     28 N1        585.2960  557.0990  608.7060 N.am      1 GTP501      0.0000 
     29 C2        586.6360  557.2760  608.9640 C.2       1 GTP501      0.0000 
     30 N2        587.1000  556.7230  610.0470 N.pl3     1 GTP501      0.0000 
     31 N3        587.4410  557.9710  608.1590 N.2       1 GTP501      0.0000 
     32 C4        586.7940  558.4880  607.0650 C.2       1 GTP501      0.0000 
@<TRIPOS>BOND
     1    1    2 ar   
     2    1    3 ar   
     3    1    4 ar   
     4    1    5 1    
     5    5    6 1    
     6    6    7 ar   
     7    6    8 ar   
     8    6    9 1    
     9    9   10 1    
    10   10   11 ar   
    11   10   12 ar   
    12   10   13 1    
    13   13   14 1    
    14   14   15 1    
    15   15   16 1    
    16   15   17 1    
    17   16   21 1    
    18   17   18 1    
    19   17   19 1    
    20   19   20 1    
    21   19   21 1    
    22   21   22 1    
    23   22   23 1    
    24   22   32 1    
    25   23   24 2    
    26   24   25 1    
    27   25   26 1    
    28   25   32 2    
    29   26   27 2    
    30   26   28 am   
    31   28   29 1    
    32   29   30 1    
    33   29   31 2    
    34   31   32 1    
@<TRIPOS>SUBSTRUCTURE
     1 GTP501      1 GROUP   
@<TRIPOS>SET
ATOM$ORANGE STATIC     ATOMS   COLORGROUP SYSTEM 
20 14 14 15 15 17 17 19 19 21 21 23 23 25 25 26 26 29 \
29 32 32 

