#    Name: 5xxt_12_GDP
#    Modification time : Fri May 22 19:15:09 2020

@<TRIPOS>MOLECULE
5xxt_12_GDP
   28    30     1     0     1
SMALL
NO_CHARGES


@<TRIPOS>ATOM
      1 PB        608.0400  521.1900  408.4170 P.3       1 GDP901      0.0000 
      2 O1B       608.7470  521.8280  407.0890 O.co2     1 GDP901      0.0000 
      3 O2B       606.6900  520.8720  408.2470 O.co2     1 GDP901      0.0000 
      4 O3B       608.3640  522.0490  409.5720 O.co2     1 GDP901      0.0000 
      5 O3A       608.7400  519.8060  408.6990 O.3       1 GDP901      0.0000 
      6 PA        608.0840  518.2720  408.8020 P.3       1 GDP901      0.0000 
      7 O1A       607.4110  518.0080  407.4650 O.co2     1 GDP901      0.0000 
      8 O2A       607.1910  518.2050  409.9930 O.co2     1 GDP901      0.0000 
      9 O5'       609.3550  517.4250  409.0870 O.3       1 GDP901      0.0000 
     10 C5'       609.4100  516.0040  408.7580 C.3       1 GDP901      0.0000 
     11 C4'       609.6900  515.1250  409.8800 C.3       1 GDP901      0.0000 
     12 O4'       608.5720  515.2250  410.8500 O.3       1 GDP901      0.0000 
     13 C3'       609.6720  513.5890  409.5500 C.3       1 GDP901      0.0000 
     14 O3'       610.7490  512.9910  410.3610 O.3       1 GDP901      0.0000 
     15 C2'       608.3260  512.9820  410.0140 C.3       1 GDP901      0.0000 
     16 O2'       608.2920  511.6250  410.4850 O.3       1 GDP901      0.0000 
     17 C1'       607.8960  513.9250  411.1370 C.3       1 GDP901      0.0000 
     18 N9        606.4560  514.1780  411.2040 N.pl3     1 GDP901      0.0000 
     19 C8        605.8070  515.0050  410.1320 C.2       1 GDP901      0.0000 
     20 N7        604.5300  514.9090  410.7140 N.2       1 GDP901      0.0000 
     21 C5        604.3440  514.2200  411.8330 C.2       1 GDP901      0.0000 
     22 C6        603.4100  513.7860  412.8000 C.2       1 GDP901      0.0000 
     23 O6        602.1420  514.1940  412.6200 O.2       1 GDP901      0.0000 
     24 N1        603.7140  513.0340  413.8780 N.am      1 GDP901      0.0000 
     25 C2        605.1260  512.6050  414.0660 C.2       1 GDP901      0.0000 
     26 N2        605.1840  511.8740  415.1570 N.pl3     1 GDP901      0.0000 
     27 N3        606.0130  512.9470  413.2250 N.2       1 GDP901      0.0000 
     28 C4        605.6690  513.7260  412.1830 C.2       1 GDP901      0.0000 
@<TRIPOS>BOND
     1    1    2 ar   
     2    1    3 ar   
     3    1    4 ar   
     4    1    5 1    
     5    5    6 1    
     6    6    7 ar   
     7    6    8 ar   
     8    6    9 1    
     9    9   10 1    
    10   10   11 1    
    11   11   12 1    
    12   11   13 1    
    13   12   17 1    
    14   13   14 1    
    15   13   15 1    
    16   15   16 1    
    17   15   17 1    
    18   17   18 1    
    19   18   19 1    
    20   18   28 1    
    21   19   20 2    
    22   20   21 1    
    23   21   22 1    
    24   21   28 2    
    25   22   23 2    
    26   22   24 am   
    27   24   25 1    
    28   25   26 1    
    29   25   27 2    
    30   27   28 1    
@<TRIPOS>SUBSTRUCTURE
     1 GDP901      1 GROUP   
@<TRIPOS>SET
ATOM$ORANGE STATIC     ATOMS   COLORGROUP SYSTEM 
20 10 10 11 11 13 13 15 15 17 17 19 19 21 21 22 22 25 \
25 28 28 

