#    Name: 6fl8_4_ADP
#    Modification time : Fri May 22 19:31:44 2020

@<TRIPOS>MOLECULE
6fl8_4_ADP
   39    41     1     0     1
SMALL
NO_CHARGES


@<TRIPOS>ATOM
      1 PB          4.9410   24.9340  -34.6100 P.3       1 ADP502      0.0000 
      2 O1B         4.0490   23.7330  -34.4600 O.co2     1 ADP502      0.0000 
      3 O2B         4.2270   26.2250  -34.3090 O.co2     1 ADP502      0.0000 
      4 O3B         6.3130   24.8200  -33.9790 O.co2     1 ADP502      0.0000 
      5 PA          6.2940   25.9810  -36.8180 P.3       1 ADP502      0.0000 
      6 O1A         5.5450   27.2260  -37.2720 O.co2     1 ADP502      0.0000 
      7 O2A         7.5090   26.0570  -35.9290 O.co2     1 ADP502      0.0000 
      8 O3A         5.2450   24.9600  -36.1710 O.3       1 ADP502      0.0000 
      9 O5'         6.7070   25.1200  -38.1330 O.3       1 ADP502      0.0000 
     10 C5'         7.1660   23.7770  -38.0620 C.3       1 ADP502      0.0000 
     11 C4'         8.2950   23.6150  -39.0740 C.3       1 ADP502      0.0000 
     12 O4'         7.8650   23.9720  -40.3880 O.3       1 ADP502      0.0000 
     13 C3'         9.4610   24.5460  -38.7740 C.3       1 ADP502      0.0000 
     14 O3'        10.3460   23.9920  -37.7960 O.3       1 ADP502      0.0000 
     15 C2'        10.0750   24.7670  -40.1440 C.3       1 ADP502      0.0000 
     16 O2'        11.0220   23.7520  -40.5100 O.3       1 ADP502      0.0000 
     17 C1'         8.8860   24.6920  -41.0760 C.3       1 ADP502      0.0000 
     18 N9          8.4280   26.0610  -41.4020 N.pl3     1 ADP502      0.0000 
     19 C8          7.5610   26.7990  -40.6710 C.2       1 ADP502      0.0000 
     20 N7          7.3420   28.0030  -41.2420 N.2       1 ADP502      0.0000 
     21 C5          8.0930   28.0510  -42.3610 C.ar      1 ADP502      0.0000 
     22 C6          8.3350   29.0400  -43.4330 C.ar      1 ADP502      0.0000 
     23 N6          7.7120   30.2340  -43.3920 N.pl3     1 ADP502      0.0000 
     24 N1          9.1920   28.7090  -44.4280 N.ar      1 ADP502      0.0000 
     25 C2          9.8050   27.5120  -44.4630 C.ar      1 ADP502      0.0000 
     26 N3          9.6180   26.5690  -43.5150 N.ar      1 ADP502      0.0000 
     27 C4          8.8000   26.7730  -42.4600 C.ar      1 ADP502      0.0000 
     28 H5'1        6.3510   23.0890  -38.2960 H         1 ADP502      0.0000 
     29 H5'2        7.5290   23.5570  -37.0560 H         1 ADP502      0.0000 
     30 H4'         8.6500   22.5750  -39.0580 H         1 ADP502      0.0000 
     31 H3'         9.0600   25.5030  -38.4120 H         1 ADP502      0.0000 
     32 HO3'       11.0720   24.6090  -37.6320 H         1 ADP502      0.0000 
     33 H2'        10.5260   25.7680  -40.1950 H         1 ADP502      0.0000 
     34 HO2'       11.7550   23.7520  -39.8790 H         1 ADP502      0.0000 
     35 H1'         9.1780   24.1580  -41.9910 H         1 ADP502      0.0000 
     36 H8          7.0940   26.4630  -39.7540 H         1 ADP502      0.0000 
     37 HN61        7.8740   30.9140  -44.1200 H         1 ADP502      0.0000 
     38 HN62        7.0830   30.4490  -42.6310 H         1 ADP502      0.0000 
     39 H2         10.4770   27.2970  -45.2840 H         1 ADP502      0.0000 
@<TRIPOS>BOND
     1    1    2 ar   
     2    1    3 ar   
     3    1    4 ar   
     4    1    8 1    
     5    5    6 ar   
     6    5    7 ar   
     7    5    8 1    
     8    5    9 1    
     9    9   10 1    
    10   10   11 1    
    11   10   28 1    
    12   10   29 1    
    13   11   12 1    
    14   11   13 1    
    15   11   30 1    
    16   12   17 1    
    17   13   14 1    
    18   13   15 1    
    19   13   31 1    
    20   14   32 1    
    21   15   16 1    
    22   15   17 1    
    23   15   33 1    
    24   16   34 1    
    25   17   18 1    
    26   17   35 1    
    27   18   19 1    
    28   18   27 1    
    29   19   20 2    
    30   19   36 1    
    31   20   21 1    
    32   21   22 ar   
    33   21   27 ar   
    34   22   23 1    
    35   22   24 ar   
    36   23   37 1    
    37   23   38 1    
    38   24   25 ar   
    39   25   26 ar   
    40   25   39 1    
    41   26   27 ar   
@<TRIPOS>SUBSTRUCTURE
     1 ADP502      1 GROUP   
@<TRIPOS>SET
ATOM$ORANGE STATIC     ATOMS   COLORGROUP SYSTEM 
20 10 10 11 11 13 13 15 15 17 17 19 19 21 21 22 22 25 \
25 27 27 

