#    Name: 6fl8_3_ADP
#    Modification time : Fri May 22 19:31:36 2020

@<TRIPOS>MOLECULE
6fl8_3_ADP
   39    41     1     0     1
SMALL
NO_CHARGES


@<TRIPOS>ATOM
      1 PB          0.5690   -7.4450    1.7480 P.3       1 ADP502      0.0000 
      2 O1B        -0.2870   -6.4180    1.0160 O.co2     1 ADP502      0.0000 
      3 O2B         0.1710   -8.8860    1.5670 O.co2     1 ADP502      0.0000 
      4 O3B         2.0530   -7.2420    1.5790 O.co2     1 ADP502      0.0000 
      5 PA          0.6080   -5.7650    4.0650 P.3       1 ADP502      0.0000 
      6 O1A        -0.0150   -4.6510    3.2600 O.co2     1 ADP502      0.0000 
      7 O2A         2.0740   -5.6880    4.4490 O.co2     1 ADP502      0.0000 
      8 O3A         0.2560   -7.1540    3.3170 O.3       1 ADP502      0.0000 
      9 O5'        -0.1930   -5.9040    5.4720 O.3       1 ADP502      0.0000 
     10 C5'        -1.5730   -6.2490    5.5670 C.3       1 ADP502      0.0000 
     11 C4'        -2.2870   -5.3850    6.6220 C.3       1 ADP502      0.0000 
     12 O4'        -1.7700   -5.5430    7.9560 O.3       1 ADP502      0.0000 
     13 C3'        -2.1500   -3.9050    6.3150 C.3       1 ADP502      0.0000 
     14 O3'        -3.1240   -3.5050    5.3610 O.3       1 ADP502      0.0000 
     15 C2'        -2.2730   -3.2460    7.6850 C.3       1 ADP502      0.0000 
     16 O2'        -3.6150   -3.0310    8.1080 O.3       1 ADP502      0.0000 
     17 C1'        -1.6860   -4.2740    8.6290 C.3       1 ADP502      0.0000 
     18 N9         -0.2840   -3.8930    8.8940 N.pl3     1 ADP502      0.0000 
     19 C8          0.7570   -4.1900    8.0990 C.2       1 ADP502      0.0000 
     20 N7          1.9090   -3.7030    8.5960 N.2       1 ADP502      0.0000 
     21 C5          1.5940   -3.0690    9.7370 C.ar      1 ADP502      0.0000 
     22 C6          2.3780   -2.3380   10.7450 C.ar      1 ADP502      0.0000 
     23 N6          3.7260   -2.2370   10.5490 N.pl3     1 ADP502      0.0000 
     24 N1          1.7020   -1.8070   11.7980 N.ar      1 ADP502      0.0000 
     25 C2          0.3610   -1.9550   11.9340 C.ar      1 ADP502      0.0000 
     26 N3         -0.4170   -2.6100   11.0410 N.ar      1 ADP502      0.0000 
     27 C4          0.1490   -3.1850    9.9400 C.ar      1 ADP502      0.0000 
     28 H5'1       -1.6670   -7.3030    5.8360 H         1 ADP502      0.0000 
     29 H5'2       -2.0510   -6.1060    4.5960 H         1 ADP502      0.0000 
     30 H4'        -3.3550   -5.6410    6.6110 H         1 ADP502      0.0000 
     31 H3'        -1.1410   -3.7180    5.9220 H         1 ADP502      0.0000 
     32 HO3'       -3.0250   -2.5610    5.1760 H         1 ADP502      0.0000 
     33 H2'        -1.6830   -2.3190    7.7200 H         1 ADP502      0.0000 
     34 HO2'       -4.0580   -2.4380    7.4860 H         1 ADP502      0.0000 
     35 H1'        -2.2680   -4.2900    9.5610 H         1 ADP502      0.0000 
     36 H8          0.6800   -4.7590    7.1800 H         1 ADP502      0.0000 
     37 HN61        4.2970   -1.7390   11.2170 H         1 ADP502      0.0000 
     38 HN62        4.1510   -2.6550    9.7340 H         1 ADP502      0.0000 
     39 H2         -0.1160   -1.5090   12.7970 H         1 ADP502      0.0000 
@<TRIPOS>BOND
     1    1    2 ar   
     2    1    3 ar   
     3    1    4 ar   
     4    1    8 1    
     5    5    6 ar   
     6    5    7 ar   
     7    5    8 1    
     8    5    9 1    
     9    9   10 1    
    10   10   11 1    
    11   10   28 1    
    12   10   29 1    
    13   11   12 1    
    14   11   13 1    
    15   11   30 1    
    16   12   17 1    
    17   13   14 1    
    18   13   15 1    
    19   13   31 1    
    20   14   32 1    
    21   15   16 1    
    22   15   17 1    
    23   15   33 1    
    24   16   34 1    
    25   17   18 1    
    26   17   35 1    
    27   18   19 1    
    28   18   27 1    
    29   19   20 2    
    30   19   36 1    
    31   20   21 1    
    32   21   22 ar   
    33   21   27 ar   
    34   22   23 1    
    35   22   24 ar   
    36   23   37 1    
    37   23   38 1    
    38   24   25 ar   
    39   25   26 ar   
    40   25   39 1    
    41   26   27 ar   
@<TRIPOS>SUBSTRUCTURE
     1 ADP502      1 GROUP   
@<TRIPOS>SET
ATOM$ORANGE STATIC     ATOMS   COLORGROUP SYSTEM 
20 10 10 11 11 13 13 15 15 17 17 19 19 21 21 22 22 25 \
25 27 27 

