#    Name: 6os9_1_LYS_LYS_PRO_TYR_ILE_LEU
#    Modification time : Fri May 22 19:30:25 2020

@<TRIPOS>MOLECULE
6os9_1_LYS_LYS_PRO_TYR_ILE_LEU
   53    54     6     0     0
SMALL
NO_CHARGES


@<TRIPOS>ATOM
      1 N         120.7380  169.7550  154.2560 N.4       1 LYS8        0.0000 
      2 CA        120.1270  168.4880  154.6270 C.3       1 LYS8        0.0000 
      3 C         120.5180  167.4130  153.6270 C.2       1 LYS8        0.0000 
      4 CB        118.6070  168.6220  154.6990 C.3       1 LYS8        0.0000 
      5 CG        117.9090  167.4600  155.3790 C.3       1 LYS8        0.0000 
      6 CD        116.4050  167.6720  155.4140 C.3       1 LYS8        0.0000 
      7 CE        115.6990  166.5440  156.1430 C.3       1 LYS8        0.0000 
      8 NZ        114.2210  166.6250  156.0020 N.4       1 LYS8        0.0000 
      9 N         121.8210  167.2470  153.4390 N.am      2 LYS9        0.0000 
     10 CA        122.3100  166.2900  152.4600 C.3       2 LYS9        0.0000 
     11 C         121.6750  164.9220  152.6990 C.2       2 LYS9        0.0000 
     12 O         121.5900  164.4690  153.8470 O.2       2 LYS9        0.0000 
     13 CB        123.8330  166.1810  152.5370 C.3       2 LYS9        0.0000 
     14 CG        124.4460  165.2720  151.4910 C.3       2 LYS9        0.0000 
     15 CD        125.9540  165.2730  151.5660 C.3       2 LYS9        0.0000 
     16 CE        126.5430  164.3650  150.5070 C.3       2 LYS9        0.0000 
     17 NZ        128.0280  164.3500  150.5450 N.4       2 LYS9        0.0000 
     18 N         121.2120  164.2440  151.6520 N.am      3 PRO10       0.0000 
     19 CA        120.7650  162.8600  151.8120 C.3       3 PRO10       0.0000 
     20 C         121.9340  161.9370  152.0890 C.2       3 PRO10       0.0000 
     21 O         123.0900  162.2360  151.7870 O.2       3 PRO10       0.0000 
     22 CB        120.1170  162.5360  150.4670 C.3       3 PRO10       0.0000 
     23 CG        120.8000  163.4370  149.5150 C.3       3 PRO10       0.0000 
     24 CD        121.0520  164.7070  150.2650 C.3       3 PRO10       0.0000 
     25 N         121.6090  160.7890  152.6750 N.am      4 TYR11       0.0000 
     26 CA        122.6090  159.8170  153.0770 C.3       4 TYR11       0.0000 
     27 C         122.6160  158.5510  152.2380 C.2       4 TYR11       0.0000 
     28 O         123.6110  157.8250  152.2620 O.2       4 TYR11       0.0000 
     29 CB        122.4160  159.4470  154.5540 C.3       4 TYR11       0.0000 
     30 CG        121.0360  158.9520  154.9220 C.ar      4 TYR11       0.0000 
     31 CD1       120.0640  159.8280  155.3840 C.ar      4 TYR11       0.0000 
     32 CD2       120.7140  157.6100  154.8340 C.ar      4 TYR11       0.0000 
     33 CE1       118.8160  159.3770  155.7330 C.ar      4 TYR11       0.0000 
     34 CE2       119.4730  157.1550  155.1760 C.ar      4 TYR11       0.0000 
     35 CZ        118.5290  158.0400  155.6250 C.ar      4 TYR11       0.0000 
     36 OH        117.2860  157.5740  155.9650 O.3       4 TYR11       0.0000 
     37 N         121.5450  158.2690  151.5130 N.am      5 ILE12       0.0000 
     38 CA        121.4550  157.0630  150.7010 C.3       5 ILE12       0.0000 
     39 C         122.2540  157.2440  149.4190 C.2       5 ILE12       0.0000 
     40 O         122.0720  158.2260  148.6920 O.2       5 ILE12       0.0000 
     41 CB        119.9870  156.7370  150.4000 C.3       5 ILE12       0.0000 
     42 CG1       119.2910  156.2530  151.6630 C.3       5 ILE12       0.0000 
     43 CG2       119.8720  155.7230  149.3050 C.3       5 ILE12       0.0000 
     44 CD1       117.8020  156.1400  151.5200 C.3       5 ILE12       0.0000 
     45 N         123.1510  156.3060  149.1450 N.am      6 LEU13       0.0000 
     46 CA        123.7920  156.2160  147.8420 C.3       6 LEU13       0.0000 
     47 C         123.6000  154.7970  147.3540 C.2       6 LEU13       0.0000 
     48 O         123.2760  153.9260  148.1530 O.2       6 LEU13       0.0000 
     49 CB        125.2710  156.6040  147.9220 C.3       6 LEU13       0.0000 
     50 CG        126.1530  156.7870  146.6770 C.3       6 LEU13       0.0000 
     51 CD1       126.8310  155.5280  146.2010 C.3       6 LEU13       0.0000 
     52 CD2       125.3270  157.3770  145.5590 C.3       6 LEU13       0.0000 
     53 OXT       123.7250  154.4890  146.1730 O.3       6 LEU13       0.0000 
@<TRIPOS>BOND
     1    1    2 1    
     2    2    3 1    
     3    2    4 1    
     4    3    9 am   
     5    4    5 1    
     6    5    6 1    
     7    6    7 1    
     8    7    8 1    
     9    9   10 1    
    10   10   11 1    
    11   10   13 1    
    12   11   12 2    
    13   11   18 am   
    14   13   14 1    
    15   14   15 1    
    16   15   16 1    
    17   16   17 1    
    18   18   19 1    
    19   18   24 1    
    20   19   20 1    
    21   19   22 1    
    22   20   21 2    
    23   20   25 am   
    24   22   23 1    
    25   23   24 1    
    26   25   26 1    
    27   26   27 1    
    28   26   29 1    
    29   27   28 2    
    30   27   37 am   
    31   29   30 1    
    32   30   31 ar   
    33   30   32 ar   
    34   31   33 ar   
    35   32   34 ar   
    36   33   35 ar   
    37   34   35 ar   
    38   35   36 1    
    39   37   38 1    
    40   38   39 1    
    41   38   41 1    
    42   39   40 2    
    43   39   45 am   
    44   41   42 1    
    45   41   43 1    
    46   42   44 1    
    47   45   46 1    
    48   46   47 1    
    49   46   49 1    
    50   47   48 2    
    51   47   53 1    
    52   49   50 1    
    53   50   51 1    
    54   50   52 1    
@<TRIPOS>SUBSTRUCTURE
     1 LYS8        1 RESIDUE 
     2 LYS9        9 RESIDUE 
     3 PRO10      18 RESIDUE 
     4 TYR11      25 RESIDUE 
     5 ILE12      37 RESIDUE 
     6 LEU13      45 RESIDUE 
@<TRIPOS>SET

