#    Name: 6fz5_1_MYA
#    Modification time : Fri May 22 19:25:54 2020

@<TRIPOS>MOLECULE
6fz5_1_MYA
   63    65     1     0     0
SMALL
NO_CHARGES


@<TRIPOS>ATOM
      1 S1         12.6830   17.1470   59.3060 S.3       1 MYA1001     0.0000 
      2 C2         14.4510   17.2000   59.3290 C.3       1 MYA1001     0.0000 
      3 C3         14.8810   18.6330   59.5540 C.3       1 MYA1001     0.0000 
      4 N4         16.3180   18.7870   59.3860 N.am      1 MYA1001     0.0000 
      5 C5         17.1940   18.7210   60.3790 C.2       1 MYA1001     0.0000 
      6 O5         16.8560   18.6000   61.5390 O.2       1 MYA1001     0.0000 
      7 C6         18.6580   18.7760   60.0030 C.3       1 MYA1001     0.0000 
      8 C7         19.4380   19.5470   61.0510 C.3       1 MYA1001     0.0000 
      9 N8         18.9280   20.8900   61.3210 N.am      1 MYA1001     0.0000 
     10 C9         18.9770   21.8750   60.4210 C.2       1 MYA1001     0.0000 
     11 O9         19.4400   21.7090   59.2960 O.2       1 MYA1001     0.0000 
     12 C10        18.4100   23.2190   60.8380 C.3       1 MYA1001     0.0000 
     13 O10        18.5530   23.3140   62.2530 O.3       1 MYA1001     0.0000 
     14 C11        16.9340   23.3780   60.4110 C.3       1 MYA1001     0.0000 
     15 C12        16.2980   24.6090   61.0360 C.3       1 MYA1001     0.0000 
     16 C13        16.0680   22.1810   60.8050 C.3       1 MYA1001     0.0000 
     17 C14        16.8890   23.5290   58.8900 C.3       1 MYA1001     0.0000 
     18 N1A        10.6170   21.5230   60.4350 N.ar      1 MYA1001     0.0000 
     19 O1A        16.3810   29.0080   60.0350 O.co2     1 MYA1001     0.0000 
     20 P1A        15.9340   28.9770   61.4790 P.3       1 MYA1001     0.0000 
     21 C1X        11.3710   26.1650   62.7010 C.3       1 MYA1001     0.0000 
     22 C2A         9.9410   22.6900   60.2980 C.ar      1 MYA1001     0.0000 
     23 O2A        16.2430   30.1160   62.4070 O.co2     1 MYA1001     0.0000 
     24 P2A        17.6740   26.7070   61.7090 P.3       1 MYA1001     0.0000 
     25 C2M        12.2530   17.5330   57.6990 C.2       1 MYA1001     0.0000 
     26 O2M        13.0790   17.5480   56.8080 O.2       1 MYA1001     0.0000 
     27 C2X        11.4660   26.7330   64.1060 C.3       1 MYA1001     0.0000 
     28 O2X        10.3930   26.2190   64.9110 O.3       1 MYA1001     0.0000 
     29 N3A        10.2690   23.8320   60.9720 N.ar      1 MYA1001     0.0000 
     30 O3A        16.3980   27.5860   62.1440 O.3       1 MYA1001     0.0000 
     31 C3M        10.8470   17.9500   57.3110 C.3       1 MYA1001     0.0000 
     32 C3X        11.3930   28.2190   63.7850 C.3       1 MYA1001     0.0000 
     33 O3X        10.0550   28.6050   63.4990 O.3       1 MYA1001     0.0000 
     34 P3X         9.1870   29.3040   64.6390 P.3       1 MYA1001     0.0000 
     35 C4A        11.3270   23.8490   61.8250 C.ar      1 MYA1001     0.0000 
     36 O4A        18.0350   25.8690   62.9400 O.co2     1 MYA1001     0.0000 
     37 C4M        10.7530   19.4800   57.3120 C.3       1 MYA1001     0.0000 
     38 C4X        12.2030   28.3580   62.5140 C.3       1 MYA1001     0.0000 
     39 O4X        12.0700   27.0950   61.8620 O.3       1 MYA1001     0.0000 
     40 C5A        12.1070   22.6120   62.0340 C.ar      1 MYA1001     0.0000 
     41 O5A        18.7380   27.5660   61.0820 O.co2     1 MYA1001     0.0000 
     42 C5M         9.3290   19.9740   57.0280 C.3       1 MYA1001     0.0000 
     43 C5X        13.6650   28.6430   62.8100 C.3       1 MYA1001     0.0000 
     44 O5X        14.3420   28.7600   61.5690 O.3       1 MYA1001     0.0000 
     45 C6A        11.6900   21.4190   61.2640 C.ar      1 MYA1001     0.0000 
     46 N6A        12.3590   20.2540   61.4080 N.pl3     1 MYA1001     0.0000 
     47 O6A        17.0210   25.7600   60.6200 O.3       1 MYA1001     0.0000 
     48 C6M         9.2930   21.4720   56.7900 C.3       1 MYA1001     0.0000 
     49 N7A        13.0830   22.9010   62.9340 N.2       1 MYA1001     0.0000 
     50 O7A         9.4100   28.4660   65.8670 O.co2     1 MYA1001     0.0000 
     51 C7M         7.8790   22.0540   56.7940 C.3       1 MYA1001     0.0000 
     52 C8A        12.9370   24.2070   63.2750 C.2       1 MYA1001     0.0000 
     53 O8A         9.7690   30.6920   64.7660 O.co2     1 MYA1001     0.0000 
     54 C8M         7.1700   21.8090   55.4470 C.3       1 MYA1001     0.0000 
     55 N9A        11.8810   24.7700   62.6110 N.pl3     1 MYA1001     0.0000 
     56 O9A         7.7910   29.1780   64.0690 O.co2     1 MYA1001     0.0000 
     57 C9M         5.7670   22.4000   55.4560 C.3       1 MYA1001     0.0000 
     58 CAM         5.0300   22.0640   54.1510 C.3       1 MYA1001     0.0000 
     59 CBM         5.5530   22.8270   52.9310 C.3       1 MYA1001     0.0000 
     60 CCM         4.8810   22.4760   51.6100 C.3       1 MYA1001     0.0000 
     61 CDM         3.4080   22.8660   51.5640 C.3       1 MYA1001     0.0000 
     62 CEM         2.8580   22.6600   50.1380 C.3       1 MYA1001     0.0000 
     63 CFM         1.3740   22.9050   50.1040 C.3       1 MYA1001     0.0000 
@<TRIPOS>BOND
     1    1    2 1    
     2    1   25 1    
     3    2    3 1    
     4    3    4 1    
     5    4    5 am   
     6    5    6 2    
     7    5    7 1    
     8    7    8 1    
     9    8    9 1    
    10    9   10 am   
    11   10   11 2    
    12   10   12 1    
    13   12   13 1    
    14   12   14 1    
    15   14   15 1    
    16   14   16 1    
    17   14   17 1    
    18   15   47 1    
    19   18   22 ar   
    20   18   45 ar   
    21   19   20 ar   
    22   20   23 ar   
    23   20   30 1    
    24   20   44 1    
    25   21   27 1    
    26   21   39 1    
    27   21   55 1    
    28   22   29 ar   
    29   24   30 1    
    30   24   36 ar   
    31   24   41 ar   
    32   24   47 1    
    33   25   26 2    
    34   25   31 1    
    35   27   28 1    
    36   27   32 1    
    37   29   35 ar   
    38   31   37 1    
    39   32   33 1    
    40   32   38 1    
    41   33   34 1    
    42   34   50 ar   
    43   34   53 ar   
    44   34   56 ar   
    45   35   40 ar   
    46   35   55 1    
    47   37   42 1    
    48   38   39 1    
    49   38   43 1    
    50   40   45 ar   
    51   40   49 1    
    52   42   48 1    
    53   43   44 1    
    54   45   46 1    
    55   48   51 1    
    56   49   52 2    
    57   51   54 1    
    58   52   55 1    
    59   54   57 1    
    60   57   58 1    
    61   58   59 1    
    62   59   60 1    
    63   60   61 1    
    64   61   62 1    
    65   62   63 1    
@<TRIPOS>SUBSTRUCTURE
     1 MYA1001     1 GROUP   
@<TRIPOS>SET

