#    Name: 6fz5_2_MYA
#    Modification time : Fri May 22 19:26:02 2020

@<TRIPOS>MOLECULE
6fz5_2_MYA
   63    65     1     0     0
SMALL
NO_CHARGES


@<TRIPOS>ATOM
      1 S1        -10.7450   10.8840   18.1900 S.3       1 MYA1001     0.0000 
      2 C2         -9.8600   10.8080   16.6570 C.3       1 MYA1001     0.0000 
      3 C3         -9.7760    9.3600   16.1750 C.3       1 MYA1001     0.0000 
      4 N4         -8.9050    9.2400   15.0230 N.am      1 MYA1001     0.0000 
      5 C5         -9.3420    9.2910   13.7480 C.2       1 MYA1001     0.0000 
      6 O5        -10.5280    9.3620   13.4250 O.2       1 MYA1001     0.0000 
      7 C6         -8.2500    9.3200   12.7110 C.3       1 MYA1001     0.0000 
      8 C7         -8.6830    8.6060   11.4300 C.3       1 MYA1001     0.0000 
      9 N8         -9.1320    7.2450   11.6690 N.am      1 MYA1001     0.0000 
     10 C9         -8.3510    6.2570   12.1380 C.2       1 MYA1001     0.0000 
     11 O9         -7.1540    6.3590   12.4060 O.2       1 MYA1001     0.0000 
     12 C10        -9.0490    4.9400   12.3790 C.3       1 MYA1001     0.0000 
     13 O10       -10.2590    4.9090   11.6210 O.3       1 MYA1001     0.0000 
     14 C11        -9.3540    4.7760   13.8870 C.3       1 MYA1001     0.0000 
     15 C12       -10.1580    3.4930   14.1080 C.3       1 MYA1001     0.0000 
     16 C13       -10.1950    5.9380   14.4000 C.3       1 MYA1001     0.0000 
     17 C14        -8.0390    4.6680   14.6800 C.3       1 MYA1001     0.0000 
     18 N1A       -12.5160    6.4230   19.3890 N.ar      1 MYA1001     0.0000 
     19 O1A        -9.2640   -0.7590   14.5010 O.co2     1 MYA1001     0.0000 
     20 P1A       -10.7330   -0.8180   14.1590 P.3       1 MYA1001     0.0000 
     21 C1X       -14.1190    1.9630   17.3950 C.3       1 MYA1001     0.0000 
     22 C2A       -12.7190    5.2170   19.9660 C.ar      1 MYA1001     0.0000 
     23 O2A       -11.2680   -1.9430   13.3230 O.co2     1 MYA1001     0.0000 
     24 P2A       -10.1840    1.4090   12.4910 P.3       1 MYA1001     0.0000 
     25 C2M        -9.5370   10.5000   19.3210 C.2       1 MYA1001     0.0000 
     26 O2M        -8.3370   10.4410   19.0510 O.2       1 MYA1001     0.0000 
     27 C2X       -15.3210    1.4140   16.6570 C.3       1 MYA1001     0.0000 
     28 O2X       -16.5560    1.9080   17.2010 O.3       1 MYA1001     0.0000 
     29 N3A       -13.1440    4.1270   19.2950 N.ar      1 MYA1001     0.0000 
     30 O3A       -11.1830    0.5550   13.4230 O.3       1 MYA1001     0.0000 
     31 C3M        -9.9030   10.1350   20.7350 C.3       1 MYA1001     0.0000 
     32 C3X       -15.0640   -0.0670   16.8460 C.3       1 MYA1001     0.0000 
     33 O3X       -15.5100   -0.4960   18.1200 O.3       1 MYA1001     0.0000 
     34 P3X       -16.9430   -1.1690   18.3240 P.3       1 MYA1001     0.0000 
     35 C4A       -13.4000    4.2160   17.9650 C.ar      1 MYA1001     0.0000 
     36 O4A       -10.9970    2.3140   11.5600 O.co2     1 MYA1001     0.0000 
     37 C4M        -9.8840    8.6050   20.7960 C.3       1 MYA1001     0.0000 
     38 C4X       -13.5480   -0.1920   16.7780 C.3       1 MYA1001     0.0000 
     39 O4X       -13.0260    1.1000   17.0680 O.3       1 MYA1001     0.0000 
     40 C5A       -13.2110    5.4850   17.2530 C.ar      1 MYA1001     0.0000 
     41 O5A        -9.1150    0.5190   11.9030 O.co2     1 MYA1001     0.0000 
     42 C5M       -10.2910    8.1410   22.1790 C.3       1 MYA1001     0.0000 
     43 C5X       -13.0580   -0.6260   15.4030 C.3       1 MYA1001     0.0000 
     44 O5X       -11.6340   -0.7210   15.4830 O.3       1 MYA1001     0.0000 
     45 C6A       -12.7370    6.6180   18.0580 C.ar      1 MYA1001     0.0000 
     46 N6A       -12.5430    7.8220   17.4800 N.pl3     1 MYA1001     0.0000 
     47 O6A        -9.4790    2.3630   13.5630 O.3       1 MYA1001     0.0000 
     48 C6M       -10.0930    6.6380   22.3270 C.3       1 MYA1001     0.0000 
     49 N7A       -13.5410    5.2730   15.9600 N.2       1 MYA1001     0.0000 
     50 O7A       -17.8510   -0.3470   17.4470 O.co2     1 MYA1001     0.0000 
     51 C7M       -10.8280    6.0730   23.5380 C.3       1 MYA1001     0.0000 
     52 C8A       -13.9120    3.9780   15.8430 C.2       1 MYA1001     0.0000 
     53 O8A       -16.7710   -2.5930   17.8530 O.co2     1 MYA1001     0.0000 
     54 C8M       -10.0510    6.2880   24.8340 C.3       1 MYA1001     0.0000 
     55 N9A       -13.8210    3.3550   17.0430 N.pl3     1 MYA1001     0.0000 
     56 O9A       -17.2490   -1.0090   19.7910 O.co2     1 MYA1001     0.0000 
     57 C9M       -10.7610    5.6560   26.0290 C.3       1 MYA1001     0.0000 
     58 CAM       -10.0450    5.9790   27.3560 C.3       1 MYA1001     0.0000 
     59 CBM        -8.8000    5.1340   27.5440 C.3       1 MYA1001     0.0000 
     60 CCM        -8.0010    5.5380   28.7890 C.3       1 MYA1001     0.0000 
     61 CDM        -8.6000    4.9900   30.0710 C.3       1 MYA1001     0.0000 
     62 CEM        -7.7040    5.3260   31.2720 C.3       1 MYA1001     0.0000 
     63 CFM        -8.3840    5.0410   32.5870 C.3       1 MYA1001     0.0000 
@<TRIPOS>BOND
     1    1    2 1    
     2    1   25 1    
     3    2    3 1    
     4    3    4 1    
     5    4    5 am   
     6    5    6 2    
     7    5    7 1    
     8    7    8 1    
     9    8    9 1    
    10    9   10 am   
    11   10   11 2    
    12   10   12 1    
    13   12   13 1    
    14   12   14 1    
    15   14   15 1    
    16   14   16 1    
    17   14   17 1    
    18   15   47 1    
    19   18   22 ar   
    20   18   45 ar   
    21   19   20 ar   
    22   20   23 ar   
    23   20   30 1    
    24   20   44 1    
    25   21   27 1    
    26   21   39 1    
    27   21   55 1    
    28   22   29 ar   
    29   24   30 1    
    30   24   36 ar   
    31   24   41 ar   
    32   24   47 1    
    33   25   26 2    
    34   25   31 1    
    35   27   28 1    
    36   27   32 1    
    37   29   35 ar   
    38   31   37 1    
    39   32   33 1    
    40   32   38 1    
    41   33   34 1    
    42   34   50 ar   
    43   34   53 ar   
    44   34   56 ar   
    45   35   40 ar   
    46   35   55 1    
    47   37   42 1    
    48   38   39 1    
    49   38   43 1    
    50   40   45 ar   
    51   40   49 1    
    52   42   48 1    
    53   43   44 1    
    54   45   46 1    
    55   48   51 1    
    56   49   52 2    
    57   51   54 1    
    58   52   55 1    
    59   54   57 1    
    60   57   58 1    
    61   58   59 1    
    62   59   60 1    
    63   60   61 1    
    64   61   62 1    
    65   62   63 1    
@<TRIPOS>SUBSTRUCTURE
     1 MYA1001     1 GROUP   
@<TRIPOS>SET

