#    Name: 6bxo_1_SAH_CAVITY_N1_ALL
#    Modification time : Fri May 22 19:36:18 2020

@<TRIPOS>MOLECULE
6bxo_1_SAH_CAVITY_N1_ALL
  100     0     7     0     0
SMALL
NO_CHARGES


@<TRIPOS>ATOM
      1 OG         16.3500   17.5700   55.3200 O.3       1 SER1        0.0000 
      2 O          14.1700   20.3000   42.8100 O.2       2 ALA2        0.0000 
      3 N          12.9500   20.5900   44.5200 N.am      2 ALA2        0.0000 
      4 O          13.5900   19.8600   46.4100 O.2       2 ALA2        0.0000 
      5 O          12.8100   18.8100   48.6500 O.2       2 ALA2        0.0000 
      6 N          14.2300   19.1400   48.3000 N.am      2 ALA2        0.0000 
      7 N          15.6500   19.4600   47.9400 N.am      2 ALA2        0.0000 
      8 N          15.2000   12.7600   52.6700 N.am      2 ALA2        0.0000 
      9 N          14.7600   14.0900   52.1400 N.am      2 ALA2        0.0000 
     10 N          15.7400   15.7500   51.2500 N.am      2 ALA2        0.0000 
     11 N          12.4700   16.4300   51.4300 N.am      2 ALA2        0.0000 
     12 N          13.8900   16.7500   51.0700 N.am      2 ALA2        0.0000 
     13 N          15.3100   17.0800   50.7200 N.am      2 ALA2        0.0000 
     14 N          12.0300   17.7600   50.9000 N.am      2 ALA2        0.0000 
     15 N          13.4500   18.0900   50.5400 N.am      2 ALA2        0.0000 
     16 N          14.8700   18.4100   50.1900 N.am      2 ALA2        0.0000 
     17 N          16.2900   18.7400   49.8300 N.am      2 ALA2        0.0000 
     18 N          11.5900   19.1000   50.3700 N.am      2 ALA2        0.0000 
     19 N          13.0100   19.4200   50.0100 N.am      2 ALA2        0.0000 
     20 N          17.2700   20.3900   48.9400 N.am      2 ALA2        0.0000 
     21 N           9.7300   20.1100   50.1900 N.am      2 ALA2        0.0000 
     22 O          11.1500   20.4300   49.8400 O.2       2 ALA2        0.0000 
     23 N          13.5400   14.3700   53.8500 N.am      2 ALA2        0.0000 
     24 N          14.9600   14.7000   53.4900 N.am      2 ALA2        0.0000 
     25 N          13.1100   15.7100   53.3200 N.am      2 ALA2        0.0000 
     26 N          14.5300   16.0300   52.9600 N.am      2 ALA2        0.0000 
     27 N          12.6700   17.0400   52.7900 N.am      2 ALA2        0.0000 
     28 N          10.8100   18.0500   52.6100 N.am      2 ALA2        0.0000 
     29 N          12.2300   18.3700   52.2600 N.am      2 ALA2        0.0000 
     30 N          13.6500   18.7000   51.9000 N.am      2 ALA2        0.0000 
     31 N          15.0700   19.0200   51.5400 N.am      2 ALA2        0.0000 
     32 N          10.3700   19.3800   52.0800 N.am      2 ALA2        0.0000 
     33 N          11.7900   19.7000   51.7200 N.am      2 ALA2        0.0000 
     34 N          13.2100   20.0300   51.3700 N.am      2 ALA2        0.0000 
     35 N          11.3600   21.0400   51.1900 N.am      2 ALA2        0.0000 
     36 O          14.7300   16.6400   54.3200 O.2       2 ALA2        0.0000 
     37 O          14.2900   17.9700   53.7900 O.2       2 ALA2        0.0000 
     38 O          15.7100   18.2900   53.4300 O.2       2 ALA2        0.0000 
     39 N          11.0100   18.6500   53.9700 N.am      2 ALA2        0.0000 
     40 N          12.4300   18.9800   53.6100 N.am      2 ALA2        0.0000 
     41 O          13.8500   19.3000   53.2600 O.2       2 ALA2        0.0000 
     42 N          12.0000   20.3100   53.0800 N.am      2 ALA2        0.0000 
     43 N          13.4200   20.6400   52.7200 N.am      2 ALA2        0.0000 
     44 N          11.5600   21.6400   52.5500 N.am      2 ALA2        0.0000 
     45 O          14.9300   17.2400   55.6800 O.2       2 ALA2        0.0000 
     46 OD1        17.3700   16.6800   52.2500 O.co2     3 ASP3        0.0000 
     47 OD1         9.9400   20.7100   51.5500 O.co2     3 ASP3        0.0000 
     48 OD1        17.5700   17.2800   53.6100 O.co2     3 ASP3        0.0000 
     49 OD1        17.1300   18.6200   53.0700 O.co2     3 ASP3        0.0000 
     50 NZ         18.7300   18.1700   46.4000 N.4       4 LYS4        0.0000 
     51 NZ         18.2900   19.5000   45.8700 N.4       4 LYS4        0.0000 
     52 NZ         18.9300   18.7800   47.7600 N.4       4 LYS4        0.0000 
     53 NZ         18.4900   20.1100   47.2300 N.4       4 LYS4        0.0000 
     54 CZ         14.6100   18.9700   43.3400 C.ar      5 PHE5        0.0000 
     55 CZ         16.0300   19.3000   42.9800 C.ar      5 PHE5        0.0000 
     56 CZ         15.2500   18.2500   45.2300 C.ar      5 PHE5        0.0000 
     57 CZ         16.6700   18.5700   44.8700 C.ar      5 PHE5        0.0000 
     58 CZ         13.3900   19.2600   45.0500 C.ar      5 PHE5        0.0000 
     59 CZ         14.8100   19.5800   44.7000 C.ar      5 PHE5        0.0000 
     60 CZ         15.8900   17.5200   47.1200 C.ar      5 PHE5        0.0000 
     61 CZ         17.3100   17.8400   46.7600 C.ar      5 PHE5        0.0000 
     62 CZ         14.0300   18.5300   46.9400 C.ar      5 PHE5        0.0000 
     63 CZ         15.4500   18.8500   46.5800 C.ar      5 PHE5        0.0000 
     64 CZ         16.9600   15.4600   49.5400 C.ar      5 PHE5        0.0000 
     65 CZ         11.9200   13.4400   52.8500 C.ar      5 PHE5        0.0000 
     66 CZ         15.1700   15.3000   54.8500 C.ar      5 PHE5        0.0000 
     67 CZ         16.5900   15.6300   54.4900 C.ar      5 PHE5        0.0000 
     68 CZ         16.1500   16.9600   53.9600 C.ar      5 PHE5        0.0000 
     69 CA         16.2300   19.9000   44.3400 C.3       6 GLY6        0.0000 
     70 CA         14.3700   20.9100   44.1700 C.3       6 GLY6        0.0000 
     71 CA         16.8700   19.1800   46.2300 C.3       6 GLY6        0.0000 
     72 CA         15.0100   20.1900   46.0500 C.3       6 GLY6        0.0000 
     73 CA         15.1000   16.4700   49.3600 C.3       6 GLY6        0.0000 
     74 CA         16.5300   16.7900   49.0000 C.3       6 GLY6        0.0000 
     75 CA         13.2500   17.4800   49.1900 C.3       6 GLY6        0.0000 
     76 CA         14.6700   17.8000   48.8300 C.3       6 GLY6        0.0000 
     77 CA         16.0900   18.1300   48.4700 C.3       6 GLY6        0.0000 
     78 CA         17.0700   19.7800   47.5800 C.3       6 GLY6        0.0000 
     79 CA         11.0500   16.1100   51.7900 C.3       6 GLY6        0.0000 
     80 CA         18.1500   17.7300   50.0000 C.3       6 GLY6        0.0000 
     81 CA         17.7100   19.0600   49.4700 C.3       6 GLY6        0.0000 
     82 CA         19.1300   19.3800   49.1200 C.3       6 GLY6        0.0000 
     83 CA         11.6800   15.3800   53.6800 C.3       6 GLY6        0.0000 
     84 CA         11.2500   16.7100   53.1400 C.3       6 GLY6        0.0000 
     85 CA         16.9300   18.0100   51.7200 C.3       6 GLY6        0.0000 
     86 CA         18.3500   18.3300   51.3600 C.3       6 GLY6        0.0000 
     87 CA         16.4900   19.3400   51.1900 C.3       6 GLY6        0.0000 
     88 CA         13.3100   16.3100   54.6800 C.3       6 GLY6        0.0000 
     89 CA         12.8700   17.6500   54.1400 C.3       6 GLY6        0.0000 
     90 CA         15.2700   19.6300   52.9000 C.3       6 GLY6        0.0000 
     91 CA         14.8400   20.9600   52.3700 C.3       6 GLY6        0.0000 
     92 DU         17.9500   17.1200   48.6500 H         7 CUB7        0.0000 
     93 DU         17.5100   18.4500   48.1200 H         7 CUB7        0.0000 
     94 DU         17.1600   16.0700   50.8900 H         7 CUB7        0.0000 
     95 DU         16.7300   17.4000   50.3600 H         7 CUB7        0.0000 
     96 DU         15.4000   13.3600   54.0300 H         7 CUB7        0.0000 
     97 DU         16.3800   15.0200   53.1400 H         7 CUB7        0.0000 
     98 DU         15.9500   16.3500   52.6100 H         7 CUB7        0.0000 
     99 DU         14.0900   17.3600   52.4300 H         7 CUB7        0.0000 
    100 DU         15.5100   17.6900   52.0700 H         7 CUB7        0.0000 
@<TRIPOS>BOND
@<TRIPOS>SUBSTRUCTURE
     1 SER1        1 GROUP   
     2 ALA2        2 GROUP   
     3 ASP3       46 GROUP   
     4 LYS4       50 GROUP   
     5 PHE5       54 GROUP   
     6 GLY6       69 GROUP   
     7 CUB7       92 GROUP   
@<TRIPOS>SET

