#    Name: 6bxo_2_SAH
#    Modification time : Fri May 22 19:36:21 2020

@<TRIPOS>MOLECULE
6bxo_2_SAH
   26    28     1     0     0
SMALL
NO_CHARGES


@<TRIPOS>ATOM
      1 N          12.2110   17.9310   18.4350 N.4       1 SAH901      0.0000 
      2 CA         13.3790   17.6470   17.5540 C.3       1 SAH901      0.0000 
      3 CB         14.3480   16.6670   18.2030 C.3       1 SAH901      0.0000 
      4 CG         15.6930   17.2890   18.5230 C.3       1 SAH901      0.0000 
      5 SD         15.9170   17.2500   20.2670 S.3       1 SAH901      0.0000 
      6 C          12.8720   17.0520   16.2780 C.2       1 SAH901      0.0000 
      7 O          13.2990   17.4310   15.1660 O.co2     1 SAH901      0.0000 
      8 OXT        12.0070   16.1610   16.3900 O.co2     1 SAH901      0.0000 
      9 C5'        15.7160   15.6110   20.8450 C.3       1 SAH901      0.0000 
     10 C4'        16.4400   15.5160   22.1780 C.3       1 SAH901      0.0000 
     11 O4'        15.6920   16.1020   23.2660 O.3       1 SAH901      0.0000 
     12 C3'        16.7200   14.0620   22.5300 C.3       1 SAH901      0.0000 
     13 O3'        17.9590   13.6110   21.9870 O.3       1 SAH901      0.0000 
     14 C2'        16.8420   14.0780   24.0190 C.3       1 SAH901      0.0000 
     15 O2'        18.2070   14.3020   24.3780 O.3       1 SAH901      0.0000 
     16 C1'        16.0010   15.2910   24.4110 C.3       1 SAH901      0.0000 
     17 N9         14.7490   14.7750   24.9530 N.pl3     1 SAH901      0.0000 
     18 C8         13.5580   14.6950   24.3020 C.2       1 SAH901      0.0000 
     19 N7         12.6050   14.1870   25.1250 N.2       1 SAH901      0.0000 
     20 C5         13.2130   13.9470   26.3070 C.ar      1 SAH901      0.0000 
     21 C6         12.7680   13.4090   27.6080 C.ar      1 SAH901      0.0000 
     22 N6         11.5040   12.9770   27.8200 N.pl3     1 SAH901      0.0000 
     23 N1         13.7050   13.3520   28.5780 N.ar      1 SAH901      0.0000 
     24 C2         14.9900   13.7480   28.4020 C.ar      1 SAH901      0.0000 
     25 N3         15.4550   14.2510   27.2430 N.ar      1 SAH901      0.0000 
     26 C4         14.6070   14.3430   26.1930 C.ar      1 SAH901      0.0000 
@<TRIPOS>BOND
     1    1    2 1    
     2    2    3 1    
     3    2    6 1    
     4    3    4 1    
     5    4    5 1    
     6    5    9 1    
     7    6    7 ar   
     8    6    8 ar   
     9    9   10 1    
    10   10   11 1    
    11   10   12 1    
    12   11   16 1    
    13   12   13 1    
    14   12   14 1    
    15   14   15 1    
    16   14   16 1    
    17   16   17 1    
    18   17   18 1    
    19   17   26 1    
    20   18   19 2    
    21   19   20 1    
    22   20   21 ar   
    23   20   26 ar   
    24   21   22 1    
    25   21   23 ar   
    26   23   24 ar   
    27   24   25 ar   
    28   25   26 ar   
@<TRIPOS>SUBSTRUCTURE
     1 SAH901      1 GROUP   
@<TRIPOS>SET

