#    Name: 6bxo_2_SAH_CAVITY_N1_4
#    Modification time : Fri May 22 19:36:21 2020

@<TRIPOS>MOLECULE
6bxo_2_SAH_CAVITY_N1_4
  101     0     7     0     0
SMALL
NO_CHARGES


@<TRIPOS>ATOM
      1 OG         12.6100   17.0100   14.6600 O.3       1 SER1        0.0000 
      2 OG         13.5900   18.6700   13.7700 O.3       1 SER1        0.0000 
      3 OG         14.6700   16.6100   16.1900 O.3       1 SER1        0.0000 
      4 OG         12.8100   17.6200   16.0200 O.3       1 SER1        0.0000 
      5 N          10.8400   14.3000   17.8000 N.am      2 ALA2        0.0000 
      6 O          12.2600   14.6300   17.4400 O.2       2 ALA2        0.0000 
      7 O          13.6800   14.9500   17.0800 O.2       2 ALA2        0.0000 
      8 N           8.9800   15.3100   17.6200 N.am      2 ALA2        0.0000 
      9 O          11.8200   15.9600   16.9100 O.2       2 ALA2        0.0000 
     10 O          13.2500   16.2800   16.5500 O.2       2 ALA2        0.0000 
     11 N          12.9000   13.9000   19.3300 N.am      2 ALA2        0.0000 
     12 N           9.1900   15.9200   18.9800 N.am      2 ALA2        0.0000 
     13 N          14.5200   14.8300   20.3300 N.am      2 ALA2        0.0000 
     14 N          11.2500   15.5200   20.5100 N.am      2 ALA2        0.0000 
     15 N          12.6700   15.8400   20.1500 N.am      2 ALA2        0.0000 
     16 N          14.0900   16.1700   19.8000 N.am      2 ALA2        0.0000 
     17 N          10.8100   16.8500   19.9800 N.am      2 ALA2        0.0000 
     18 N          12.2300   17.1700   19.6200 N.am      2 ALA2        0.0000 
     19 N          13.6500   17.5000   19.2600 N.am      2 ALA2        0.0000 
     20 N          15.0700   17.8200   18.9100 N.am      2 ALA2        0.0000 
     21 N          11.7900   18.5100   19.0900 N.am      2 ALA2        0.0000 
     22 N          13.2100   18.8300   18.7300 N.am      2 ALA2        0.0000 
     23 N          14.6300   19.1500   18.3800 N.am      2 ALA2        0.0000 
     24 O          15.6000   12.7700   22.7500 O.2       2 ALA2        0.0000 
     25 N          15.1600   14.1100   22.2100 N.am      2 ALA2        0.0000 
     26 N          11.8900   14.7900   22.4000 N.am      2 ALA2        0.0000 
     27 N          13.3100   15.1200   22.0400 N.am      2 ALA2        0.0000 
     28 N          14.7300   15.4400   21.6800 N.am      2 ALA2        0.0000 
     29 N          11.4500   16.1200   21.8700 N.am      2 ALA2        0.0000 
     30 N          12.8700   16.4500   21.5100 N.am      2 ALA2        0.0000 
     31 N          14.2900   16.7700   21.1500 N.am      2 ALA2        0.0000 
     32 N          13.9500   14.3900   23.9300 N.am      2 ALA2        0.0000 
     33 N          15.3700   14.7100   23.5700 N.am      2 ALA2        0.0000 
     34 O          12.0900   15.4000   23.7500 O.2       2 ALA2        0.0000 
     35 N          15.2200   12.9400   27.7000 N.am      2 ALA2        0.0000 
     36 N          15.4300   13.5500   29.0600 N.am      2 ALA2        0.0000 
     37 OD1        15.1000   15.2700   16.7300 O.co2     3 ASP3        0.0000 
     38 OD1        15.3100   15.8800   18.0800 O.co2     3 ASP3        0.0000 
     39 OD1        14.8700   17.2100   17.5500 O.co2     3 ASP3        0.0000 
     40 OD1        16.2900   17.5400   17.1900 O.co2     3 ASP3        0.0000 
     41 OD1        17.7100   17.8600   16.8400 O.co2     3 ASP3        0.0000 
     42 OD1        17.3700   15.4800   19.6100 O.co2     3 ASP3        0.0000 
     43 OD1        16.9300   16.8100   19.0800 O.co2     3 ASP3        0.0000 
     44 NZ         17.5700   16.0900   20.9700 N.4       4 LYS4        0.0000 
     45 NZ         18.6400   14.0300   23.3900 N.4       4 LYS4        0.0000 
     46 NZ         18.2100   15.3600   22.8600 N.4       4 LYS4        0.0000 
     47 NZ         17.4300   14.3100   25.1000 N.4       4 LYS4        0.0000 
     48 NZ         18.8500   14.6400   24.7500 N.4       4 LYS4        0.0000 
     49 CZ         14.2300   17.9400   15.6600 C.ar      5 PHE5        0.0000 
     50 CZ         15.6500   18.2600   15.3100 C.ar      5 PHE5        0.0000 
     51 CZ         13.7900   19.2700   15.1300 C.ar      5 PHE5        0.0000 
     52 CZ         15.2100   19.6000   14.7700 C.ar      5 PHE5        0.0000 
     53 CZ         12.1400   20.8900   16.3100 C.ar      5 PHE5        0.0000 
     54 CZ         16.3500   16.3700   22.6800 C.ar      5 PHE5        0.0000 
     55 CZ         12.7300   14.6700   25.6400 C.ar      5 PHE5        0.0000 
     56 CZ         14.1500   15.0000   25.2800 C.ar      5 PHE5        0.0000 
     57 CZ         15.5700   15.3200   24.9300 C.ar      5 PHE5        0.0000 
     58 CZ         16.9900   15.6400   24.5700 C.ar      5 PHE5        0.0000 
     59 CZ         16.5500   16.9800   24.0400 C.ar      5 PHE5        0.0000 
     60 CZ         13.3700   13.9500   27.5300 C.ar      5 PHE5        0.0000 
     61 CZ         14.7900   14.2700   27.1700 C.ar      5 PHE5        0.0000 
     62 CA         12.1700   18.3400   14.1300 C.3       6 GLY6        0.0000 
     63 CA         11.2800   12.9700   18.3300 C.3       6 GLY6        0.0000 
     64 CA         12.7000   13.2900   17.9700 C.3       6 GLY6        0.0000 
     65 CA         10.4000   15.6400   17.2600 C.3       6 GLY6        0.0000 
     66 CA         11.3900   17.2900   16.3800 C.3       6 GLY6        0.0000 
     67 CA         12.3700   18.9500   15.4900 C.3       6 GLY6        0.0000 
     68 CA         11.9300   20.2800   14.9600 C.3       6 GLY6        0.0000 
     69 CA         13.3500   20.6100   14.6000 C.3       6 GLY6        0.0000 
     70 CA         14.7800   20.9300   14.2400 C.3       6 GLY6        0.0000 
     71 CA         14.3200   14.2200   18.9700 C.3       6 GLY6        0.0000 
     72 CA         13.8800   15.5600   18.4400 C.3       6 GLY6        0.0000 
     73 CA         11.5900   17.9000   17.7300 C.3       6 GLY6        0.0000 
     74 CA         11.1500   19.2300   17.2000 C.3       6 GLY6        0.0000 
     75 CA         15.9400   15.1600   19.9700 C.3       6 GLY6        0.0000 
     76 CA         10.3700   18.1800   19.4500 C.3       6 GLY6        0.0000 
     77 CA         17.0200   13.1000   22.3900 C.3       6 GLY6        0.0000 
     78 CA         16.5800   14.4300   21.8600 C.3       6 GLY6        0.0000 
     79 CA         15.8000   13.3800   24.1000 C.3       6 GLY6        0.0000 
     80 CA         17.2200   13.7000   23.7500 C.3       6 GLY6        0.0000 
     81 CA         12.5200   14.0700   24.2800 C.3       6 GLY6        0.0000 
     82 CA         13.5100   15.7200   23.4000 C.3       6 GLY6        0.0000 
     83 CA         14.9300   16.0500   23.0400 C.3       6 GLY6        0.0000 
     84 CA         13.1600   13.3400   26.1700 C.3       6 GLY6        0.0000 
     85 CA         14.5800   13.6600   25.8200 C.3       6 GLY6        0.0000 
     86 CA         16.0000   13.9900   25.4600 C.3       6 GLY6        0.0000 
     87 CA         13.8000   12.6200   28.0600 C.3       6 GLY6        0.0000 
     88 DU         11.0400   14.9100   19.1500 H         7 CUB7        0.0000 
     89 DU         12.4600   15.2300   18.8000 H         7 CUB7        0.0000 
     90 DU         10.6100   16.2400   18.6200 H         7 CUB7        0.0000 
     91 DU         12.0300   16.5700   18.2600 H         7 CUB7        0.0000 
     92 DU         13.4500   16.8900   17.9100 H         7 CUB7        0.0000 
     93 DU         13.0100   18.2200   17.3800 H         7 CUB7        0.0000 
     94 DU         14.4300   18.5500   17.0200 H         7 CUB7        0.0000 
     95 DU         15.8500   18.8700   16.6600 H         7 CUB7        0.0000 
     96 DU         12.5700   19.5600   16.8400 H         7 CUB7        0.0000 
     97 DU         15.5100   16.4900   19.4400 H         7 CUB7        0.0000 
     98 DU         16.1500   15.7600   21.3300 H         7 CUB7        0.0000 
     99 DU         15.7100   17.1000   20.8000 H         7 CUB7        0.0000 
    100 DU         17.1300   17.4200   20.4400 H         7 CUB7        0.0000 
    101 DU         16.7900   15.0400   23.2100 H         7 CUB7        0.0000 
@<TRIPOS>BOND
@<TRIPOS>SUBSTRUCTURE
     1 SER1        1 GROUP   
     2 ALA2        5 GROUP   
     3 ASP3       37 GROUP   
     4 LYS4       44 GROUP   
     5 PHE5       49 GROUP   
     6 GLY6       62 GROUP   
     7 CUB7       88 GROUP   
@<TRIPOS>SET

