#    Name: 6bxo_1_SAH
#    Modification time : Fri May 22 19:36:18 2020

@<TRIPOS>MOLECULE
6bxo_1_SAH
   26    28     1     0     0
SMALL
NO_CHARGES


@<TRIPOS>ATOM
      1 N          13.8980   15.9510   52.6610 N.4       1 SAH901      0.0000 
      2 CA         15.0670   15.9340   53.5820 C.3       1 SAH901      0.0000 
      3 CB         16.2720   16.7220   53.0580 C.3       1 SAH901      0.0000 
      4 CG         17.2190   15.9270   52.1830 C.3       1 SAH901      0.0000 
      5 SD         16.7240   16.1950   50.5200 S.3       1 SAH901      0.0000 
      6 C          14.6980   16.5700   54.8770 C.2       1 SAH901      0.0000 
      7 O          14.0460   17.6280   54.8210 O.co2     1 SAH901      0.0000 
      8 OXT        15.0800   16.0550   55.9500 O.co2     1 SAH901      0.0000 
      9 C5'        16.8900   17.9100   50.1080 C.3       1 SAH901      0.0000 
     10 C4'        17.6930   17.9330   48.8170 C.3       1 SAH901      0.0000 
     11 O4'        16.7980   17.4590   47.8280 O.3       1 SAH901      0.0000 
     12 C3'        18.0970   19.3230   48.3560 C.3       1 SAH901      0.0000 
     13 O3'        19.4160   19.6070   48.8080 O.3       1 SAH901      0.0000 
     14 C2'        18.0770   19.1970   46.8540 C.3       1 SAH901      0.0000 
     15 O2'        19.3160   18.6360   46.4180 O.3       1 SAH901      0.0000 
     16 C1'        17.0080   18.1560   46.6060 C.3       1 SAH901      0.0000 
     17 N9         15.7550   18.8040   46.2250 N.pl3     1 SAH901      0.0000 
     18 C8         14.6740   18.9710   47.0090 C.2       1 SAH901      0.0000 
     19 N7         13.7010   19.5660   46.3200 N.2       1 SAH901      0.0000 
     20 C5         14.1410   19.8120   45.0800 C.ar      1 SAH901      0.0000 
     21 C6         13.5970   20.4350   43.8560 C.ar      1 SAH901      0.0000 
     22 N6         12.3650   21.0130   43.7520 N.pl3     1 SAH901      0.0000 
     23 N1         14.4210   20.4400   42.8030 N.ar      1 SAH901      0.0000 
     24 C2         15.6500   19.9290   42.8330 C.ar      1 SAH901      0.0000 
     25 N3         16.2320   19.3460   43.8910 N.ar      1 SAH901      0.0000 
     26 C4         15.4940   19.2770   45.0290 C.ar      1 SAH901      0.0000 
@<TRIPOS>BOND
     1    1    2 1    
     2    2    3 1    
     3    2    6 1    
     4    3    4 1    
     5    4    5 1    
     6    5    9 1    
     7    6    7 ar   
     8    6    8 ar   
     9    9   10 1    
    10   10   11 1    
    11   10   12 1    
    12   11   16 1    
    13   12   13 1    
    14   12   14 1    
    15   14   15 1    
    16   14   16 1    
    17   16   17 1    
    18   17   18 1    
    19   17   26 1    
    20   18   19 2    
    21   19   20 1    
    22   20   21 ar   
    23   20   26 ar   
    24   21   22 1    
    25   21   23 ar   
    26   23   24 ar   
    27   24   25 ar   
    28   25   26 ar   
@<TRIPOS>SUBSTRUCTURE
     1 SAH901      1 GROUP   
@<TRIPOS>SET

