#    Name: 6eqo_3_ACP
#    Modification time : Fri May 22 19:33:47 2020

@<TRIPOS>MOLECULE
6eqo_3_ACP
   23    25     1     0     1
SMALL
NO_CHARGES


@<TRIPOS>ATOM
      1 PA        -91.6710    6.6010   55.3030 P.3       1 ACP1901     0.0000 
      2 O1A       -91.5030    7.7330   54.3690 O.co2     1 ACP1901     0.0000 
      3 O2A       -93.1390    6.4980   55.5860 O.co2     1 ACP1901     0.0000 
      4 O3A       -90.7960    6.9280   56.6190 O.3       1 ACP1901     0.0000 
      5 O5'       -91.1010    5.2380   54.6810 O.3       1 ACP1901     0.0000 
      6 C5'       -89.8130    4.9380   55.0780 C.3       1 ACP1901     0.0000 
      7 C4'       -89.3340    3.6240   54.4450 C.3       1 ACP1901     0.0000 
      8 O4'       -88.1420    3.4830   54.8030 O.3       1 ACP1901     0.0000 
      9 C3'       -90.0720    2.3070   55.0780 C.3       1 ACP1901     0.0000 
     10 O3'       -91.3090    2.0470   54.3840 O.3       1 ACP1901     0.0000 
     11 C2'       -89.2370    1.3570   54.9120 C.3       1 ACP1901     0.0000 
     12 O2'       -89.0890    0.9600   53.5150 O.3       1 ACP1901     0.0000 
     13 C1'       -87.9020    1.9930   55.2180 C.3       1 ACP1901     0.0000 
     14 N9        -87.5440    1.8870   56.4960 N.pl3     1 ACP1901     0.0000 
     15 C8        -87.9730    2.5350   57.5420 C.2       1 ACP1901     0.0000 
     16 N7        -87.3310    2.1300   58.6080 N.2       1 ACP1901     0.0000 
     17 C5        -86.4540    1.1890   58.2530 C.ar      1 ACP1901     0.0000 
     18 C6        -85.5010    0.3760   58.8710 C.ar      1 ACP1901     0.0000 
     19 N6        -85.2170    0.4070   60.3090 N.pl3     1 ACP1901     0.0000 
     20 N1        -84.8140   -0.4500   58.1560 N.ar      1 ACP1901     0.0000 
     21 C2        -84.9960   -0.5560   56.8660 C.ar      1 ACP1901     0.0000 
     22 N3        -85.8710    0.1730   56.2610 N.ar      1 ACP1901     0.0000 
     23 C4        -86.6030    1.0500   56.9240 C.ar      1 ACP1901     0.0000 
@<TRIPOS>BOND
     1    1    2 ar   
     2    1    3 ar   
     3    1    4 1    
     4    1    5 1    
     5    5    6 1    
     6    6    7 1    
     7    7    8 1    
     8    7    9 1    
     9    8   13 1    
    10    9   10 1    
    11    9   11 1    
    12   11   12 1    
    13   11   13 1    
    14   13   14 1    
    15   14   15 1    
    16   14   23 1    
    17   15   16 2    
    18   16   17 1    
    19   17   18 ar   
    20   17   23 ar   
    21   18   19 1    
    22   18   20 ar   
    23   20   21 ar   
    24   21   22 ar   
    25   22   23 ar   
@<TRIPOS>SUBSTRUCTURE
     1 ACP1901     1 GROUP   
@<TRIPOS>SET
ATOM$ORANGE STATIC     ATOMS   COLORGROUP SYSTEM 
20 6 6 7 7 9 9 11 11 13 13 15 15 17 17 18 18 21 \
21 23 23 

