#    Name: 6eqo_4_NAP
#    Modification time : Fri May 22 19:33:57 2020

@<TRIPOS>MOLECULE
6eqo_4_NAP
   48    52     1     0     1
SMALL
NO_CHARGES


@<TRIPOS>ATOM
      1 PA        -69.7430   69.8530   16.0770 P.3       1 NAP1902     0.0000 
      2 O1A       -68.6070   70.0500   15.1020 O.co2     1 NAP1902     0.0000 
      3 O2A       -69.6570   70.8120   17.2280 O.co2     1 NAP1902     0.0000 
      4 O5B       -71.1620   70.0500   15.2950 O.3       1 NAP1902     0.0000 
      5 C5B       -72.3200   69.7750   16.0080 C.3       1 NAP1902     0.0000 
      6 C4B       -73.5060   70.2500   15.1460 C.3       1 NAP1902     0.0000 
      7 O4B       -74.6400   70.0080   15.7110 O.3       1 NAP1902     0.0000 
      8 C3B       -73.4620   71.7780   15.0480 C.3       1 NAP1902     0.0000 
      9 O3B       -72.7230   72.0420   13.9450 O.3       1 NAP1902     0.0000 
     10 C2B       -74.9380   72.2400   14.9170 C.3       1 NAP1902     0.0000 
     11 O2B       -75.1480   72.8090   13.5340 O.3       1 NAP1902     0.0000 
     12 C1B       -75.6320   71.1310   15.1200 C.3       1 NAP1902     0.0000 
     13 N9A       -76.6410   71.2500   16.1360 N.pl3     1 NAP1902     0.0000 
     14 C8A       -76.5960   71.5920   17.4190 C.2       1 NAP1902     0.0000 
     15 N7A       -77.8380   71.5140   17.9010 N.2       1 NAP1902     0.0000 
     16 C5A       -78.6490   71.1070   16.9250 C.ar      1 NAP1902     0.0000 
     17 C6A       -80.0050   70.8690   16.9030 C.ar      1 NAP1902     0.0000 
     18 N6A       -80.9240   71.0220   18.0100 N.pl3     1 NAP1902     0.0000 
     19 N1A       -80.6050   70.4590   15.7940 N.ar      1 NAP1902     0.0000 
     20 C2A       -79.8600   70.2870   14.6740 C.ar      1 NAP1902     0.0000 
     21 N3A       -78.5240   70.5220   14.6960 N.ar      1 NAP1902     0.0000 
     22 C4A       -77.9150   70.9340   15.8280 C.ar      1 NAP1902     0.0000 
     23 O3        -69.6950   68.3840   16.7730 O.3       1 NAP1902     0.0000 
     24 PN        -69.5080   66.9600   15.9950 P.3       1 NAP1902     0.0000 
     25 O1N       -70.0960   67.0520   14.6040 O.co2     1 NAP1902     0.0000 
     26 O2N       -68.0480   66.5750   15.9500 O.co2     1 NAP1902     0.0000 
     27 O5D       -70.3580   65.8870   16.9150 O.3       1 NAP1902     0.0000 
     28 C5D       -71.7510   65.9000   16.7680 C.3       1 NAP1902     0.0000 
     29 C4D       -72.4100   64.8110   17.6600 C.3       1 NAP1902     0.0000 
     30 O4D       -72.1070   63.6160   17.2070 O.3       1 NAP1902     0.0000 
     31 C3D       -71.8540   64.9110   19.0920 C.3       1 NAP1902     0.0000 
     32 O3D       -72.8180   64.7160   20.0500 O.3       1 NAP1902     0.0000 
     33 C2D       -70.7920   63.8020   19.1000 C.3       1 NAP1902     0.0000 
     34 O2D       -70.6020   63.3710   20.5100 O.3       1 NAP1902     0.0000 
     35 C1D       -71.2960   62.8430   18.3540 C.3       1 NAP1902     0.0000 
     36 N1N       -70.3150   61.9770   17.7130 N.pl3     1 NAP1902     0.0000 
     37 C2N       -70.4130   60.6430   17.8890 C.ar      1 NAP1902     0.0000 
     38 C3N       -69.5000   59.7860   17.2930 C.ar      1 NAP1902     0.0000 
     39 C7N       -69.6410   58.2690   17.5030 C.2       1 NAP1902     0.0000 
     40 O7N       -68.7200   57.5480   17.3100 O.2       1 NAP1902     0.0000 
     41 N7N       -70.9280   57.7250   17.9250 N.am      1 NAP1902     0.0000 
     42 C4N       -68.4990   60.2860   16.5230 C.ar      1 NAP1902     0.0000 
     43 C5N       -68.3990   61.6180   16.3240 C.ar      1 NAP1902     0.0000 
     44 C6N       -69.3180   62.4620   16.9200 C.ar      1 NAP1902     0.0000 
     45 P2B       -76.2170   74.0220   13.1700 P.3       1 NAP1902     0.0000 
     46 O1X       -75.7440   74.7950   11.9560 O.co2     1 NAP1902     0.0000 
     47 O2X       -76.3870   74.8920   14.3880 O.co2     1 NAP1902     0.0000 
     48 O3X       -77.5650   73.4490   12.8180 O.co2     1 NAP1902     0.0000 
@<TRIPOS>BOND
     1    1    2 ar   
     2    1    3 ar   
     3    1    4 1    
     4    1   23 1    
     5    4    5 1    
     6    5    6 1    
     7    6    7 1    
     8    6    8 1    
     9    7   12 1    
    10    8    9 1    
    11    8   10 1    
    12   10   11 1    
    13   10   12 1    
    14   11   45 1    
    15   12   13 1    
    16   13   14 1    
    17   13   22 1    
    18   14   15 2    
    19   15   16 1    
    20   16   17 ar   
    21   16   22 ar   
    22   17   18 1    
    23   17   19 ar   
    24   19   20 ar   
    25   20   21 ar   
    26   21   22 ar   
    27   23   24 1    
    28   24   25 ar   
    29   24   26 ar   
    30   24   27 1    
    31   27   28 1    
    32   28   29 1    
    33   29   30 1    
    34   29   31 1    
    35   30   35 1    
    36   31   32 1    
    37   31   33 1    
    38   33   34 1    
    39   33   35 1    
    40   35   36 1    
    41   36   37 ar   
    42   36   44 ar   
    43   37   38 ar   
    44   38   39 1    
    45   38   42 ar   
    46   39   40 2    
    47   39   41 am   
    48   42   43 ar   
    49   43   44 ar   
    50   45   46 ar   
    51   45   47 ar   
    52   45   48 ar   
@<TRIPOS>SUBSTRUCTURE
     1 NAP1902     1 GROUP   
@<TRIPOS>SET
ATOM$ORANGE STATIC     ATOMS   COLORGROUP SYSTEM 
42 5 5 6 6 8 8 10 10 12 12 14 14 16 16 17 17 20 \
20 22 22 28 28 29 29 31 31 33 33 35 35 37 37 38 38 39 \
39 42 42 43 43 44 44 

