#    Name: 6eqo_2_NAP
#    Modification time : Fri May 22 19:33:32 2020

@<TRIPOS>MOLECULE
6eqo_2_NAP
   48    52     1     0     1
SMALL
NO_CHARGES


@<TRIPOS>ATOM
      1 PA        -59.2140   12.9680    2.8150 P.3       1 NAP1902     0.0000 
      2 O1A       -59.9100   12.7770    4.1370 O.co2     1 NAP1902     0.0000 
      3 O2A       -58.0870   12.0020    2.5300 O.co2     1 NAP1902     0.0000 
      4 O5B       -60.3480   12.8360    1.6450 O.3       1 NAP1902     0.0000 
      5 C5B       -60.0110   13.2520    0.3590 C.3       1 NAP1902     0.0000 
      6 C4B       -61.0110   12.6420   -0.6560 C.3       1 NAP1902     0.0000 
      7 O4B       -60.7020   12.9880   -1.8690 O.3       1 NAP1902     0.0000 
      8 C3B       -60.8860   11.1120   -0.6640 C.3       1 NAP1902     0.0000 
      9 O3B       -61.7290   10.6030    0.2740 O.3       1 NAP1902     0.0000 
     10 C2B       -61.2860   10.6940   -2.1000 C.3       1 NAP1902     0.0000 
     11 O2B       -62.6830   10.1480   -2.0830 O.3       1 NAP1902     0.0000 
     12 C1B       -61.2200   11.7930   -2.8310 C.3       1 NAP1902     0.0000 
     13 N9A       -60.2820   11.6540   -3.9300 N.pl3     1 NAP1902     0.0000 
     14 C8A       -59.0020   11.2760   -4.0040 C.2       1 NAP1902     0.0000 
     15 N7A       -58.6170   11.3340   -5.2840 N.2       1 NAP1902     0.0000 
     16 C5A       -59.6570   11.7520   -6.0050 C.ar      1 NAP1902     0.0000 
     17 C6A       -59.7920   11.9800   -7.3510 C.ar      1 NAP1902     0.0000 
     18 N6A       -58.7660   11.8130   -8.3670 N.pl3     1 NAP1902     0.0000 
     19 N1A       -60.9510   12.4090   -7.8380 N.ar      1 NAP1902     0.0000 
     20 C2A       -62.0050   12.6230   -7.0110 C.ar      1 NAP1902     0.0000 
     21 N3A       -61.8640   12.3970   -5.6820 N.ar      1 NAP1902     0.0000 
     22 C4A       -60.6880   11.9600   -5.1780 C.ar      1 NAP1902     0.0000 
     23 O3        -58.5620   14.4560    2.7950 O.3       1 NAP1902     0.0000 
     24 PN        -59.3010   15.7860    3.3780 P.3       1 NAP1902     0.0000 
     25 O1N       -60.7920   15.7820    3.1530 O.co2     1 NAP1902     0.0000 
     26 O2N       -58.9540   15.8650    4.8440 O.co2     1 NAP1902     0.0000 
     27 O5D       -58.7280   16.9670    2.4160 O.3       1 NAP1902     0.0000 
     28 C5D       -59.0420   16.7790    1.0570 C.3       1 NAP1902     0.0000 
     29 C4D       -58.2310   17.7700    0.1650 C.3       1 NAP1902     0.0000 
     30 O4D       -58.5580   19.0120    0.4360 O.3       1 NAP1902     0.0000 
     31 C3D       -56.7260   17.6100    0.4920 C.3       1 NAP1902     0.0000 
     32 O3D       -55.9250   17.7660   -0.5890 O.3       1 NAP1902     0.0000 
     33 C2D       -56.4540   18.7360    1.4950 C.3       1 NAP1902     0.0000 
     34 O2D       -55.0080   19.0850    1.3850 O.3       1 NAP1902     0.0000 
     35 C1D       -57.2680   19.7120    1.1130 C.3       1 NAP1902     0.0000 
     36 N1N       -57.6780   20.5780    2.2020 N.pl3     1 NAP1902     0.0000 
     37 C2N       -57.5030   21.9100    2.0660 C.ar      1 NAP1902     0.0000 
     38 C3N       -57.8610   22.7670    3.0940 C.ar      1 NAP1902     0.0000 
     39 C7N       -57.6510   24.2670    2.9430 C.2       1 NAP1902     0.0000 
     40 O7N       -57.5790   24.9260    3.9190 O.2       1 NAP1902     0.0000 
     41 N7N       -57.5290   24.8490    1.6140 N.am      1 NAP1902     0.0000 
     42 C4N       -58.3870   22.2970    4.2420 C.ar      1 NAP1902     0.0000 
     43 C5N       -58.5770   20.9610    4.3860 C.ar      1 NAP1902     0.0000 
     44 C6N       -58.2220   20.1020    3.3520 C.ar      1 NAP1902     0.0000 
     45 P2B       -63.0210    8.9200   -3.1280 P.3       1 NAP1902     0.0000 
     46 O1X       -63.8060    7.8160   -2.4720 O.co2     1 NAP1902     0.0000 
     47 O2X       -61.6610    8.4320   -3.5500 O.co2     1 NAP1902     0.0000 
     48 O3X       -63.8220    9.4180   -4.3090 O.co2     1 NAP1902     0.0000 
@<TRIPOS>BOND
     1    1    2 ar   
     2    1    3 ar   
     3    1    4 1    
     4    1   23 1    
     5    4    5 1    
     6    5    6 1    
     7    6    7 1    
     8    6    8 1    
     9    7   12 1    
    10    8    9 1    
    11    8   10 1    
    12   10   11 1    
    13   10   12 1    
    14   11   45 1    
    15   12   13 1    
    16   13   14 1    
    17   13   22 1    
    18   14   15 2    
    19   15   16 1    
    20   16   17 ar   
    21   16   22 ar   
    22   17   18 1    
    23   17   19 ar   
    24   19   20 ar   
    25   20   21 ar   
    26   21   22 ar   
    27   23   24 1    
    28   24   25 ar   
    29   24   26 ar   
    30   24   27 1    
    31   27   28 1    
    32   28   29 1    
    33   29   30 1    
    34   29   31 1    
    35   30   35 1    
    36   31   32 1    
    37   31   33 1    
    38   33   34 1    
    39   33   35 1    
    40   35   36 1    
    41   36   37 ar   
    42   36   44 ar   
    43   37   38 ar   
    44   38   39 1    
    45   38   42 ar   
    46   39   40 2    
    47   39   41 am   
    48   42   43 ar   
    49   43   44 ar   
    50   45   46 ar   
    51   45   47 ar   
    52   45   48 ar   
@<TRIPOS>SUBSTRUCTURE
     1 NAP1902     1 GROUP   
@<TRIPOS>SET
ATOM$ORANGE STATIC     ATOMS   COLORGROUP SYSTEM 
42 5 5 6 6 8 8 10 10 12 12 14 14 16 16 17 17 20 \
20 22 22 28 28 29 29 31 31 33 33 35 35 37 37 38 38 39 \
39 42 42 43 43 44 44 

