#    Name: 6eqo_1_ACP
#    Modification time : Fri May 22 19:33:23 2020

@<TRIPOS>MOLECULE
6eqo_1_ACP
   31    33     1     0     1
SMALL
NO_CHARGES


@<TRIPOS>ATOM
      1 PG        -19.3520   72.7240  -21.4130 P.3       1 ACP1901     0.0000 
      2 O1G       -18.4470   71.7640  -21.9780 O.co2     1 ACP1901     0.0000 
      3 O2G       -20.7060   72.1780  -21.3270 O.co2     1 ACP1901     0.0000 
      4 O3G       -18.9830   73.0980  -20.0670 O.co2     1 ACP1901     0.0000 
      5 PB        -19.6900   75.7600  -21.7050 P.3       1 ACP1901     0.0000 
      6 O1B       -18.5110   76.4790  -21.1510 O.co2     1 ACP1901     0.0000 
      7 O2B       -20.6970   75.4950  -20.7060 O.co2     1 ACP1901     0.0000 
      8 C3B       -19.1930   74.1830  -22.5340 C.3       1 ACP1901     0.0000 
      9 PA        -21.9270   76.0870  -23.2910 P.3       1 ACP1901     0.0000 
     10 O1A       -22.0040   75.9790  -24.7870 O.co2     1 ACP1901     0.0000 
     11 O2A       -22.3710   74.8410  -22.6570 O.co2     1 ACP1901     0.0000 
     12 O3A       -20.4250   76.4700  -22.9220 O.3       1 ACP1901     0.0000 
     13 O5'       -22.8240   77.2710  -22.6790 O.3       1 ACP1901     0.0000 
     14 C5'       -22.1120   78.4480  -22.5290 C.3       1 ACP1901     0.0000 
     15 C4'       -22.4580   79.2730  -21.2690 C.3       1 ACP1901     0.0000 
     16 O4'       -21.6610   79.1020  -20.3100 O.3       1 ACP1901     0.0000 
     17 C3'       -22.1540   80.8120  -21.7210 C.3       1 ACP1901     0.0000 
     18 O3'       -23.2020   81.1580  -22.6610 O.3       1 ACP1901     0.0000 
     19 C2'       -22.1620   81.4650  -20.6220 C.3       1 ACP1901     0.0000 
     20 O2'       -23.5290   81.6710  -20.1030 O.3       1 ACP1901     0.0000 
     21 C1'       -21.5130   80.5070  -19.6380 C.3       1 ACP1901     0.0000 
     22 N9        -20.2300   80.7110  -19.3800 N.pl3     1 ACP1901     0.0000 
     23 C8        -19.2450   80.1290  -19.9870 C.2       1 ACP1901     0.0000 
     24 N7        -18.1240   80.5310  -19.4550 N.2       1 ACP1901     0.0000 
     25 C5        -18.3700   81.3890  -18.4390 C.ar      1 ACP1901     0.0000 
     26 C6        -17.6110   82.1310  -17.4980 C.ar      1 ACP1901     0.0000 
     27 N6        -16.1640   82.0620  -17.4660 N.pl3     1 ACP1901     0.0000 
     28 N1        -18.1970   82.8880  -16.6460 N.ar      1 ACP1901     0.0000 
     29 C2        -19.5040   82.9590  -16.6420 C.ar      1 ACP1901     0.0000 
     30 N3        -20.2380   82.2870  -17.4830 N.ar      1 ACP1901     0.0000 
     31 C4        -19.7130   81.4860  -18.3960 C.ar      1 ACP1901     0.0000 
@<TRIPOS>BOND
     1    1    2 ar   
     2    1    3 ar   
     3    1    4 ar   
     4    1    8 1    
     5    5    6 ar   
     6    5    7 ar   
     7    5    8 1    
     8    5   12 1    
     9    9   10 ar   
    10    9   11 ar   
    11    9   12 1    
    12    9   13 1    
    13   13   14 1    
    14   14   15 1    
    15   15   16 1    
    16   15   17 1    
    17   16   21 1    
    18   17   18 1    
    19   17   19 1    
    20   19   20 1    
    21   19   21 1    
    22   21   22 1    
    23   22   23 1    
    24   22   31 1    
    25   23   24 2    
    26   24   25 1    
    27   25   26 ar   
    28   25   31 ar   
    29   26   27 1    
    30   26   28 ar   
    31   28   29 ar   
    32   29   30 ar   
    33   30   31 ar   
@<TRIPOS>SUBSTRUCTURE
     1 ACP1901     1 GROUP   
@<TRIPOS>SET
ATOM$ORANGE STATIC     ATOMS   COLORGROUP SYSTEM 
22 8 8 14 14 15 15 17 17 19 19 21 21 23 23 25 25 26 \
26 29 29 31 31 

