#    Name: 6iqw_1_ATP
#    Modification time : Fri May 22 19:31:42 2020

@<TRIPOS>MOLECULE
6iqw_1_ATP
   31    33     1     0     1
SMALL
NO_CHARGES


@<TRIPOS>ATOM
      1 PG        134.4120   97.1440  129.6840 P.3       1 ATP801      0.0000 
      2 O1G       134.3360   97.8710  128.3700 O.co2     1 ATP801      0.0000 
      3 O2G       133.0750   96.7990  130.2880 O.co2     1 ATP801      0.0000 
      4 O3G       135.3770   97.7240  130.6850 O.co2     1 ATP801      0.0000 
      5 PB        134.2720   94.6650  128.4230 P.3       1 ATP801      0.0000 
      6 O1B       133.0220   95.2830  127.8650 O.co2     1 ATP801      0.0000 
      7 O2B       134.2260   93.3630  129.1710 O.co2     1 ATP801      0.0000 
      8 O3B       135.0820   95.7450  129.2810 O.3       1 ATP801      0.0000 
      9 PA        135.8320   95.6830  126.3920 P.3       1 ATP801      0.0000 
     10 O1A       134.6760   96.4770  125.8390 O.co2     1 ATP801      0.0000 
     11 O2A       136.9180   96.3720  127.1720 O.co2     1 ATP801      0.0000 
     12 O3A       135.3090   94.4350  127.2390 O.3       1 ATP801      0.0000 
     13 O5'       136.5280   94.8760  125.2020 O.3       1 ATP801      0.0000 
     14 C5'       137.9410   94.7510  125.1490 C.3       1 ATP801      0.0000 
     15 C4'       138.2190   93.3340  124.6790 C.3       1 ATP801      0.0000 
     16 O4'       137.0560   92.7880  124.0560 O.3       1 ATP801      0.0000 
     17 C3'       139.3350   93.2880  123.6570 C.3       1 ATP801      0.0000 
     18 O3'       140.4500   92.5920  124.2140 O.3       1 ATP801      0.0000 
     19 C2'       138.7800   92.4970  122.4960 C.3       1 ATP801      0.0000 
     20 O2'       139.6300   91.3930  122.2230 O.3       1 ATP801      0.0000 
     21 C1'       137.4490   91.9580  122.9670 C.3       1 ATP801      0.0000 
     22 N9        136.4830   92.0140  121.8520 N.pl3     1 ATP801      0.0000 
     23 C8        135.7090   93.0600  121.5400 C.2       1 ATP801      0.0000 
     24 N7        134.9370   92.7890  120.4610 N.2       1 ATP801      0.0000 
     25 C5        135.2230   91.5430  120.0690 C.ar      1 ATP801      0.0000 
     26 C6        134.7710   90.6430  118.9990 C.ar      1 ATP801      0.0000 
     27 N6        133.8320   91.0400  118.1170 N.pl3     1 ATP801      0.0000 
     28 N1        135.3160   89.4190  118.9260 N.ar      1 ATP801      0.0000 
     29 C2        136.2480   89.0240  119.8010 C.ar      1 ATP801      0.0000 
     30 N3        136.7040   89.7880  120.8040 N.ar      1 ATP801      0.0000 
     31 C4        136.2400   91.0370  120.9850 C.ar      1 ATP801      0.0000 
@<TRIPOS>BOND
     1    1    2 ar   
     2    1    3 ar   
     3    1    4 ar   
     4    1    8 1    
     5    5    6 ar   
     6    5    7 ar   
     7    5    8 1    
     8    5   12 1    
     9    9   10 ar   
    10    9   11 ar   
    11    9   12 1    
    12    9   13 1    
    13   13   14 1    
    14   14   15 1    
    15   15   16 1    
    16   15   17 1    
    17   16   21 1    
    18   17   18 1    
    19   17   19 1    
    20   19   20 1    
    21   19   21 1    
    22   21   22 1    
    23   22   23 1    
    24   22   31 1    
    25   23   24 2    
    26   24   25 1    
    27   25   26 ar   
    28   25   31 ar   
    29   26   27 1    
    30   26   28 ar   
    31   28   29 ar   
    32   29   30 ar   
    33   30   31 ar   
@<TRIPOS>SUBSTRUCTURE
     1 ATP801      1 GROUP   
@<TRIPOS>SET
ATOM$ORANGE STATIC     ATOMS   COLORGROUP SYSTEM 
20 14 14 15 15 17 17 19 19 21 21 23 23 25 25 26 26 29 \
29 31 31 

