#    Name: 6iqw_1_ATP_CAVITY_N1_4
#    Modification time : Fri May 22 19:31:43 2020

@<TRIPOS>MOLECULE
6iqw_1_ATP_CAVITY_N1_4
   81     0     7     0     0
SMALL
NO_CHARGES


@<TRIPOS>ATOM
      1 OG        138.7600   90.6700  123.2300 O.3       1 SER1        0.0000 
      2 OG        138.3300   91.4300  122.0100 O.3       1 SER1        0.0000 
      3 OG        139.6500   91.8100  123.6300 O.3       1 SER1        0.0000 
      4 OG        139.2300   92.5700  122.4000 O.3       1 SER1        0.0000 
      5 OG        142.1000   91.5800  124.4700 O.3       1 SER1        0.0000 
      6 OG        141.6700   92.3400  123.2500 O.3       1 SER1        0.0000 
      7 N         137.7200   91.2000  118.3900 N.am      2 ALA2        0.0000 
      8 N         136.5900   91.8100  119.1700 N.am      2 ALA2        0.0000 
      9 N         136.0400   90.0000  125.6000 N.am      2 ALA2        0.0000 
     10 O         134.3300   93.0400  120.7200 O.2       2 ALA2        0.0000 
     11 N         137.4800   92.9500  119.5600 N.am      2 ALA2        0.0000 
     12 O         136.5000   91.9000  124.7800 O.2       2 ALA2        0.0000 
     13 N         139.2700   95.2300  120.3600 N.am      2 ALA2        0.0000 
     14 OD1       138.3000   88.7800  124.0500 O.co2     3 ASP3        0.0000 
     15 OD1       139.6100   89.1500  125.6700 O.co2     3 ASP3        0.0000 
     16 OD1       139.1900   89.9100  124.4500 O.co2     3 ASP3        0.0000 
     17 OD1       138.4900   89.7700  126.4500 O.co2     3 ASP3        0.0000 
     18 OD1       138.9500   91.6700  125.6200 O.co2     3 ASP3        0.0000 
     19 NZ        136.3500   93.5700  120.3400 N.4       4 LYS4        0.0000 
     20 NZ        136.0800   92.6600  123.5600 N.4       4 LYS4        0.0000 
     21 NZ        135.6500   93.4200  122.3400 N.4       4 LYS4        0.0000 
     22 NZ        134.9500   93.2700  124.3300 N.4       4 LYS4        0.0000 
     23 NZ        137.2500   94.7000  120.7400 N.4       4 LYS4        0.0000 
     24 NZ        136.8200   95.4600  119.5200 N.4       4 LYS4        0.0000 
     25 NZ        136.9700   93.8000  123.9500 N.4       4 LYS4        0.0000 
     26 NZ        136.5400   94.5600  122.7300 N.4       4 LYS4        0.0000 
     27 NZ        135.8400   94.4100  124.7300 N.4       4 LYS4        0.0000 
     28 NZ        138.1400   95.8400  121.1300 N.4       4 LYS4        0.0000 
     29 NZ        137.0100   96.4600  121.9100 N.4       4 LYS4        0.0000 
     30 CZ        134.1000   89.3900  120.3700 C.ar      5 PHE5        0.0000 
     31 CZ        137.2500   89.3000  119.2200 C.ar      5 PHE5        0.0000 
     32 CZ        136.8300   90.0600  117.9900 C.ar      5 PHE5        0.0000 
     33 CZ        136.5500   89.1600  121.2100 C.ar      5 PHE5        0.0000 
     34 CZ        136.1200   89.9100  119.9900 C.ar      5 PHE5        0.0000 
     35 CZ        135.0000   90.5300  120.7700 C.ar      5 PHE5        0.0000 
     36 CZ        139.0000   88.9200  122.0600 C.ar      5 PHE5        0.0000 
     37 CZ        138.5700   89.6800  120.8300 C.ar      5 PHE5        0.0000 
     38 CZ        138.1500   90.4400  119.6100 C.ar      5 PHE5        0.0000 
     39 CZ        137.8700   89.5300  122.8300 C.ar      5 PHE5        0.0000 
     40 CZ        137.4400   90.2900  121.6100 C.ar      5 PHE5        0.0000 
     41 CZ        137.1700   89.3900  124.8300 C.ar      5 PHE5        0.0000 
     42 CZ        136.7400   90.1500  123.6100 C.ar      5 PHE5        0.0000 
     43 CZ        136.3100   90.9100  122.3800 C.ar      5 PHE5        0.0000 
     44 CZ        140.3200   89.3000  123.6700 C.ar      5 PHE5        0.0000 
     45 CZ        141.2100   90.4400  124.0700 C.ar      5 PHE5        0.0000 
     46 CZ        140.1200   93.7100  122.8000 C.ar      5 PHE5        0.0000 
     47 CA        135.9400   88.9200  117.6000 C.3       6 GLY6        0.0000 
     48 CA        135.2300   88.7800  119.5900 C.3       6 GLY6        0.0000 
     49 CA        134.8100   89.5400  118.3700 C.3       6 GLY6        0.0000 
     50 CA        133.6800   90.1500  119.1500 C.3       6 GLY6        0.0000 
     51 CA        135.7000   90.6700  118.7700 C.3       6 GLY6        0.0000 
     52 CA        135.2700   91.4300  117.5500 C.3       6 GLY6        0.0000 
     53 CA        134.5700   91.2900  119.5500 C.3       6 GLY6        0.0000 
     54 CA        133.8700   91.1400  121.5400 C.3       6 GLY6        0.0000 
     55 CA        136.1600   92.5700  117.9500 C.3       6 GLY6        0.0000 
     56 CA        135.4600   92.4300  119.9400 C.3       6 GLY6        0.0000 
     57 CA        135.1900   91.5200  123.1600 C.3       6 GLY6        0.0000 
     58 CA        134.7600   92.2800  121.9400 C.3       6 GLY6        0.0000 
     59 CA        139.0400   91.5800  120.0100 C.3       6 GLY6        0.0000 
     60 CA        137.9100   92.1900  120.7900 C.3       6 GLY6        0.0000 
     61 CA        138.0600   90.5300  125.2200 C.3       6 GLY6        0.0000 
     62 CA        136.9300   91.1400  126.0000 C.3       6 GLY6        0.0000 
     63 CA        140.0800   91.0500  124.8500 C.3       6 GLY6        0.0000 
     64 CA        138.8000   93.3300  121.1800 C.3       6 GLY6        0.0000 
     65 CA        138.3700   94.0900  119.9600 C.3       6 GLY6        0.0000 
     66 CA        137.8200   92.2800  126.4000 C.3       6 GLY6        0.0000 
     67 CA        140.9700   92.1900  125.2400 C.3       6 GLY6        0.0000 
     68 CA        139.6900   94.4700  121.5800 C.3       6 GLY6        0.0000 
     69 CA        139.8400   92.8100  126.0200 C.3       6 GLY6        0.0000 
     70 DU        137.0200   91.0500  120.3900 H         7 CUB7        0.0000 
     71 DU        135.8900   91.6700  121.1600 H         7 CUB7        0.0000 
     72 DU        137.6300   91.2900  124.0000 H         7 CUB7        0.0000 
     73 DU        137.2100   92.0500  122.7800 H         7 CUB7        0.0000 
     74 DU        136.7800   92.8100  121.5600 H         7 CUB7        0.0000 
     75 DU        138.5200   92.4300  124.4000 H         7 CUB7        0.0000 
     76 DU        138.1000   93.1900  123.1800 H         7 CUB7        0.0000 
     77 DU        137.6700   93.9400  121.9600 H         7 CUB7        0.0000 
     78 DU        137.4000   93.0400  125.1800 H         7 CUB7        0.0000 
     79 DU        140.5400   92.9500  124.0200 H         7 CUB7        0.0000 
     80 DU        139.4200   93.5600  124.8000 H         7 CUB7        0.0000 
     81 DU        138.5600   95.0800  122.3500 H         7 CUB7        0.0000 
@<TRIPOS>BOND
@<TRIPOS>SUBSTRUCTURE
     1 SER1        1 GROUP   
     2 ALA2        7 GROUP   
     3 ASP3       14 GROUP   
     4 LYS4       19 GROUP   
     5 PHE5       30 GROUP   
     6 GLY6       47 GROUP   
     7 CUB7       70 GROUP   
@<TRIPOS>SET

