#    Name: 6jju_1_ACP
#    Modification time : Fri May 22 19:26:33 2020

@<TRIPOS>MOLECULE
6jju_1_ACP
   31    33     1     0     1
SMALL
NO_CHARGES


@<TRIPOS>ATOM
      1 PG         19.2660   10.0910    3.1880 P.3       1 ACP1001     0.0000 
      2 O1G        17.8300    9.6590    3.4780 O.co2     1 ACP1001     0.0000 
      3 O2G        19.2940   11.6090    2.9760 O.co2     1 ACP1001     0.0000 
      4 O3G        20.1670    9.7390    4.3400 O.co2     1 ACP1001     0.0000 
      5 PB         19.3870    9.7230    0.0790 P.3       1 ACP1001     0.0000 
      6 O1B        17.9290    9.4560   -0.0590 O.co2     1 ACP1001     0.0000 
      7 O2B        20.1300    8.9650   -0.9520 O.co2     1 ACP1001     0.0000 
      8 C3B        20.0000    9.1980    1.7460 C.3       1 ACP1001     0.0000 
      9 PA         21.1650   11.8350   -0.6270 P.3       1 ACP1001     0.0000 
     10 O1A        22.2100   10.8850   -0.1880 O.co2     1 ACP1001     0.0000 
     11 O2A        21.4540   13.1780   -0.0650 O.co2     1 ACP1001     0.0000 
     12 O3A        19.6940   11.3260   -0.1420 O.3       1 ACP1001     0.0000 
     13 O5'        21.1090   11.9050   -2.2930 O.3       1 ACP1001     0.0000 
     14 C5'        19.9510   12.4970   -2.8450 C.3       1 ACP1001     0.0000 
     15 C4'        19.4920   11.6830   -4.0710 C.3       1 ACP1001     0.0000 
     16 O4'        20.5260   11.3280   -4.7430 O.3       1 ACP1001     0.0000 
     17 C3'        18.8420   10.3480   -3.6300 C.3       1 ACP1001     0.0000 
     18 O3'        17.4990   10.5110   -3.5550 O.3       1 ACP1001     0.0000 
     19 C2'        19.1400    9.4020   -4.7680 C.3       1 ACP1001     0.0000 
     20 O2'        17.9810    9.4450   -5.7350 O.3       1 ACP1001     0.0000 
     21 C1'        20.2040    9.8840   -5.3760 C.3       1 ACP1001     0.0000 
     22 N9         21.3590    9.0080   -5.2350 N.pl3     1 ACP1001     0.0000 
     23 C8         21.8690    8.4650   -4.1060 C.2       1 ACP1001     0.0000 
     24 N7         22.9490    7.7350   -4.4570 N.2       1 ACP1001     0.0000 
     25 C5         23.1010    7.8240   -5.7810 C.ar      1 ACP1001     0.0000 
     26 C6         24.0210    7.2780   -6.6470 C.ar      1 ACP1001     0.0000 
     27 N6         25.2350    6.3710   -6.5110 N.pl3     1 ACP1001     0.0000 
     28 N1         23.9390    7.5360   -7.9550 N.ar      1 ACP1001     0.0000 
     29 C2         22.9470    8.3370   -8.4370 C.ar      1 ACP1001     0.0000 
     30 N3         22.0380    8.8790   -7.5740 N.ar      1 ACP1001     0.0000 
     31 C4         22.1160    8.6180   -6.2610 C.ar      1 ACP1001     0.0000 
@<TRIPOS>BOND
     1    1    2 ar   
     2    1    3 ar   
     3    1    4 ar   
     4    1    8 1    
     5    5    6 ar   
     6    5    7 ar   
     7    5    8 1    
     8    5   12 1    
     9    9   10 ar   
    10    9   11 ar   
    11    9   12 1    
    12    9   13 1    
    13   13   14 1    
    14   14   15 1    
    15   15   16 1    
    16   15   17 1    
    17   16   21 1    
    18   17   18 1    
    19   17   19 1    
    20   19   20 1    
    21   19   21 1    
    22   21   22 1    
    23   22   23 1    
    24   22   31 1    
    25   23   24 2    
    26   24   25 1    
    27   25   26 ar   
    28   25   31 ar   
    29   26   27 1    
    30   26   28 ar   
    31   28   29 ar   
    32   29   30 ar   
    33   30   31 ar   
@<TRIPOS>SUBSTRUCTURE
     1 ACP1001     1 GROUP   
@<TRIPOS>SET
ATOM$ORANGE STATIC     ATOMS   COLORGROUP SYSTEM 
22 8 8 14 14 15 15 17 17 19 19 21 21 23 23 25 25 26 \
26 29 29 31 31 

