#    Name: 6jbj_1_ATP
#    Modification time : Fri May 22 19:27:34 2020

@<TRIPOS>MOLECULE
6jbj_1_ATP
   31    33     1     0     1
SMALL
NO_CHARGES


@<TRIPOS>ATOM
      1 PG         97.4520   96.5580  150.6150 P.3       1 ATP701      0.0000 
      2 O1G        96.4490   97.5730  150.1240 O.co2     1 ATP701      0.0000 
      3 O2G        98.7520   96.6050  149.8500 O.co2     1 ATP701      0.0000 
      4 O3G        97.6520   96.6140  152.1100 O.co2     1 ATP701      0.0000 
      5 PB         97.4470   93.6550  150.1270 P.3       1 ATP701      0.0000 
      6 O1B        98.9320   93.7730  150.2190 O.co2     1 ATP701      0.0000 
      7 O2B        96.7250   92.7010  151.0200 O.co2     1 ATP701      0.0000 
      8 O3B        96.8070   95.1120  150.3070 O.3       1 ATP701      0.0000 
      9 PA         95.9150   92.4110  147.9560 P.3       1 ATP701      0.0000 
     10 O1A        95.3610   93.1060  146.7560 O.co2     1 ATP701      0.0000 
     11 O2A        94.9660   91.9870  149.0280 O.co2     1 ATP701      0.0000 
     12 O3A        97.0510   93.3350  148.6080 O.3       1 ATP701      0.0000 
     13 O5'        96.7820   91.1450  147.4830 O.3       1 ATP701      0.0000 
     14 C5'        96.1020   90.0440  146.8310 C.3       1 ATP701      0.0000 
     15 C4'        97.1230   89.1320  146.1950 C.3       1 ATP701      0.0000 
     16 O4'        96.5260   88.4760  145.0460 O.3       1 ATP701      0.0000 
     17 C3'        98.3970   89.8110  145.6710 C.3       1 ATP701      0.0000 
     18 O3'        99.4460   89.7480  146.6290 O.3       1 ATP701      0.0000 
     19 C2'        98.7260   88.9900  144.4220 C.3       1 ATP701      0.0000 
     20 O2'        99.4540   87.8170  144.7140 O.3       1 ATP701      0.0000 
     21 C1'        97.3280   88.6710  143.9050 C.3       1 ATP701      0.0000 
     22 N9         96.7370   89.7430  143.1120 N.pl3     1 ATP701      0.0000 
     23 C8         96.3510   90.9900  143.5400 C.2       1 ATP701      0.0000 
     24 N7         95.8510   91.7230  142.5710 N.2       1 ATP701      0.0000 
     25 C5         95.9120   90.9100  141.4460 C.ar      1 ATP701      0.0000 
     26 C6         95.5340   91.1070  140.1050 C.ar      1 ATP701      0.0000 
     27 N6         94.9970   92.2350  139.6450 N.pl3     1 ATP701      0.0000 
     28 N1         95.7370   90.0820  139.2430 N.ar      1 ATP701      0.0000 
     29 C2         96.2780   88.9490  139.7110 C.ar      1 ATP701      0.0000 
     30 N3         96.6710   88.6500  140.9460 N.ar      1 ATP701      0.0000 
     31 C4         96.4570   89.6860  141.7730 C.ar      1 ATP701      0.0000 
@<TRIPOS>BOND
     1    1    2 ar   
     2    1    3 ar   
     3    1    4 ar   
     4    1    8 1    
     5    5    6 ar   
     6    5    7 ar   
     7    5    8 1    
     8    5   12 1    
     9    9   10 ar   
    10    9   11 ar   
    11    9   12 1    
    12    9   13 1    
    13   13   14 1    
    14   14   15 1    
    15   15   16 1    
    16   15   17 1    
    17   16   21 1    
    18   17   18 1    
    19   17   19 1    
    20   19   20 1    
    21   19   21 1    
    22   21   22 1    
    23   22   23 1    
    24   22   31 1    
    25   23   24 2    
    26   24   25 1    
    27   25   26 ar   
    28   25   31 ar   
    29   26   27 1    
    30   26   28 ar   
    31   28   29 ar   
    32   29   30 ar   
    33   30   31 ar   
@<TRIPOS>SUBSTRUCTURE
     1 ATP701      1 GROUP   
@<TRIPOS>SET
ATOM$ORANGE STATIC     ATOMS   COLORGROUP SYSTEM 
20 14 14 15 15 17 17 19 19 21 21 23 23 25 25 26 26 29 \
29 31 31 

