#    Name: 6jbj_2_ATP
#    Modification time : Fri May 22 19:27:46 2020

@<TRIPOS>MOLECULE
6jbj_2_ATP
   31    33     1     0     1
SMALL
NO_CHARGES


@<TRIPOS>ATOM
      1 PG        108.4110  111.4370  150.6290 P.3       1 ATP701      0.0000 
      2 O1G       109.4170  110.4240  150.1390 O.co2     1 ATP701      0.0000 
      3 O2G       107.1120  111.3860  149.8620 O.co2     1 ATP701      0.0000 
      4 O3G       108.2090  111.3810  152.1230 O.co2     1 ATP701      0.0000 
      5 PB        108.4090  114.3400  150.1400 P.3       1 ATP701      0.0000 
      6 O1B       106.9240  114.2180  150.2300 O.co2     1 ATP701      0.0000 
      7 O2B       109.1270  115.2960  151.0340 O.co2     1 ATP701      0.0000 
      8 O3B       109.0530  112.8850  150.3210 O.3       1 ATP701      0.0000 
      9 PA        109.9410  115.5880  147.9710 P.3       1 ATP701      0.0000 
     10 O1A       110.4980  114.8940  146.7720 O.co2     1 ATP701      0.0000 
     11 O2A       110.8870  116.0140  149.0440 O.co2     1 ATP701      0.0000 
     12 O3A       108.8060  114.6610  148.6220 O.3       1 ATP701      0.0000 
     13 O5'       109.0710  116.8510  147.4970 O.3       1 ATP701      0.0000 
     14 C5'       109.7490  117.9540  146.8450 C.3       1 ATP701      0.0000 
     15 C4'       108.7270  118.8630  146.2080 C.3       1 ATP701      0.0000 
     16 O4'       109.3240  119.5200  145.0600 O.3       1 ATP701      0.0000 
     17 C3'       107.4550  118.1810  145.6820 C.3       1 ATP701      0.0000 
     18 O3'       106.4050  118.2410  146.6390 O.3       1 ATP701      0.0000 
     19 C2'       107.1260  119.0010  144.4330 C.3       1 ATP701      0.0000 
     20 O2'       106.3940  120.1720  144.7230 O.3       1 ATP701      0.0000 
     21 C1'       108.5240  119.3230  143.9170 C.3       1 ATP701      0.0000 
     22 N9        109.1190  118.2530  143.1250 N.pl3     1 ATP701      0.0000 
     23 C8        109.5070  117.0070  143.5540 C.2       1 ATP701      0.0000 
     24 N7        110.0100  116.2750  142.5860 N.2       1 ATP701      0.0000 
     25 C5        109.9490  117.0880  141.4610 C.ar      1 ATP701      0.0000 
     26 C6        110.3290  116.8910  140.1200 C.ar      1 ATP701      0.0000 
     27 N6        110.8700  115.7650  139.6610 N.pl3     1 ATP701      0.0000 
     28 N1        110.1250  117.9160  139.2580 N.ar      1 ATP701      0.0000 
     29 C2        109.5800  119.0470  139.7250 C.ar      1 ATP701      0.0000 
     30 N3        109.1850  119.3450  140.9590 N.ar      1 ATP701      0.0000 
     31 C4        109.4000  118.3100  141.7870 C.ar      1 ATP701      0.0000 
@<TRIPOS>BOND
     1    1    2 ar   
     2    1    3 ar   
     3    1    4 ar   
     4    1    8 1    
     5    5    6 ar   
     6    5    7 ar   
     7    5    8 1    
     8    5   12 1    
     9    9   10 ar   
    10    9   11 ar   
    11    9   12 1    
    12    9   13 1    
    13   13   14 1    
    14   14   15 1    
    15   15   16 1    
    16   15   17 1    
    17   16   21 1    
    18   17   18 1    
    19   17   19 1    
    20   19   20 1    
    21   19   21 1    
    22   21   22 1    
    23   22   23 1    
    24   22   31 1    
    25   23   24 2    
    26   24   25 1    
    27   25   26 ar   
    28   25   31 ar   
    29   26   27 1    
    30   26   28 ar   
    31   28   29 ar   
    32   29   30 ar   
    33   30   31 ar   
@<TRIPOS>SUBSTRUCTURE
     1 ATP701      1 GROUP   
@<TRIPOS>SET
ATOM$ORANGE STATIC     ATOMS   COLORGROUP SYSTEM 
20 14 14 15 15 17 17 19 19 21 21 23 23 25 25 26 26 29 \
29 31 31 

