#    Name: 6cqy_2_HI6
#    Modification time : Fri May 22 19:25:31 2020

@<TRIPOS>MOLECULE
6cqy_2_HI6
   21    22     1     0     0
SMALL
NO_CHARGES


@<TRIPOS>ATOM
      1 O3        -21.5130  -36.5310   28.5150 O.2       1 HI6605      0.0000 
      2 C14       -20.3650  -36.5320   28.8010 C.2       1 HI6605      0.0000 
      3 N4        -19.8010  -35.4400   29.5700 N.am      1 HI6605      0.0000 
      4 C11       -19.4650  -37.6820   28.3670 C.ar      1 HI6605      0.0000 
      5 C10       -19.9710  -38.7260   27.6650 C.ar      1 HI6605      0.0000 
      6 C9        -19.1350  -39.7600   27.2780 C.ar      1 HI6605      0.0000 
      7 N3        -17.8260  -39.7170   27.6090 N.pl3     1 HI6605      0.0000 
      8 C13       -17.3240  -38.6810   28.3100 C.ar      1 HI6605      0.0000 
      9 C12       -18.1540  -37.6480   28.6980 C.ar      1 HI6605      0.0000 
     10 C8        -16.9400  -40.7870   27.2170 C.3       1 HI6605      0.0000 
     11 O2        -17.1770  -41.8850   28.0410 O.3       1 HI6605      0.0000 
     12 C7        -16.9470  -43.0870   27.3770 C.3       1 HI6605      0.0000 
     13 N2        -15.5730  -43.4900   27.5880 N.pl3     1 HI6605      0.0000 
     14 C2        -14.6740  -43.3870   26.5820 C.ar      1 HI6605      0.0000 
     15 C1        -15.1140  -42.8480   25.2220 C.2       1 HI6605      0.0000 
     16 N1        -14.2740  -42.5870   24.3370 N.2       1 HI6605      0.0000 
     17 O1        -14.7110  -42.0930   23.0980 O.3       1 HI6605      0.0000 
     18 C3        -13.3600  -43.7700   26.7870 C.ar      1 HI6605      0.0000 
     19 C4        -12.9830  -44.2460   27.9970 C.ar      1 HI6605      0.0000 
     20 C5        -13.8880  -44.3510   29.0000 C.ar      1 HI6605      0.0000 
     21 C6        -15.1990  -43.9670   28.7940 C.ar      1 HI6605      0.0000 
@<TRIPOS>BOND
     1    1    2 2    
     2    2    3 am   
     3    2    4 1    
     4    4    5 ar   
     5    4    9 ar   
     6    5    6 ar   
     7    6    7 ar   
     8    7    8 ar   
     9    7   10 1    
    10    8    9 ar   
    11   10   11 1    
    12   11   12 1    
    13   12   13 1    
    14   13   14 ar   
    15   13   21 ar   
    16   14   15 1    
    17   14   18 ar   
    18   15   16 2    
    19   16   17 1    
    20   18   19 ar   
    21   19   20 ar   
    22   20   21 ar   
@<TRIPOS>SUBSTRUCTURE
     1 HI6605      1 GROUP   
@<TRIPOS>SET

