#    Name: 6cqy_2_HI6_CAVITY_N1_8
#    Modification time : Fri May 22 19:25:32 2020

@<TRIPOS>MOLECULE
6cqy_2_HI6_CAVITY_N1_8
   84     0     6     0     0
SMALL
NO_CHARGES


@<TRIPOS>ATOM
      1 OG        -23.3100  -42.2900   28.6700 O.3       1 SER1        0.0000 
      2 OG        -22.9000  -43.6500   28.1800 O.3       1 SER1        0.0000 
      3 OG        -22.0800  -40.0700   28.1300 O.3       1 SER1        0.0000 
      4 OG        -21.6600  -41.4300   27.6500 O.3       1 SER1        0.0000 
      5 OG        -21.2500  -42.7900   27.1700 O.3       1 SER1        0.0000 
      6 OG        -20.2400  -41.1200   28.0000 O.3       1 SER1        0.0000 
      7 OG        -19.8300  -42.4800   27.5200 O.3       1 SER1        0.0000 
      8 OG        -16.9800  -41.8700   28.2400 O.3       1 SER1        0.0000 
      9 OG        -16.7500  -41.3200   26.8600 O.3       1 SER1        0.0000 
     10 OG        -15.3300  -41.0100   27.2200 O.3       1 SER1        0.0000 
     11 OG        -14.9200  -42.3700   26.7300 O.3       1 SER1        0.0000 
     12 OG        -13.3000  -43.9800   27.9800 O.3       1 SER1        0.0000 
     13 OG        -13.4900  -42.0600   27.0900 O.3       1 SER1        0.0000 
     14 OG        -12.5200  -42.8700   30.2000 O.3       1 SER1        0.0000 
     15 OG        -12.0700  -41.7600   27.4500 O.3       1 SER1        0.0000 
     16 OG        -10.9000  -44.4800   31.4500 O.3       1 SER1        0.0000 
     17 OG        -10.4900  -45.8400   30.9600 O.3       1 SER1        0.0000 
     18 OG        -11.0900  -42.5600   30.5500 O.3       1 SER1        0.0000 
     19 OG        -10.8700  -42.0100   29.1800 O.3       1 SER1        0.0000 
     20 OG         -9.0300  -43.0600   29.0500 O.3       1 SER1        0.0000 
     21 OG         -8.8100  -42.5000   27.6800 O.3       1 SER1        0.0000 
     22 OG         -7.6100  -42.7500   29.4100 O.3       1 SER1        0.0000 
     23 N         -20.6100  -43.5900   25.3100 N.am      2 ALA2        0.0000 
     24 N         -20.3900  -43.0400   23.9300 N.am      2 ALA2        0.0000 
     25 O         -19.3800  -41.3700   24.7700 O.2       2 ALA2        0.0000 
     26 O         -18.5900  -40.2600   26.9900 O.2       2 ALA2        0.0000 
     27 O         -18.1800  -41.6200   26.5000 O.2       2 ALA2        0.0000 
     28 O         -17.9500  -41.0700   25.1300 O.2       2 ALA2        0.0000 
     29 N          -8.6500  -46.8900   30.8400 N.am      2 ALA2        0.0000 
     30 O          -7.8300  -43.3100   30.7800 O.2       2 ALA2        0.0000 
     31 NZ        -18.4000  -42.1800   27.8800 N.4       3 LYS4        0.0000 
     32 CZ        -20.8400  -44.1500   26.6800 C.ar      4 PHE5        0.0000 
     33 CZ        -21.8500  -39.5200   26.7600 C.ar      4 PHE5        0.0000 
     34 CZ        -21.4400  -40.8700   26.2700 C.ar      4 PHE5        0.0000 
     35 CZ        -20.8000  -41.6800   24.4200 C.ar      4 PHE5        0.0000 
     36 CZ        -19.4100  -43.8400   27.0400 C.ar      4 PHE5        0.0000 
     37 CZ        -20.4300  -39.2100   27.1100 C.ar      4 PHE5        0.0000 
     38 CZ        -20.0100  -40.5700   26.6300 C.ar      4 PHE5        0.0000 
     39 CZ        -19.1900  -43.2900   25.6700 C.ar      4 PHE5        0.0000 
     40 CZ        -18.8100  -40.8200   28.3600 C.ar      4 PHE5        0.0000 
     41 CZ        -17.9900  -43.5400   27.4000 C.ar      4 PHE5        0.0000 
     42 CZ        -19.0000  -38.9000   27.4700 C.ar      4 PHE5        0.0000 
     43 CZ        -17.7700  -42.9800   26.0200 C.ar      4 PHE5        0.0000 
     44 CZ        -17.3900  -40.5100   28.7200 C.ar      4 PHE5        0.0000 
     45 CZ        -16.5700  -43.2300   27.7500 C.ar      4 PHE5        0.0000 
     46 CZ        -17.1700  -39.9600   27.3400 C.ar      4 PHE5        0.0000 
     47 CZ        -16.3400  -42.6700   26.3800 C.ar      4 PHE5        0.0000 
     48 CZ        -15.9300  -44.0300   25.9000 C.ar      4 PHE5        0.0000 
     49 CZ        -16.5300  -40.7600   25.4900 C.ar      4 PHE5        0.0000 
     50 CZ        -14.7300  -44.2800   27.6300 C.ar      4 PHE5        0.0000 
     51 CZ        -14.5000  -43.7300   26.2500 C.ar      4 PHE5        0.0000 
     52 CZ        -14.0900  -45.0900   25.7700 C.ar      4 PHE5        0.0000 
     53 CZ        -15.1000  -40.4500   25.8400 C.ar      4 PHE5        0.0000 
     54 CZ        -14.6900  -41.8100   25.3600 C.ar      4 PHE5        0.0000 
     55 CZ        -14.2800  -43.1700   24.8800 C.ar      4 PHE5        0.0000 
     56 CZ        -13.8700  -44.5300   24.3900 C.ar      4 PHE5        0.0000 
     57 CZ        -13.0800  -43.4200   26.6100 C.ar      4 PHE5        0.0000 
     58 CZ        -12.6700  -44.7800   26.1300 C.ar      4 PHE5        0.0000 
     59 CZ        -13.2700  -41.5100   25.7200 C.ar      4 PHE5        0.0000 
     60 CZ        -12.8500  -42.8700   25.2300 C.ar      4 PHE5        0.0000 
     61 CZ        -12.1000  -44.2300   29.7100 C.ar      4 PHE5        0.0000 
     62 CZ        -11.8800  -43.6700   28.3400 C.ar      4 PHE5        0.0000 
     63 CZ        -11.6500  -43.1200   26.9600 C.ar      4 PHE5        0.0000 
     64 CZ        -10.6800  -43.9200   30.0700 C.ar      4 PHE5        0.0000 
     65 CZ        -10.2700  -45.2800   29.5900 C.ar      4 PHE5        0.0000 
     66 CZ        -10.4500  -43.3700   28.7000 C.ar      4 PHE5        0.0000 
     67 CZ        -10.0400  -44.7300   28.2100 C.ar      4 PHE5        0.0000 
     68 CZ        -10.6400  -41.4500   27.8000 C.ar      4 PHE5        0.0000 
     69 CZ        -10.2300  -42.8100   27.3200 C.ar      4 PHE5        0.0000 
     70 CZ         -9.7000  -44.7300   33.1800 C.ar      4 PHE5        0.0000 
     71 CZ         -9.4800  -44.1700   31.8000 C.ar      4 PHE5        0.0000 
     72 CZ         -9.0700  -45.5300   31.3200 C.ar      4 PHE5        0.0000 
     73 CZ         -8.8400  -44.9800   29.9400 C.ar      4 PHE5        0.0000 
     74 CZ         -8.6200  -44.4200   28.5700 C.ar      4 PHE5        0.0000 
     75 CZ         -7.8700  -45.7800   33.0500 C.ar      4 PHE5        0.0000 
     76 CZ         -8.0500  -43.8700   32.1600 C.ar      4 PHE5        0.0000 
     77 CZ         -7.6400  -45.2300   31.6800 C.ar      4 PHE5        0.0000 
     78 CZ         -7.4200  -44.6700   30.3000 C.ar      4 PHE5        0.0000 
     79 CA         -9.6700  -42.2600   30.9100 C.3       5 GLY6        0.0000 
     80 CA         -9.4400  -41.7000   29.5300 C.3       5 GLY6        0.0000 
     81 DU        -21.0300  -42.2300   25.7900 H         6 CUB7        0.0000 
     82 DU        -19.6000  -41.9300   26.1500 H         6 CUB7        0.0000 
     83 DU        -16.1200  -42.1200   25.0000 H         6 CUB7        0.0000 
     84 DU         -9.2500  -43.6200   30.4300 H         6 CUB7        0.0000 
@<TRIPOS>BOND
@<TRIPOS>SUBSTRUCTURE
     1 SER1        1 GROUP   
     2 ALA2       23 GROUP   
     3 LYS4       31 GROUP   
     4 PHE5       32 GROUP   
     5 GLY6       79 GROUP   
     6 CUB7       81 GROUP   
@<TRIPOS>SET

