#    Name: 6h1s_2_TPF
#    Modification time : Fri May 22 19:24:49 2020

@<TRIPOS>MOLECULE
6h1s_2_TPF
   22    24     1     0     0
SMALL
NO_CHARGES


@<TRIPOS>ATOM
      1 O          49.2260  -15.0930  133.2380 O.3       1 TPF501      0.0000 
      2 C1         50.2390  -14.6280  132.3530 C.3       1 TPF501      0.0000 
      3 C2         51.1800  -13.6110  133.0250 C.3       1 TPF501      0.0000 
      4 C5         51.0130  -15.8370  131.8480 C.3       1 TPF501      0.0000 
      5 C8         49.5880  -14.0630  131.1430 C.ar      1 TPF501      0.0000 
      6 N1         51.7590  -14.0740  134.3050 N.pl3     1 TPF501      0.0000 
      7 C3         51.3110  -14.8990  135.2770 C.2       1 TPF501      0.0000 
      8 N3         53.0150  -13.5550  134.6530 N.2       1 TPF501      0.0000 
      9 N2         52.2960  -14.9230  136.2220 N.2       1 TPF501      0.0000 
     10 C4         53.3140  -14.1120  135.8730 C.2       1 TPF501      0.0000 
     11 N4         50.2460  -17.0200  131.3640 N.pl3     1 TPF501      0.0000 
     12 C6         49.5300  -17.9800  131.9480 C.2       1 TPF501      0.0000 
     13 N6         50.2810  -17.2630  130.0120 N.2       1 TPF501      0.0000 
     14 N5         49.1060  -18.8550  130.9960 N.2       1 TPF501      0.0000 
     15 C7         49.6020  -18.4130  129.8270 C.2       1 TPF501      0.0000 
     16 C9         48.2600  -13.7300  131.1870 C.ar      1 TPF501      0.0000 
     17 C13        50.3060  -13.8700  129.8730 C.ar      1 TPF501      0.0000 
     18 C10        47.6090  -13.2340  130.0660 C.ar      1 TPF501      0.0000 
     19 C11        48.2810  -13.0520  128.8710 C.ar      1 TPF501      0.0000 
     20 F1         47.5930  -12.5840  127.8130 F         1 TPF501      0.0000 
     21 C12        49.6320  -13.3620  128.7680 C.ar      1 TPF501      0.0000 
     22 F2         51.5920  -14.1890  129.7820 F         1 TPF501      0.0000 
@<TRIPOS>BOND
     1    1    2 1    
     2    2    3 1    
     3    2    4 1    
     4    2    5 1    
     5    3    6 1    
     6    4   11 1    
     7    5   16 ar   
     8    5   17 ar   
     9    6    7 1    
    10    6    8 1    
    11    7    9 2    
    12    8   10 2    
    13    9   10 1    
    14   11   12 1    
    15   11   13 1    
    16   12   14 2    
    17   13   15 2    
    18   14   15 1    
    19   16   18 ar   
    20   17   21 ar   
    21   17   22 1    
    22   18   19 ar   
    23   19   20 1    
    24   19   21 ar   
@<TRIPOS>SUBSTRUCTURE
     1 TPF501      1 GROUP   
@<TRIPOS>SET

