#    Name: 6h1s_1_TPF
#    Modification time : Fri May 22 19:24:42 2020

@<TRIPOS>MOLECULE
6h1s_1_TPF
   22    24     1     0     0
SMALL
NO_CHARGES


@<TRIPOS>ATOM
      1 O          19.3040    9.6420  153.2610 O.3       1 TPF501      0.0000 
      2 C1         19.4500    9.2800  154.6200 C.3       1 TPF501      0.0000 
      3 C2         20.8980    9.0940  154.9760 C.3       1 TPF501      0.0000 
      4 C5         18.9100   10.4060  155.4860 C.3       1 TPF501      0.0000 
      5 C8         18.7850    7.9410  154.7910 C.ar      1 TPF501      0.0000 
      6 N1         21.0240    8.5700  156.3660 N.pl3     1 TPF501      0.0000 
      7 C3         21.0230    7.2750  156.8360 C.2       1 TPF501      0.0000 
      8 N3         21.1890    9.4250  157.4640 N.2       1 TPF501      0.0000 
      9 N2         21.1920    7.2870  158.1950 N.2       1 TPF501      0.0000 
     10 C4         21.3220    8.6210  158.5900 C.2       1 TPF501      0.0000 
     11 N4         19.5120   11.7220  155.1060 N.pl3     1 TPF501      0.0000 
     12 C6         19.2080   12.6260  154.1940 C.2       1 TPF501      0.0000 
     13 N6         20.5500   12.0920  155.8650 N.2       1 TPF501      0.0000 
     14 N5         20.0200   13.6660  154.3420 N.2       1 TPF501      0.0000 
     15 C7         20.7890   13.3180  155.3980 C.2       1 TPF501      0.0000 
     16 C9         18.8950    6.9080  153.8260 C.ar      1 TPF501      0.0000 
     17 C13        18.0280    7.6550  156.0180 C.ar      1 TPF501      0.0000 
     18 C10        18.2780    5.6620  154.0440 C.ar      1 TPF501      0.0000 
     19 C11        17.5460    5.4360  155.2140 C.ar      1 TPF501      0.0000 
     20 F1         16.9100    4.2810  155.5150 F         1 TPF501      0.0000 
     21 C12        17.4350    6.4050  156.1840 C.ar      1 TPF501      0.0000 
     22 F2         17.8520    8.5210  157.0300 F         1 TPF501      0.0000 
@<TRIPOS>BOND
     1    1    2 1    
     2    2    3 1    
     3    2    4 1    
     4    2    5 1    
     5    3    6 1    
     6    4   11 1    
     7    5   16 ar   
     8    5   17 ar   
     9    6    7 1    
    10    6    8 1    
    11    7    9 2    
    12    8   10 2    
    13    9   10 1    
    14   11   12 1    
    15   11   13 1    
    16   12   14 2    
    17   13   15 2    
    18   14   15 1    
    19   16   18 ar   
    20   17   21 ar   
    21   17   22 1    
    22   18   19 ar   
    23   19   20 1    
    24   19   21 ar   
@<TRIPOS>SUBSTRUCTURE
     1 TPF501      1 GROUP   
@<TRIPOS>SET

