#    Name: 6o8g_1_ADP_CAVITY_N1_ALL
#    Modification time : Fri May 22 19:26:05 2020

@<TRIPOS>MOLECULE
6o8g_1_ADP_CAVITY_N1_ALL
  101     0     7     0     0
SMALL
NO_CHARGES


@<TRIPOS>ATOM
      1 OG        -13.0600  -47.1300   40.8300 O.3       1 SER1        0.0000 
      2 OG        -13.0300  -46.4900   39.4800 O.3       1 SER1        0.0000 
      3 OG        -12.0800  -46.7900   42.6800 O.3       1 SER1        0.0000 
      4 OG        -12.0500  -46.1400   41.3300 O.3       1 SER1        0.0000 
      5 OG        -16.5100  -43.1000   44.3400 O.3       1 SER1        0.0000 
      6 OG         -9.9600  -46.7100   42.7600 O.3       1 SER1        0.0000 
      7 OG        -11.0700  -45.7900   43.1700 O.3       1 SER1        0.0000 
      8 OG        -14.3900  -43.0300   44.4200 O.3       1 SER1        0.0000 
      9 OG         -5.7500  -47.2200   44.2700 O.3       1 SER1        0.0000 
     10 OG         -5.7200  -46.5700   42.9200 O.3       1 SER1        0.0000 
     11 OG         -3.6000  -46.5000   43.0000 O.3       1 SER1        0.0000 
     12 OG         -4.7400  -46.2300   44.7700 O.3       1 SER1        0.0000 
     13 O         -11.8900  -46.7600   37.7100 O.2       2 ALA2        0.0000 
     14 N         -13.0000  -45.8400   38.1200 N.am      2 ALA2        0.0000 
     15 O         -16.3500  -43.7200   40.7200 O.2       2 ALA2        0.0000 
     16 N         -11.9900  -44.8500   38.6200 N.am      2 ALA2        0.0000 
     17 N         -13.0900  -43.9300   39.0300 N.am      2 ALA2        0.0000 
     18 O         -15.3700  -43.3800   42.5700 O.2       2 ALA2        0.0000 
     19 O         -16.4800  -42.4600   42.9900 O.2       2 ALA2        0.0000 
     20 O          -8.8800  -48.2800   43.7000 O.2       2 ALA2        0.0000 
     21 O          -9.9900  -47.3600   44.1100 O.2       2 ALA2        0.0000 
     22 O         -11.1000  -46.4400   44.5300 O.2       2 ALA2        0.0000 
     23 N         -10.9800  -43.8600   39.1100 N.am      2 ALA2        0.0000 
     24 N         -12.2000  -45.5200   44.9400 N.am      2 ALA2        0.0000 
     25 O         -13.3100  -44.6000   45.3600 O.2       2 ALA2        0.0000 
     26 O         -13.2800  -43.9500   44.0100 O.2       2 ALA2        0.0000 
     27 O          -6.7600  -48.2100   43.7800 O.2       2 ALA2        0.0000 
     28 N         -10.0900  -45.4500   45.0200 N.am      2 ALA2        0.0000 
     29 N         -11.1900  -44.5300   45.4400 N.am      2 ALA2        0.0000 
     30 N          -8.1000  -44.1100   47.3700 N.am      2 ALA2        0.0000 
     31 OD1       -13.2100  -46.5100   44.4500 O.co2     3 ASP3        0.0000 
     32 OD1       -13.1800  -45.8700   43.0900 O.co2     3 ASP3        0.0000 
     33 OD1       -14.2900  -44.9400   43.5100 O.co2     3 ASP3        0.0000 
     34 OD1       -15.4000  -44.0200   43.9300 O.co2     3 ASP3        0.0000 
     35 OD1       -10.0600  -44.8000   43.6700 O.co2     3 ASP3        0.0000 
     36 OD1       -10.0300  -44.1600   42.3200 O.co2     3 ASP3        0.0000 
     37 OD1       -11.1600  -43.8800   44.0900 O.co2     3 ASP3        0.0000 
     38 OD1       -11.1300  -43.2300   42.7300 O.co2     3 ASP3        0.0000 
     39 OD1       -12.2700  -42.9600   44.5000 O.co2     3 ASP3        0.0000 
     40 OD1        -9.0800  -44.4600   45.5200 O.co2     3 ASP3        0.0000 
     41 OD1        -9.0500  -43.8100   44.1700 O.co2     3 ASP3        0.0000 
     42 OD1        -8.0700  -43.4600   46.0200 O.co2     3 ASP3        0.0000 
     43 OD1        -7.0600  -42.4700   46.5100 O.co2     3 ASP3        0.0000 
     44 OD1        -7.0300  -41.8300   45.1600 O.co2     3 ASP3        0.0000 
     45 NZ        -15.1400  -46.5600   39.4000 N.4       4 LYS4        0.0000 
     46 NZ        -16.2800  -46.2800   41.1600 N.4       4 LYS4        0.0000 
     47 NZ        -16.2500  -45.6400   39.8100 N.4       4 LYS4        0.0000 
     48 NZ        -15.2700  -45.2900   41.6600 N.4       4 LYS4        0.0000 
     49 NZ        -16.4100  -45.0200   43.4300 N.4       4 LYS4        0.0000 
     50 NZ        -16.3800  -44.3700   42.0800 N.4       4 LYS4        0.0000 
     51 NZ        -17.5200  -44.0900   43.8400 N.4       4 LYS4        0.0000 
     52 NZ        -17.4900  -43.4500   42.4900 N.4       4 LYS4        0.0000 
     53 NZ        -10.8800  -45.7700   38.2000 N.4       4 LYS4        0.0000 
     54 NZ        -12.0200  -45.4900   39.9700 N.4       4 LYS4        0.0000 
     55 NZ         -9.9300  -46.0700   41.4100 N.4       4 LYS4        0.0000 
     56 NZ        -11.0100  -44.5000   40.4700 N.4       4 LYS4        0.0000 
     57 NZ        -12.1400  -44.2300   42.2400 N.4       4 LYS4        0.0000 
     58 NZ        -12.1100  -43.5800   40.8800 N.4       4 LYS4        0.0000 
     59 NZ        -12.0800  -42.9300   39.5300 N.4       4 LYS4        0.0000 
     60 NZ        -13.2500  -43.3100   42.6500 N.4       4 LYS4        0.0000 
     61 NZ        -13.2200  -42.6600   41.3000 N.4       4 LYS4        0.0000 
     62 NZ        -14.3600  -42.3900   43.0700 N.4       4 LYS4        0.0000 
     63 NZ         -5.5900  -47.8400   40.6600 N.4       4 LYS4        0.0000 
     64 NZ         -6.7300  -47.5600   42.4200 N.4       4 LYS4        0.0000 
     65 NZ         -7.8400  -46.6400   42.8400 N.4       4 LYS4        0.0000 
     66 NZ         -8.9200  -45.0800   41.9000 N.4       4 LYS4        0.0000 
     67 NZ        -10.0000  -43.5100   40.9600 N.4       4 LYS4        0.0000 
     68 NZ        -12.2400  -42.3100   43.1500 N.4       4 LYS4        0.0000 
     69 NZ         -5.6900  -45.9300   41.5700 N.4       4 LYS4        0.0000 
     70 CZ         -4.6100  -47.4900   42.5100 C.ar      5 PHE5        0.0000 
     71 CZ         -4.5800  -46.8500   41.1500 C.ar      5 PHE5        0.0000 
     72 CA        -14.0400  -47.4800   38.9800 C.3       6 GLY6        0.0000 
     73 CA        -15.1100  -45.9100   38.0400 C.3       6 GLY6        0.0000 
     74 CA        -11.9200  -47.4100   39.0600 C.3       6 GLY6        0.0000 
     75 CA        -14.1000  -44.9200   38.5400 C.3       6 GLY6        0.0000 
     76 CA        -15.3000  -45.9400   43.0100 C.3       6 GLY6        0.0000 
     77 CA        -15.2400  -44.6400   40.3100 C.3       6 GLY6        0.0000 
     78 CA        -15.2100  -44.0000   38.9500 C.3       6 GLY6        0.0000 
     79 CA        -12.1000  -47.4300   44.0300 C.3       6 GLY6        0.0000 
     80 CA        -14.2300  -43.6500   40.8000 C.3       6 GLY6        0.0000 
     81 CA        -14.2000  -43.0100   39.4500 C.3       6 GLY6        0.0000 
     82 CA         -8.8500  -47.6400   42.3400 C.3       6 GLY6        0.0000 
     83 CA         -7.8700  -47.2900   44.1900 C.3       6 GLY6        0.0000 
     84 CA         -8.9800  -46.3700   44.6100 C.3       6 GLY6        0.0000 
     85 CA         -6.8900  -46.9400   46.0400 C.3       6 GLY6        0.0000 
     86 CA         -8.0000  -46.0200   46.4600 C.3       6 GLY6        0.0000 
     87 CA         -7.9700  -45.3800   45.1000 C.3       6 GLY6        0.0000 
     88 CA         -9.1100  -45.1000   46.8700 C.3       6 GLY6        0.0000 
     89 CA         -6.9900  -45.0300   46.9500 C.3       6 GLY6        0.0000 
     90 DU        -14.1600  -46.2100   41.2500 H         7 CUB7        0.0000 
     91 DU        -14.1300  -45.5700   39.8900 H         7 CUB7        0.0000 
     92 DU        -13.1500  -45.2200   41.7400 H         7 CUB7        0.0000 
     93 DU        -13.1200  -44.5700   40.3900 H         7 CUB7        0.0000 
     94 DU        -14.2600  -44.3000   42.1600 H         7 CUB7        0.0000 
     95 DU        -11.0400  -45.1500   41.8200 H         7 CUB7        0.0000 
     96 DU        -12.1700  -44.8700   43.5900 H         7 CUB7        0.0000 
     97 DU         -8.9500  -45.7200   43.2600 H         7 CUB7        0.0000 
     98 DU         -6.8600  -46.3000   44.6900 H         7 CUB7        0.0000 
     99 DU         -6.8300  -45.6500   43.3400 H         7 CUB7        0.0000 
    100 DU         -7.9400  -44.7300   43.7500 H         7 CUB7        0.0000 
    101 DU         -6.9600  -44.3800   45.6000 H         7 CUB7        0.0000 
@<TRIPOS>BOND
@<TRIPOS>SUBSTRUCTURE
     1 SER1        1 GROUP   
     2 ALA2       13 GROUP   
     3 ASP3       31 GROUP   
     4 LYS4       45 GROUP   
     5 PHE5       70 GROUP   
     6 GLY6       72 GROUP   
     7 CUB7       90 GROUP   
@<TRIPOS>SET

