#    Name: 6o8g_1_ADP
#    Modification time : Fri May 22 19:26:03 2020

@<TRIPOS>MOLECULE
6o8g_1_ADP
   27    29     1     0     1
SMALL
NO_CHARGES


@<TRIPOS>ATOM
      1 PB        -11.7120  -45.0360   44.9950 P.3       1 ADP600      0.0000 
      2 O1B       -11.1650  -45.5950   43.7000 O.co2     1 ADP600      0.0000 
      3 O2B       -12.4130  -43.7050   44.8630 O.co2     1 ADP600      0.0000 
      4 O3B       -12.5010  -46.0320   45.8060 O.co2     1 ADP600      0.0000 
      5 PA         -8.9590  -44.4980   45.1710 P.3       1 ADP600      0.0000 
      6 O1A        -9.0690  -43.4130   44.1330 O.co2     1 ADP600      0.0000 
      7 O2A        -8.4610  -45.8580   44.7450 O.co2     1 ADP600      0.0000 
      8 O3A       -10.4020  -44.6970   45.8720 O.3       1 ADP600      0.0000 
      9 O5'        -8.0060  -44.0180   46.3830 O.3       1 ADP600      0.0000 
     10 C5'        -7.3620  -42.7440   46.4220 C.3       1 ADP600      0.0000 
     11 C4'        -5.8660  -42.8810   46.1430 C.3       1 ADP600      0.0000 
     12 O4'        -5.2640  -43.6880   47.1590 O.3       1 ADP600      0.0000 
     13 C3'        -5.5460  -43.5200   44.7900 C.3       1 ADP600      0.0000 
     14 O3'        -4.7280  -42.6540   43.9910 O.3       1 ADP600      0.0000 
     15 C2'        -4.8180  -44.8140   45.1010 C.3       1 ADP600      0.0000 
     16 O2'        -3.6650  -44.9770   44.2630 O.3       1 ADP600      0.0000 
     17 C1'        -4.4360  -44.7050   46.5810 C.3       1 ADP600      0.0000 
     18 N9         -4.5840  -45.9830   47.3410 N.pl3     1 ADP600      0.0000 
     19 C8         -5.5580  -46.9110   47.2070 C.2       1 ADP600      0.0000 
     20 N7         -5.3680  -47.9440   48.0660 N.2       1 ADP600      0.0000 
     21 C5         -4.2570  -47.6840   48.7760 C.ar      1 ADP600      0.0000 
     22 C6         -3.4920  -48.3600   49.8520 C.ar      1 ADP600      0.0000 
     23 N6         -3.8990  -49.5520   50.3440 N.pl3     1 ADP600      0.0000 
     24 N1         -2.3760  -47.7490   50.3210 N.ar      1 ADP600      0.0000 
     25 C2         -1.9550  -46.5580   49.8390 C.ar      1 ADP600      0.0000 
     26 N3         -2.6060  -45.8910   48.8600 N.ar      1 ADP600      0.0000 
     27 C4         -3.7410  -46.3910   48.2960 C.ar      1 ADP600      0.0000 
@<TRIPOS>BOND
     1    1    2 ar   
     2    1    3 ar   
     3    1    4 ar   
     4    1    8 1    
     5    5    6 ar   
     6    5    7 ar   
     7    5    8 1    
     8    5    9 1    
     9    9   10 1    
    10   10   11 1    
    11   11   12 1    
    12   11   13 1    
    13   12   17 1    
    14   13   14 1    
    15   13   15 1    
    16   15   16 1    
    17   15   17 1    
    18   17   18 1    
    19   18   19 1    
    20   18   27 1    
    21   19   20 2    
    22   20   21 1    
    23   21   22 ar   
    24   21   27 ar   
    25   22   23 1    
    26   22   24 ar   
    27   24   25 ar   
    28   25   26 ar   
    29   26   27 ar   
@<TRIPOS>SUBSTRUCTURE
     1 ADP600      1 GROUP   
@<TRIPOS>SET
ATOM$ORANGE STATIC     ATOMS   COLORGROUP SYSTEM 
20 10 10 11 11 13 13 15 15 17 17 19 19 21 21 22 22 25 \
25 27 27 

