#    Name: 6o8g_2_ADP_CAVITY_N1_6
#    Modification time : Fri May 22 19:26:14 2020

@<TRIPOS>MOLECULE
6o8g_2_ADP_CAVITY_N1_6
   82     0     6     0     0
SMALL
NO_CHARGES


@<TRIPOS>ATOM
      1 OG        -21.8100 -108.4600   18.0100 O.3       1 SER1        0.0000 
      2 OG        -22.8900 -106.8900   17.0700 O.3       1 SER1        0.0000 
      3 OG        -20.7700 -106.8200   17.1500 O.3       1 SER1        0.0000 
      4 OG        -16.6300 -104.7600   18.2200 O.3       1 SER1        0.0000 
      5 OG        -17.7700 -104.4900   19.9900 O.3       1 SER1        0.0000 
      6 OG        -17.7400 -103.8400   18.6400 O.3       1 SER1        0.0000 
      7 OG        -18.8800 -103.5700   20.4100 O.3       1 SER1        0.0000 
      8 OG        -18.8500 -102.9200   19.0500 O.3       1 SER1        0.0000 
      9 OG        -19.9600 -102.0000   19.4700 O.3       1 SER1        0.0000 
     10 OG        -15.6200 -103.7700   18.7200 O.3       1 SER1        0.0000 
     11 O         -22.9500 -108.1800   19.7800 O.2       2 ALA2        0.0000 
     12 O         -21.9400 -107.1900   20.2700 O.2       2 ALA2        0.0000 
     13 O         -23.0400 -106.2700   20.6900 O.2       2 ALA2        0.0000 
     14 O         -18.6200 -106.1000   15.8800 O.2       2 ALA2        0.0000 
     15 O         -19.7300 -105.1800   16.2900 O.2       2 ALA2        0.0000 
     16 N         -17.6100 -105.1100   16.3700 N.am      2 ALA2        0.0000 
     17 N         -18.7200 -104.1900   16.7900 N.am      2 ALA2        0.0000 
     18 N         -19.9500 -105.8500   22.6200 N.am      2 ALA2        0.0000 
     19 N         -17.8300 -105.7800   22.7000 N.am      2 ALA2        0.0000 
     20 O         -17.7100 -103.2000   17.2800 O.2       2 ALA2        0.0000 
     21 N         -18.9400 -104.8600   23.1100 N.am      2 ALA2        0.0000 
     22 OD1       -22.9200 -107.5400   18.4200 O.co2     3 ASP3        0.0000 
     23 OD1       -21.8800 -105.9000   17.5600 O.co2     3 ASP3        0.0000 
     24 OD1       -21.8500 -105.2500   16.2100 O.co2     3 ASP3        0.0000 
     25 OD1       -22.9900 -104.9800   17.9800 O.co2     3 ASP3        0.0000 
     26 OD1       -19.7600 -105.8300   17.6500 O.co2     3 ASP3        0.0000 
     27 OD1       -20.8700 -104.9100   18.0600 O.co2     3 ASP3        0.0000 
     28 OD1       -16.5600 -107.3200   18.6600 O.co2     3 ASP3        0.0000 
     29 OD1       -16.5300 -106.6800   17.3100 O.co2     3 ASP3        0.0000 
     30 OD1       -16.5000 -106.0300   15.9600 O.co2     3 ASP3        0.0000 
     31 OD1       -17.6400 -105.7600   17.7300 O.co2     3 ASP3        0.0000 
     32 OD1       -19.8600 -103.9100   18.5600 O.co2     3 ASP3        0.0000 
     33 OD1       -19.8300 -103.2700   17.2000 O.co2     3 ASP3        0.0000 
     34 OD1       -20.9700 -102.9900   18.9700 O.co2     3 ASP3        0.0000 
     35 NZ        -24.0200 -106.6200   18.8400 N.4       4 LYS4        0.0000 
     36 NZ        -24.0000 -105.9700   17.4800 N.4       4 LYS4        0.0000 
     37 NZ        -20.8300 -108.1100   19.8600 N.4       4 LYS4        0.0000 
     38 NZ        -20.8000 -107.4700   18.5000 N.4       4 LYS4        0.0000 
     39 NZ        -23.0200 -105.6200   19.3300 N.4       4 LYS4        0.0000 
     40 NZ        -19.7900 -106.4700   19.0000 N.4       4 LYS4        0.0000 
     41 NZ        -22.0100 -104.6300   19.8300 N.4       4 LYS4        0.0000 
     42 NZ        -17.6700 -106.4000   19.0800 N.4       4 LYS4        0.0000 
     43 NZ        -18.8400 -106.7700   22.2000 N.4       4 LYS4        0.0000 
     44 NZ        -18.8100 -106.1300   20.8500 N.4       4 LYS4        0.0000 
     45 NZ        -18.7800 -105.4800   19.4900 N.4       4 LYS4        0.0000 
     46 NZ        -21.0000 -103.6400   20.3300 N.4       4 LYS4        0.0000 
     47 NZ        -15.5800 -106.9800   20.5100 N.4       4 LYS4        0.0000 
     48 NZ        -16.7200 -106.7000   22.2800 N.4       4 LYS4        0.0000 
     49 NZ        -16.6900 -106.0600   20.9300 N.4       4 LYS4        0.0000 
     50 NZ        -17.8000 -105.1300   21.3400 N.4       4 LYS4        0.0000 
     51 NZ        -19.9900 -102.6500   20.8200 N.4       4 LYS4        0.0000 
     52 NZ        -14.5700 -105.9800   21.0100 N.4       4 LYS4        0.0000 
     53 NZ        -14.5400 -105.3400   19.6600 N.4       4 LYS4        0.0000 
     54 NZ        -15.6500 -104.4200   20.0700 N.4       4 LYS4        0.0000 
     55 NZ        -17.9300 -103.8700   23.6100 N.4       4 LYS4        0.0000 
     56 NZ        -17.9000 -103.2200   22.2600 N.4       4 LYS4        0.0000 
     57 NZ        -20.0500 -100.0900   20.3800 N.4       4 LYS4        0.0000 
     58 NZ        -20.0300  -99.4400   19.0300 N.4       4 LYS4        0.0000 
     59 CA        -20.9600 -106.8400   22.1200 C.3       5 GLY6        0.0000 
     60 CA        -20.9300 -106.2000   20.7700 C.3       5 GLY6        0.0000 
     61 CA        -22.0300 -105.2800   21.1800 C.3       5 GLY6        0.0000 
     62 CA        -21.0300 -104.2900   21.6800 C.3       5 GLY6        0.0000 
     63 CA        -15.4900 -105.0400   16.4500 C.3       5 GLY6        0.0000 
     64 CA        -16.6000 -104.1200   16.8700 C.3       5 GLY6        0.0000 
     65 CA        -18.8200 -102.2800   17.7000 C.3       5 GLY6        0.0000 
     66 CA        -20.0500 -103.9400   23.5300 C.3       5 GLY6        0.0000 
     67 CA        -20.0200 -103.2900   22.1700 C.3       5 GLY6        0.0000 
     68 CA        -19.9300 -101.3500   18.1100 C.3       5 GLY6        0.0000 
     69 CA        -19.0100 -102.3000   22.6700 C.3       5 GLY6        0.0000 
     70 CA        -18.9800 -101.6500   21.3200 C.3       5 GLY6        0.0000 
     71 DU        -21.9100 -106.5400   18.9200 H         6 CUB7        0.0000 
     72 DU        -20.9000 -105.5500   19.4100 H         6 CUB7        0.0000 
     73 DU        -18.7500 -104.8300   18.1400 H         6 CUB7        0.0000 
     74 DU        -19.9200 -105.2100   21.2600 H         6 CUB7        0.0000 
     75 DU        -19.8900 -104.5600   19.9100 H         6 CUB7        0.0000 
     76 DU        -14.4400 -107.2500   18.7400 H         6 CUB7        0.0000 
     77 DU        -14.4100 -106.6100   17.3900 H         6 CUB7        0.0000 
     78 DU        -15.5500 -106.3300   19.1600 H         6 CUB7        0.0000 
     79 DU        -15.5200 -105.6800   17.8100 H         6 CUB7        0.0000 
     80 DU        -16.6600 -105.4100   19.5800 H         6 CUB7        0.0000 
     81 DU        -18.9100 -104.2100   21.7600 H         6 CUB7        0.0000 
     82 DU        -14.5100 -104.6900   18.3000 H         6 CUB7        0.0000 
@<TRIPOS>BOND
@<TRIPOS>SUBSTRUCTURE
     1 SER1        1 GROUP   
     2 ALA2       11 GROUP   
     3 ASP3       22 GROUP   
     4 LYS4       35 GROUP   
     5 GLY6       59 GROUP   
     6 CUB7       71 GROUP   
@<TRIPOS>SET

