#    Name: 6o8g_2_ADP
#    Modification time : Fri May 22 19:26:12 2020

@<TRIPOS>MOLECULE
6o8g_2_ADP
   27    29     1     0     1
SMALL
NO_CHARGES


@<TRIPOS>ATOM
      1 PB        -18.6370 -104.6620   16.5170 P.3       1 ADP601      0.0000 
      2 O1B       -19.6020 -104.8680   15.3750 O.co2     1 ADP601      0.0000 
      3 O2B       -17.9960 -103.2950   16.5670 O.co2     1 ADP601      0.0000 
      4 O3B       -19.1470 -105.1700   17.8480 O.co2     1 ADP601      0.0000 
      5 PA        -16.2040 -105.7170   17.2850 P.3       1 ADP601      0.0000 
      6 O1A       -16.3330 -107.0290   18.0220 O.co2     1 ADP601      0.0000 
      7 O2A       -16.1700 -104.4320   18.0860 O.co2     1 ADP601      0.0000 
      8 O3A       -17.3860 -105.6170   16.1990 O.3       1 ADP601      0.0000 
      9 O5'       -14.9220 -105.7430   16.3190 O.3       1 ADP601      0.0000 
     10 C5'       -14.3730 -106.9590   15.8260 C.3       1 ADP601      0.0000 
     11 C4'       -12.8530 -106.8780   15.8810 C.3       1 ADP601      0.0000 
     12 O4'       -12.3660 -106.2220   14.7050 O.3       1 ADP601      0.0000 
     13 C3'       -12.3290 -106.0990   17.0880 C.3       1 ADP601      0.0000 
     14 O3'       -11.5560 -106.9490   17.9410 O.3       1 ADP601      0.0000 
     15 C2'       -11.4680 -104.9860   16.5190 C.3       1 ADP601      0.0000 
     16 O2'       -10.2160 -104.9030   17.2060 O.3       1 ADP601      0.0000 
     17 C1'       -11.2760 -105.3580   15.0510 C.3       1 ADP601      0.0000 
     18 N9        -11.2380 -104.1800   14.1420 N.pl3     1 ADP601      0.0000 
     19 C8        -12.0980 -103.1430   14.1340 C.2       1 ADP601      0.0000 
     20 N7        -11.7710 -102.2510   13.1650 N.2       1 ADP601      0.0000 
     21 C5        -10.6820 -102.7180   12.5330 C.ar      1 ADP601      0.0000 
     22 C6         -9.8180 -102.2670   11.4180 C.ar      1 ADP601      0.0000 
     23 N6        -10.0750 -101.1030   10.7790 N.pl3     1 ADP601      0.0000 
     24 N1         -8.7750 -103.0550   11.0610 N.ar      1 ADP601      0.0000 
     25 C2         -8.5080 -104.2180   11.6900 C.ar      1 ADP601      0.0000 
     26 N3         -9.2540 -104.6810   12.7150 N.ar      1 ADP601      0.0000 
     27 C4        -10.3320 -103.9920   13.1760 C.ar      1 ADP601      0.0000 
@<TRIPOS>BOND
     1    1    2 ar   
     2    1    3 ar   
     3    1    4 ar   
     4    1    8 1    
     5    5    6 ar   
     6    5    7 ar   
     7    5    8 1    
     8    5    9 1    
     9    9   10 1    
    10   10   11 1    
    11   11   12 1    
    12   11   13 1    
    13   12   17 1    
    14   13   14 1    
    15   13   15 1    
    16   15   16 1    
    17   15   17 1    
    18   17   18 1    
    19   18   19 1    
    20   18   27 1    
    21   19   20 2    
    22   20   21 1    
    23   21   22 ar   
    24   21   27 ar   
    25   22   23 1    
    26   22   24 ar   
    27   24   25 ar   
    28   25   26 ar   
    29   26   27 ar   
@<TRIPOS>SUBSTRUCTURE
     1 ADP601      1 GROUP   
@<TRIPOS>SET
ATOM$ORANGE STATIC     ATOMS   COLORGROUP SYSTEM 
20 10 10 11 11 13 13 15 15 17 17 19 19 21 21 22 22 25 \
25 27 27 

