#    Name: 6ech_2_ATP
#    Modification time : Fri May 22 19:26:38 2020

@<TRIPOS>MOLECULE
6ech_2_ATP
   31    33     1     0     1
SMALL
NO_CHARGES


@<TRIPOS>ATOM
      1 PG         22.1550   -4.4300  -14.3140 P.3       1 ATP606      0.0000 
      2 O1G        22.8400   -5.4870  -15.2390 O.co2     1 ATP606      0.0000 
      3 O2G        22.3830   -3.0230  -14.7670 O.co2     1 ATP606      0.0000 
      4 O3G        20.8230   -4.7470  -13.6340 O.co2     1 ATP606      0.0000 
      5 PB         22.8400   -4.3950  -11.4310 P.3       1 ATP606      0.0000 
      6 O1B        21.7080   -3.5140  -11.0960 O.co2     1 ATP606      0.0000 
      7 O2B        24.1820   -4.1930  -10.6430 O.co2     1 ATP606      0.0000 
      8 O3B        23.1980   -4.3260  -13.0020 O.3       1 ATP606      0.0000 
      9 PA         20.8770   -6.5550  -10.9050 P.3       1 ATP606      0.0000 
     10 O1A        21.0150   -7.8850  -11.6460 O.co2     1 ATP606      0.0000 
     11 O2A        19.8660   -5.4570  -11.2710 O.co2     1 ATP606      0.0000 
     12 O3A        22.3490   -5.8930  -11.1150 O.3       1 ATP606      0.0000 
     13 O5'        20.9630   -6.9520   -9.3700 O.3       1 ATP606      0.0000 
     14 C5'        20.9150   -5.8860   -8.4270 C.3       1 ATP606      0.0000 
     15 C4'        21.9340   -6.2220   -7.3410 C.3       1 ATP606      0.0000 
     16 O4'        21.7330   -7.5410   -6.8240 O.3       1 ATP606      0.0000 
     17 C3'        23.3740   -6.2130   -7.8230 C.3       1 ATP606      0.0000 
     18 O3'        23.9150   -4.8940   -7.9610 O.3       1 ATP606      0.0000 
     19 C2'        24.0170   -7.0180   -6.7050 C.3       1 ATP606      0.0000 
     20 O2'        24.2260   -6.2180   -5.5280 O.3       1 ATP606      0.0000 
     21 C1'        22.9860   -8.1080   -6.4570 C.3       1 ATP606      0.0000 
     22 N9         23.2470   -9.2790   -7.3060 N.pl3     1 ATP606      0.0000 
     23 C8         22.6780   -9.6080   -8.4810 C.2       1 ATP606      0.0000 
     24 N7         23.1740  -10.7600   -8.9920 N.2       1 ATP606      0.0000 
     25 C5         24.0710  -11.1830   -8.1170 C.ar      1 ATP606      0.0000 
     26 C6         24.9750  -12.3370   -8.0080 C.ar      1 ATP606      0.0000 
     27 N6         24.9960  -13.2880   -8.9810 N.pl3     1 ATP606      0.0000 
     28 N1         25.7820  -12.3680   -6.9050 N.ar      1 ATP606      0.0000 
     29 C2         25.7570  -11.4360   -5.9370 C.ar      1 ATP606      0.0000 
     30 N3         24.9490  -10.3730   -5.9660 N.ar      1 ATP606      0.0000 
     31 C4         24.1160  -10.2000   -7.0130 C.ar      1 ATP606      0.0000 
@<TRIPOS>BOND
     1    1    2 ar   
     2    1    3 ar   
     3    1    4 ar   
     4    1    8 1    
     5    5    6 ar   
     6    5    7 ar   
     7    5    8 1    
     8    5   12 1    
     9    9   10 ar   
    10    9   11 ar   
    11    9   12 1    
    12    9   13 1    
    13   13   14 1    
    14   14   15 1    
    15   15   16 1    
    16   15   17 1    
    17   16   21 1    
    18   17   18 1    
    19   17   19 1    
    20   19   20 1    
    21   19   21 1    
    22   21   22 1    
    23   22   23 1    
    24   22   31 1    
    25   23   24 2    
    26   24   25 1    
    27   25   26 ar   
    28   25   31 ar   
    29   26   27 1    
    30   26   28 ar   
    31   28   29 ar   
    32   29   30 ar   
    33   30   31 ar   
@<TRIPOS>SUBSTRUCTURE
     1 ATP606      1 GROUP   
@<TRIPOS>SET
ATOM$ORANGE STATIC     ATOMS   COLORGROUP SYSTEM 
20 14 14 15 15 17 17 19 19 21 21 23 23 25 25 26 26 29 \
29 31 31 

