#    Name: 5wxc_2_LEU_TYR_LYS_LYS_MET_THR_PHE
#    Modification time : Fri May 22 19:15:37 2020

@<TRIPOS>MOLECULE
5wxc_2_LEU_TYR_LYS_LYS_MET_THR_PHE
   64    64     7     0     0
SMALL
NO_CHARGES


@<TRIPOS>ATOM
      1 N          77.3000  -15.1910   47.3070 N.4       1 LEU1        0.0000 
      2 CA         76.2510  -14.1770   47.2660 C.3       1 LEU1        0.0000 
      3 C          76.7710  -12.8640   47.8540 C.2       1 LEU1        0.0000 
      4 O          77.0830  -12.7890   49.0470 O.2       1 LEU1        0.0000 
      5 CB         74.9910  -14.6450   48.0190 C.3       1 LEU1        0.0000 
      6 CG         74.1410  -15.8020   47.4610 C.3       1 LEU1        0.0000 
      7 CD1        72.8140  -15.9180   48.2170 C.3       1 LEU1        0.0000 
      8 CD2        73.8940  -15.6660   45.9560 C.3       1 LEU1        0.0000 
      9 N          76.8490  -11.8410   47.0000 N.am      2 TYR2        0.0000 
     10 CA         77.4240  -10.5460   47.3450 C.3       2 TYR2        0.0000 
     11 C          76.5190   -9.7720   48.3110 C.2       2 TYR2        0.0000 
     12 O          75.3290  -10.0680   48.4670 O.2       2 TYR2        0.0000 
     13 CB         77.6680   -9.7230   46.0730 C.3       2 TYR2        0.0000 
     14 CG         78.8750   -8.8100   46.1600 C.ar      2 TYR2        0.0000 
     15 CD1        80.1510   -9.2910   45.8810 C.ar      2 TYR2        0.0000 
     16 CD2        78.7420   -7.4710   46.5270 C.ar      2 TYR2        0.0000 
     17 CE1        81.2670   -8.4700   45.9650 C.ar      2 TYR2        0.0000 
     18 CE2        79.8520   -6.6360   46.6150 C.ar      2 TYR2        0.0000 
     19 CZ         81.1130   -7.1420   46.3300 C.ar      2 TYR2        0.0000 
     20 OH         82.2220   -6.3270   46.4150 O.3       2 TYR2        0.0000 
     21 N          77.1120   -8.7770   48.9820 N.am      3 LYS3        0.0000 
     22 CA         76.3580   -7.8890   49.8640 C.3       3 LYS3        0.0000 
     23 C          75.5440   -6.8950   49.0380 C.2       3 LYS3        0.0000 
     24 O          75.9580   -6.4790   47.9510 O.2       3 LYS3        0.0000 
     25 CB         77.2950   -7.1340   50.8170 C.3       3 LYS3        0.0000 
     26 CG         77.9890   -5.9200   50.1780 C.3       3 LYS3        0.0000 
     27 CD         78.9500   -5.2090   51.1200 C.3       3 LYS3        0.0000 
     28 CE         79.6890   -4.0830   50.3880 C.3       3 LYS3        0.0000 
     29 NZ         78.8430   -2.8820   50.1370 N.4       3 LYS3        0.0000 
     30 N          74.3770   -6.5210   49.5570 N.am      4 LYS4        0.0000 
     31 CA         73.5250   -5.5450   48.8830 C.3       4 LYS4        0.0000 
     32 C          72.9620   -4.5280   49.8730 C.2       4 LYS4        0.0000 
     33 O          72.3060   -4.8930   50.8500 O.2       4 LYS4        0.0000 
     34 CB         72.3830   -6.2450   48.1370 C.3       4 LYS4        0.0000 
     35 CG         71.4160   -5.3040   47.4160 C.3       4 LYS4        0.0000 
     36 CD         71.7760   -5.1330   45.9410 C.3       4 LYS4        0.0000 
     37 CE         70.6570   -4.4710   45.1440 C.3       4 LYS4        0.0000 
     38 NZ         70.0390   -3.3220   45.8610 N.4       4 LYS4        0.0000 
     39 N          75.7250    2.5130   51.5930 N.4       5 MET9        0.0000 
     40 CA         76.0200    3.4610   52.6650 C.3       5 MET9        0.0000 
     41 C          77.4930    3.8650   52.6650 C.2       5 MET9        0.0000 
     42 O          78.3730    3.0080   52.6150 O.2       5 MET9        0.0000 
     43 CB         75.6450    2.8720   54.0230 C.3       5 MET9        0.0000 
     44 CG         75.7240    3.8730   55.1630 C.3       5 MET9        0.0000 
     45 SD         74.4480    5.1520   55.0970 S.3       5 MET9        0.0000 
     46 CE         74.9410    6.1720   56.4880 C.3       5 MET9        0.0000 
     47 N          77.7550    5.1660   52.7820 N.am      6 THR10       0.0000 
     48 CA         79.0610    5.7450   52.5000 C.3       6 THR10       0.0000 
     49 C          79.6910    6.2870   53.7770 C.2       6 THR10       0.0000 
     50 O          79.0120    6.5050   54.7840 O.2       6 THR10       0.0000 
     51 CB         78.9600    6.8710   51.4590 C.3       6 THR10       0.0000 
     52 OG1        78.5150    8.0780   52.0910 O.3       6 THR10       0.0000 
     53 CG2        77.9790    6.5080   50.3670 C.3       6 THR10       0.0000 
     54 N          81.0150    6.4530   53.7350 N.am      7 PHE11       0.0000 
     55 CA         81.7670    7.0020   54.8640 C.3       7 PHE11       0.0000 
     56 C          81.1470    8.3120   55.3640 C.2       7 PHE11       0.0000 
     57 O          81.6040    8.8970   56.3510 O.2       7 PHE11       0.0000 
     58 CB         83.2360    7.2420   54.4800 C.3       7 PHE11       0.0000 
     59 CG         84.0600    5.9790   54.3480 C.ar      7 PHE11       0.0000 
     60 CD1        83.5220    4.7310   54.6470 C.ar      7 PHE11       0.0000 
     61 CD2        85.3860    6.0510   53.9380 C.ar      7 PHE11       0.0000 
     62 CE1        84.2880    3.5670   54.5250 C.ar      7 PHE11       0.0000 
     63 CE2        86.1560    4.8990   53.8160 C.ar      7 PHE11       0.0000 
     64 CZ         85.6040    3.6490   54.1130 C.ar      7 PHE11       0.0000 
@<TRIPOS>BOND
     1    1    2 1    
     2    2    3 1    
     3    2    5 1    
     4    3    4 2    
     5    3    9 am   
     6    5    6 1    
     7    6    7 1    
     8    6    8 1    
     9    9   10 1    
    10   10   11 1    
    11   10   13 1    
    12   11   12 2    
    13   11   21 am   
    14   13   14 1    
    15   14   15 ar   
    16   14   16 ar   
    17   15   17 ar   
    18   16   18 ar   
    19   17   19 ar   
    20   18   19 ar   
    21   19   20 1    
    22   21   22 1    
    23   22   23 1    
    24   22   25 1    
    25   23   24 2    
    26   23   30 am   
    27   25   26 1    
    28   26   27 1    
    29   27   28 1    
    30   28   29 1    
    31   30   31 1    
    32   31   32 1    
    33   31   34 1    
    34   32   33 2    
    35   34   35 1    
    36   35   36 1    
    37   36   37 1    
    38   37   38 1    
    39   39   40 1    
    40   40   41 1    
    41   40   43 1    
    42   41   42 2    
    43   41   47 am   
    44   43   44 1    
    45   44   45 1    
    46   45   46 1    
    47   47   48 1    
    48   48   49 1    
    49   48   51 1    
    50   49   50 2    
    51   49   54 am   
    52   51   52 1    
    53   51   53 1    
    54   54   55 1    
    55   55   56 1    
    56   55   58 1    
    57   56   57 2    
    58   58   59 1    
    59   59   60 ar   
    60   59   61 ar   
    61   60   62 ar   
    62   61   63 ar   
    63   62   64 ar   
    64   63   64 ar   
@<TRIPOS>SUBSTRUCTURE
     1 LEU1        1 RESIDUE 
     2 TYR2        9 RESIDUE 
     3 LYS3       21 RESIDUE 
     4 LYS4       30 RESIDUE 
     5 MET9       39 RESIDUE 
     6 THR10      47 RESIDUE 
     7 PHE11      54 RESIDUE 
@<TRIPOS>SET

