#    Name: 5wxc_1_LEU_TYR_MET_THR_PHE
#    Modification time : Fri May 22 19:15:32 2020

@<TRIPOS>MOLECULE
5wxc_1_LEU_TYR_MET_THR_PHE
   46    46     5     0     0
SMALL
NO_CHARGES


@<TRIPOS>ATOM
      1 N          84.4820   -9.0440    8.2500 N.4       1 LEU1        0.0000 
      2 CA         83.4480   -8.0150    8.2120 C.3       1 LEU1        0.0000 
      3 C          84.0030   -6.6910    8.7310 C.2       1 LEU1        0.0000 
      4 O          84.4270   -6.5950    9.8890 O.2       1 LEU1        0.0000 
      5 CB         82.2190   -8.4410    9.0290 C.3       1 LEU1        0.0000 
      6 CG         81.4780   -9.7280    8.6340 C.3       1 LEU1        0.0000 
      7 CD1        80.3960  -10.0710    9.6620 C.3       1 LEU1        0.0000 
      8 CD2        80.8770   -9.6320    7.2300 C.3       1 LEU1        0.0000 
      9 N          83.9930   -5.6800    7.8640 N.am      2 TYR2        0.0000 
     10 CA         84.5970   -4.3750    8.1420 C.3       2 TYR2        0.0000 
     11 C          83.8440   -3.5480    9.1970 C.2       2 TYR2        0.0000 
     12 O          82.6830   -3.8170    9.5140 O.2       2 TYR2        0.0000 
     13 CB         84.6950   -3.5760    6.8410 C.3       2 TYR2        0.0000 
     14 CG         85.8340   -2.5970    6.8070 C.ar      2 TYR2        0.0000 
     15 CD1        87.1390   -3.0340    6.6330 C.ar      2 TYR2        0.0000 
     16 CD2        85.6070   -1.2320    6.9390 C.ar      2 TYR2        0.0000 
     17 CE1        88.1940   -2.1380    6.5990 C.ar      2 TYR2        0.0000 
     18 CE2        86.6530   -0.3250    6.9040 C.ar      2 TYR2        0.0000 
     19 CZ         87.9450   -0.7830    6.7350 C.ar      2 TYR2        0.0000 
     20 OH         88.9970    0.1080    6.6980 O.3       2 TYR2        0.0000 
     21 N          81.9700    8.9310   12.7820 N.4       3 MET9        0.0000 
     22 CA         82.3050   10.2110   13.3920 C.3       3 MET9        0.0000 
     23 C          83.8290   10.4680   13.4110 C.2       3 MET9        0.0000 
     24 O          84.6240    9.5310   13.5410 O.2       3 MET9        0.0000 
     25 CB         81.7240   10.2790   14.8020 C.3       3 MET9        0.0000 
     26 CG         82.5200   11.1390   15.7660 C.3       3 MET9        0.0000 
     27 SD         81.5700   11.6700   17.2060 S.3       3 MET9        0.0000 
     28 CE         80.4820   12.9140   16.4860 C.3       3 MET9        0.0000 
     29 N          84.2090   11.7470   13.2910 N.am      4 THR10       0.0000 
     30 CA         85.5730   12.1750   13.0200 C.3       4 THR10       0.0000 
     31 C          86.2730   12.6860   14.2830 C.2       4 THR10       0.0000 
     32 O          85.6960   12.7520   15.3730 O.2       4 THR10       0.0000 
     33 CB         85.5730   13.2660   11.9430 C.3       4 THR10       0.0000 
     34 OG1        84.8530   14.4090   12.4210 O.3       4 THR10       0.0000 
     35 CG2        84.9220   12.7620   10.6560 C.3       4 THR10       0.0000 
     36 N          87.5420   13.0670   14.1190 N.am      5 PHE11       0.0000 
     37 CA         88.3470   13.6380   15.2010 C.3       5 PHE11       0.0000 
     38 C          87.7240   14.9390   15.7360 C.2       5 PHE11       0.0000 
     39 O          88.1800   15.4960   16.7480 O.2       5 PHE11       0.0000 
     40 CB         89.7900   13.9200   14.7400 C.3       5 PHE11       0.0000 
     41 CG         90.6490   12.6850   14.5490 C.ar      5 PHE11       0.0000 
     42 CD1        90.1630   11.4160   14.8370 C.ar      5 PHE11       0.0000 
     43 CD2        91.9620   12.8080   14.0810 C.ar      5 PHE11       0.0000 
     44 CE1        90.9590   10.2920   14.6490 C.ar      5 PHE11       0.0000 
     45 CE2        92.7690   11.6910   13.8950 C.ar      5 PHE11       0.0000 
     46 CZ         92.2660   10.4280   14.1840 C.ar      5 PHE11       0.0000 
@<TRIPOS>BOND
     1    1    2 1    
     2    2    3 1    
     3    2    5 1    
     4    3    4 2    
     5    3    9 am   
     6    5    6 1    
     7    6    7 1    
     8    6    8 1    
     9    9   10 1    
    10   10   11 1    
    11   10   13 1    
    12   11   12 2    
    13   13   14 1    
    14   14   15 ar   
    15   14   16 ar   
    16   15   17 ar   
    17   16   18 ar   
    18   17   19 ar   
    19   18   19 ar   
    20   19   20 1    
    21   21   22 1    
    22   22   23 1    
    23   22   25 1    
    24   23   24 2    
    25   23   29 am   
    26   25   26 1    
    27   26   27 1    
    28   27   28 1    
    29   29   30 1    
    30   30   31 1    
    31   30   33 1    
    32   31   32 2    
    33   31   36 am   
    34   33   34 1    
    35   33   35 1    
    36   36   37 1    
    37   37   38 1    
    38   37   40 1    
    39   38   39 2    
    40   40   41 1    
    41   41   42 ar   
    42   41   43 ar   
    43   42   44 ar   
    44   43   45 ar   
    45   44   46 ar   
    46   45   46 ar   
@<TRIPOS>SUBSTRUCTURE
     1 LEU1        1 RESIDUE 
     2 TYR2        9 RESIDUE 
     3 MET9       21 RESIDUE 
     4 THR10      29 RESIDUE 
     5 PHE11      36 RESIDUE 
@<TRIPOS>SET

