#    Name: 5wxc_2_LEU_TYR_LYS_LYS_MET_THR_PHE_CAVITY_N1_6
#    Modification time : Fri May 22 19:15:40 2020

@<TRIPOS>MOLECULE
5wxc_2_LEU_TYR_LYS_LYS_MET_THR_PHE_CAVITY_N1_6
   91     0     7     0     0
SMALL
NO_CHARGES


@<TRIPOS>ATOM
      1 OG         76.5000  -11.6300   47.8100 O.3       1 SER1        0.0000 
      2 OG         76.0400  -10.0500   49.1500 O.3       1 SER1        0.0000 
      3 OG         76.9700   -9.1400   48.4000 O.3       1 SER1        0.0000 
      4 OG         78.0000  -10.2300   48.3600 O.3       1 SER1        0.0000 
      5 OG         77.5400   -8.6500   49.7000 O.3       1 SER1        0.0000 
      6 OG         80.3200   -5.9300   47.4600 O.3       1 SER1        0.0000 
      7 OG         83.3100   -7.2000   46.6200 O.3       1 SER1        0.0000 
      8 OG         80.8900   -5.4400   48.7500 O.3       1 SER1        0.0000 
      9 OG         78.1200   -4.1000   52.9400 O.3       1 SER1        0.0000 
     10 OG         79.1500   -5.1900   52.8900 O.3       1 SER1        0.0000 
     11 OG         79.0500   -3.1900   52.1900 O.3       1 SER1        0.0000 
     12 N          75.7300   -4.0500   47.0400 N.am      2 ALA2        0.0000 
     13 N          76.7600   -5.1400   46.9900 N.am      2 ALA2        0.0000 
     14 N          76.6600   -3.1500   46.2900 N.am      2 ALA2        0.0000 
     15 N          78.7200   -5.3200   46.2000 N.am      2 ALA2        0.0000 
     16 N          79.7500   -6.4100   46.1600 N.am      2 ALA2        0.0000 
     17 N          75.6900   -6.4100   53.1400 N.am      2 ALA2        0.0000 
     18 N          76.6200   -5.5000   52.3900 N.am      2 ALA2        0.0000 
     19 N          77.6500   -6.5900   52.3400 N.am      2 ALA2        0.0000 
     20 O          76.5200   -3.5000   51.6800 O.2       2 ALA2        0.0000 
     21 N          77.5500   -4.5900   51.6400 N.am      2 ALA2        0.0000 
     22 OD1        73.5100  -10.3600   48.6500 O.co2     3 ASP3        0.0000 
     23 OD1        74.5400  -11.4400   48.6000 O.co2     3 ASP3        0.0000 
     24 OD1        75.4700  -10.5400   47.8500 O.co2     3 ASP3        0.0000 
     25 OD1        76.4000   -9.6300   47.1000 O.co2     3 ASP3        0.0000 
     26 NZ         75.9300  -12.1100   46.5100 N.4       4 LYS4        0.0000 
     27 NZ         78.7100   -9.3900   44.2600 N.4       4 LYS4        0.0000 
     28 NZ         77.4300  -10.7200   47.0600 N.4       4 LYS4        0.0000 
     29 NZ         78.3600   -9.8100   46.3100 N.4       4 LYS4        0.0000 
     30 CZ         78.4600  -11.8100   47.0200 C.ar      5 PHE5        0.0000 
     31 CZ         79.3900  -10.9000   46.2700 C.ar      5 PHE5        0.0000 
     32 CZ         80.3100   -9.9900   45.5200 C.ar      5 PHE5        0.0000 
     33 CZ         82.2700  -10.1700   44.7300 C.ar      5 PHE5        0.0000 
     34 CZ         75.0100   -8.9600   49.2000 C.ar      5 PHE5        0.0000 
     35 CZ         77.9000   -8.2300   47.6500 C.ar      5 PHE5        0.0000 
     36 CZ         78.9300   -9.3200   47.6100 C.ar      5 PHE5        0.0000 
     37 CZ         79.9600  -10.4100   47.5700 C.ar      5 PHE5        0.0000 
     38 CZ         78.8200   -7.3200   46.9100 C.ar      5 PHE5        0.0000 
     39 CZ         79.8500   -8.4100   46.8600 C.ar      5 PHE5        0.0000 
     40 CZ         80.8800   -9.5000   46.8200 C.ar      5 PHE5        0.0000 
     41 CZ         81.8100   -8.5900   46.0700 C.ar      5 PHE5        0.0000 
     42 CZ         75.5800   -8.4700   50.4900 C.ar      5 PHE5        0.0000 
     43 CZ         76.5100   -7.5600   49.7500 C.ar      5 PHE5        0.0000 
     44 CZ         77.4400   -6.6500   49.0000 C.ar      5 PHE5        0.0000 
     45 CZ         78.4700   -7.7400   48.9500 C.ar      5 PHE5        0.0000 
     46 CZ         79.3900   -6.8300   48.2000 C.ar      5 PHE5        0.0000 
     47 CZ         81.3500   -7.0200   47.4100 C.ar      5 PHE5        0.0000 
     48 CZ         82.3800   -8.1000   47.3700 C.ar      5 PHE5        0.0000 
     49 CZ         76.1500   -7.9800   51.7900 C.ar      5 PHE5        0.0000 
     50 CZ         77.0800   -7.0800   51.0400 C.ar      5 PHE5        0.0000 
     51 CZ         78.1100   -8.1700   51.0000 C.ar      5 PHE5        0.0000 
     52 CZ         78.0100   -6.1700   50.3000 C.ar      5 PHE5        0.0000 
     53 CZ         78.9300   -5.2600   49.5500 C.ar      5 PHE5        0.0000 
     54 CZ         79.8600   -4.3500   48.8000 C.ar      5 PHE5        0.0000 
     55 CZ         76.7200   -7.5000   53.0900 C.ar      5 PHE5        0.0000 
     56 CZ         78.6800   -7.6800   52.3000 C.ar      5 PHE5        0.0000 
     57 CZ         78.5800   -5.6800   51.5900 C.ar      5 PHE5        0.0000 
     58 CZ         79.6100   -6.7700   51.5500 C.ar      5 PHE5        0.0000 
     59 CZ         80.3300   -1.8600   49.3900 C.ar      5 PHE5        0.0000 
     60 CA         77.3200   -8.7200   46.3600 C.3       6 GLY6        0.0000 
     61 CA         75.1600   -4.5400   45.7400 C.3       6 GLY6        0.0000 
     62 CA         78.2500   -7.8100   45.6100 C.3       6 GLY6        0.0000 
     63 CA         79.1800   -6.9000   44.8600 C.3       6 GLY6        0.0000 
     64 CA         80.2100   -7.9900   44.8100 C.3       6 GLY6        0.0000 
     65 CA         81.2400   -9.0800   44.7700 C.3       6 GLY6        0.0000 
     66 CA         74.9100   -6.9600   48.4900 C.3       6 GLY6        0.0000 
     67 CA         75.9400   -8.0500   48.4500 C.3       6 GLY6        0.0000 
     68 CA         75.8300   -6.0500   47.7400 C.3       6 GLY6        0.0000 
     69 CA         76.8600   -7.1400   47.7000 C.3       6 GLY6        0.0000 
     70 CA         77.7900   -6.2300   46.9500 C.3       6 GLY6        0.0000 
     71 CA         80.6800   -5.5000   45.4100 C.3       6 GLY6        0.0000 
     72 CA         81.7100   -6.5900   45.3600 C.3       6 GLY6        0.0000 
     73 CA         82.7400   -7.6800   45.3200 C.3       6 GLY6        0.0000 
     74 CA         83.7700   -8.7700   45.2800 C.3       6 GLY6        0.0000 
     75 CA         77.2300   -2.6600   47.5900 C.3       6 GLY6        0.0000 
     76 CA         78.2600   -3.7500   47.5400 C.3       6 GLY6        0.0000 
     77 CA         79.2900   -4.8400   47.5000 C.3       6 GLY6        0.0000 
     78 CA         78.8300   -3.2600   48.8400 C.3       6 GLY6        0.0000 
     79 CA         79.5100   -4.7700   50.8500 C.3       6 GLY6        0.0000 
     80 CA         80.4300   -3.8600   50.1000 C.3       6 GLY6        0.0000 
     81 DU         79.2800   -8.9000   45.5600 H         7 CUB7        0.0000 
     82 DU         80.7800   -7.5000   46.1100 H         7 CUB7        0.0000 
     83 DU         75.4800   -6.4700   49.7900 H         7 CUB7        0.0000 
     84 DU         76.4000   -5.5700   49.0400 H         7 CUB7        0.0000 
     85 DU         76.3000   -3.5700   48.3400 H         7 CUB7        0.0000 
     86 DU         77.3300   -4.6600   48.2900 H         7 CUB7        0.0000 
     87 DU         78.3600   -5.7500   48.2500 H         7 CUB7        0.0000 
     88 DU         76.0500   -5.9900   51.0900 H         7 CUB7        0.0000 
     89 DU         76.9800   -5.0800   50.3400 H         7 CUB7        0.0000 
     90 DU         77.9000   -4.1700   49.5900 H         7 CUB7        0.0000 
     91 DU         78.4700   -3.6800   50.8900 H         7 CUB7        0.0000 
@<TRIPOS>BOND
@<TRIPOS>SUBSTRUCTURE
     1 SER1        1 GROUP   
     2 ALA2       12 GROUP   
     3 ASP3       22 GROUP   
     4 LYS4       26 GROUP   
     5 PHE5       30 GROUP   
     6 GLY6       60 GROUP   
     7 CUB7       81 GROUP   
@<TRIPOS>SET

