#    Name: 5wxc_1_LEU_TYR_MET_THR_PHE_CAVITY_N1_ALL
#    Modification time : Fri May 22 19:15:34 2020

@<TRIPOS>MOLECULE
5wxc_1_LEU_TYR_MET_THR_PHE_CAVITY_N1_ALL
  101     0     7     0     0
SMALL
NO_CHARGES


@<TRIPOS>ATOM
      1 OG         83.4100   -5.6100    9.6100 O.3       1 SER1        0.0000 
      2 OG         84.3400   -4.7000    8.8600 O.3       1 SER1        0.0000 
      3 OG         83.8800   -3.1300   10.2000 O.3       1 SER1        0.0000 
      4 OG         88.6300   -0.5800    7.1600 O.3       1 SER1        0.0000 
      5 OG         86.2100    1.1700    9.3000 O.3       1 SER1        0.0000 
      6 OG         84.0500    5.3500    8.6800 O.3       1 SER1        0.0000 
      7 OG         84.6200    5.8400    9.9800 O.3       1 SER1        0.0000 
      8 OG         85.3900    2.3300   12.6900 O.3       1 SER1        0.0000 
      9 OG         86.2200    5.2400   11.2300 O.3       1 SER1        0.0000 
     10 OG         84.8300    5.9000   13.3200 O.3       1 SER1        0.0000 
     11 OG         85.8600    4.8200   13.2800 O.3       1 SER1        0.0000 
     12 OG         85.7600    6.8100   12.5700 O.3       1 SER1        0.0000 
     13 O          85.5300   -1.3800    5.3500 O.2       2 ALA2        0.0000 
     14 N          85.0700    0.2000    6.7000 N.am      2 ALA2        0.0000 
     15 N          83.6800    0.8700    8.7900 N.am      2 ALA2        0.0000 
     16 N          83.5800    2.8700    8.0800 N.am      2 ALA2        0.0000 
     17 N          84.6100    1.7800    8.0400 N.am      2 ALA2        0.0000 
     18 O          83.4800    4.8600    7.3800 O.2       2 ALA2        0.0000 
     19 N          82.9600    0.0200   12.8800 N.am      2 ALA2        0.0000 
     20 O          82.4000    3.6000   13.5200 O.2       2 ALA2        0.0000 
     21 N          84.4600    1.4200   13.4300 N.am      2 ALA2        0.0000 
     22 N          85.4900    0.3300   13.3900 N.am      2 ALA2        0.0000 
     23 O          83.3300    4.5100   12.7700 O.2       2 ALA2        0.0000 
     24 O          84.3600    3.4200   12.7300 O.2       2 ALA2        0.0000 
     25 O          83.9000    5.0000   14.0700 O.2       2 ALA2        0.0000 
     26 O          84.9300    3.9100   14.0300 O.2       2 ALA2        0.0000 
     27 OD1        82.8400   -6.1000    8.3100 O.co2     3 ASP3        0.0000 
     28 OD1        82.3800   -4.5200    9.6500 O.co2     3 ASP3        0.0000 
     29 OD1        82.2800   -2.5300    8.9400 O.co2     3 ASP3        0.0000 
     30 OD1        83.3100   -3.6200    8.9000 O.co2     3 ASP3        0.0000 
     31 NZ         83.3000   -7.6800    6.9600 N.4       4 LYS4        0.0000 
     32 NZ         83.7700   -5.1900    7.5600 N.4       4 LYS4        0.0000 
     33 NZ         84.8000   -6.2800    7.5100 N.4       4 LYS4        0.0000 
     34 NZ         85.7300   -5.3700    6.7600 N.4       4 LYS4        0.0000 
     35 NZ         85.6300   -3.3700    6.0600 N.4       4 LYS4        0.0000 
     36 CZ         86.6600   -4.4600    6.0200 C.ar      5 PHE5        0.0000 
     37 CZ         85.2700   -3.8000    8.1100 C.ar      5 PHE5        0.0000 
     38 CZ         86.3000   -4.8900    8.0600 C.ar      5 PHE5        0.0000 
     39 CZ         86.2000   -2.8900    7.3600 C.ar      5 PHE5        0.0000 
     40 CZ         87.2300   -3.9800    7.3100 C.ar      5 PHE5        0.0000 
     41 CZ         87.1300   -1.9800    6.6100 C.ar      5 PHE5        0.0000 
     42 CZ         88.1600   -3.0700    6.5700 C.ar      5 PHE5        0.0000 
     43 CZ         80.8900   -1.8600   11.0400 C.ar      5 PHE5        0.0000 
     44 CZ         81.9200   -2.9500   10.9900 C.ar      5 PHE5        0.0000 
     45 CZ         82.8500   -2.0400   10.2400 C.ar      5 PHE5        0.0000 
     46 CZ         84.8100   -2.2200    9.4500 C.ar      5 PHE5        0.0000 
     47 CZ         85.7400   -1.3100    8.7000 C.ar      5 PHE5        0.0000 
     48 CZ         86.6700   -0.4000    7.9500 C.ar      5 PHE5        0.0000 
     49 CZ         87.7000   -1.4900    7.9100 C.ar      5 PHE5        0.0000 
     50 CZ         81.4600   -1.3700   12.3300 C.ar      5 PHE5        0.0000 
     51 CZ         83.4200   -1.5500   11.5400 C.ar      5 PHE5        0.0000 
     52 CZ         84.4500   -2.6400   11.5000 C.ar      5 PHE5        0.0000 
     53 CZ         84.3500   -0.6400   10.7900 C.ar      5 PHE5        0.0000 
     54 CZ         85.2800    0.2700   10.0400 C.ar      5 PHE5        0.0000 
     55 CZ         83.9900   -1.0600   12.8400 C.ar      5 PHE5        0.0000 
     56 CZ         84.9200   -0.1600   12.0900 C.ar      5 PHE5        0.0000 
     57 CZ         85.8500    0.7500   11.3400 C.ar      5 PHE5        0.0000 
     58 CZ         86.7800    1.6600   10.5900 C.ar      5 PHE5        0.0000 
     59 CZ         85.6500    4.7500    9.9300 C.ar      5 PHE5        0.0000 
     60 CZ         86.6800    3.6600    9.8900 C.ar      5 PHE5        0.0000 
     61 CA         84.6000   -2.2900    6.1000 C.3       6 GLY6        0.0000 
     62 CA         86.5600   -2.4700    5.3100 C.3       6 GLY6        0.0000 
     63 CA         87.5900   -3.5500    5.2700 C.3       6 GLY6        0.0000 
     64 CA         81.2500   -1.4400    8.9900 C.3       6 GLY6        0.0000 
     65 CA         82.1800   -0.5300    8.2400 C.3       6 GLY6        0.0000 
     66 CA         83.2100   -1.6200    8.2000 C.3       6 GLY6        0.0000 
     67 CA         84.2400   -2.7100    8.1500 C.3       6 GLY6        0.0000 
     68 CA         82.0800    1.4700    7.5300 C.3       6 GLY6        0.0000 
     69 CA         83.1100    0.3800    7.4900 C.3       6 GLY6        0.0000 
     70 CA         84.1400   -0.7100    7.4500 C.3       6 GLY6        0.0000 
     71 CA         86.1000   -0.8900    6.6500 C.3       6 GLY6        0.0000 
     72 CA         87.0300    0.0200    5.9000 C.3       6 GLY6        0.0000 
     73 CA         88.0600   -1.0700    5.8600 C.3       6 GLY6        0.0000 
     74 CA         89.0900   -2.1600    5.8200 C.3       6 GLY6        0.0000 
     75 CA         85.6400    0.6900    8.0000 C.3       6 GLY6        0.0000 
     76 CA         88.7300   -2.5800    7.8600 C.3       6 GLY6        0.0000 
     77 CA         89.6600   -1.6700    7.1200 C.3       6 GLY6        0.0000 
     78 CA         85.1800    2.2600    9.3400 C.3       6 GLY6        0.0000 
     79 CA         85.0800    4.2600    8.6300 C.3       6 GLY6        0.0000 
     80 CA         86.4200    1.2400   12.6400 C.3       6 GLY6        0.0000 
     81 CA         86.3200    3.2400   11.9400 C.3       6 GLY6        0.0000 
     82 CA         85.1900    6.3300   11.2800 C.3       6 GLY6        0.0000 
     83 CA         87.2500    4.1500   11.1900 C.3       6 GLY6        0.0000 
     84 CA         86.8900    3.7300   13.2400 C.3       6 GLY6        0.0000 
     85 CA         84.7300    7.9000   12.6200 C.3       6 GLY6        0.0000 
     86 DU         85.1700   -1.8000    7.4000 H         7 CUB7        0.0000 
     87 DU         81.8200   -0.9500   10.2900 H         7 CUB7        0.0000 
     88 DU         82.7500   -0.0400    9.5400 H         7 CUB7        0.0000 
     89 DU         83.7800   -1.1300    9.4900 H         7 CUB7        0.0000 
     90 DU         84.7100   -0.2200    8.7500 H         7 CUB7        0.0000 
     91 DU         82.3900   -0.4600   11.5900 H         7 CUB7        0.0000 
     92 DU         84.1500    3.3500    9.3800 H         7 CUB7        0.0000 
     93 DU         83.8900    0.9300   12.1400 H         7 CUB7        0.0000 
     94 DU         82.7600    4.0200   11.4700 H         7 CUB7        0.0000 
     95 DU         83.7900    2.9300   11.4300 H         7 CUB7        0.0000 
     96 DU         84.8200    1.8400   11.3900 H         7 CUB7        0.0000 
     97 DU         83.6900    4.9300   10.7300 H         7 CUB7        0.0000 
     98 DU         84.7200    3.8400   10.6800 H         7 CUB7        0.0000 
     99 DU         85.7500    2.7500   10.6400 H         7 CUB7        0.0000 
    100 DU         84.2600    5.4200   12.0200 H         7 CUB7        0.0000 
    101 DU         85.2900    4.3300   11.9800 H         7 CUB7        0.0000 
@<TRIPOS>BOND
@<TRIPOS>SUBSTRUCTURE
     1 SER1        1 GROUP   
     2 ALA2       13 GROUP   
     3 ASP3       27 GROUP   
     4 LYS4       31 GROUP   
     5 PHE5       36 GROUP   
     6 GLY6       61 GROUP   
     7 CUB7       86 GROUP   
@<TRIPOS>SET

