#    Name: 5wxc_1_LEU_TYR_MET_THR_PHE_CAVITY_N1_4
#    Modification time : Fri May 22 19:15:34 2020

@<TRIPOS>MOLECULE
5wxc_1_LEU_TYR_MET_THR_PHE_CAVITY_N1_4
   64     0     7     0     0
SMALL
NO_CHARGES


@<TRIPOS>ATOM
      1 OG         83.4100   -5.6100    9.6100 O.3       1 SER1        0.0000 
      2 OG         84.3400   -4.7000    8.8600 O.3       1 SER1        0.0000 
      3 OG         83.8800   -3.1300   10.2000 O.3       1 SER1        0.0000 
      4 OG         88.6300   -0.5800    7.1600 O.3       1 SER1        0.0000 
      5 OG         86.2100    1.1700    9.3000 O.3       1 SER1        0.0000 
      6 OG         84.8300    5.9000   13.3200 O.3       1 SER1        0.0000 
      7 OG         85.7600    6.8100   12.5700 O.3       1 SER1        0.0000 
      8 O          85.5300   -1.3800    5.3500 O.2       2 ALA2        0.0000 
      9 N          85.0700    0.2000    6.7000 N.am      2 ALA2        0.0000 
     10 N          83.6800    0.8700    8.7900 N.am      2 ALA2        0.0000 
     11 N          84.6100    1.7800    8.0400 N.am      2 ALA2        0.0000 
     12 OD1        82.8400   -6.1000    8.3100 O.co2     3 ASP3        0.0000 
     13 OD1        82.3800   -4.5200    9.6500 O.co2     3 ASP3        0.0000 
     14 OD1        82.2800   -2.5300    8.9400 O.co2     3 ASP3        0.0000 
     15 OD1        83.3100   -3.6200    8.9000 O.co2     3 ASP3        0.0000 
     16 NZ         83.3000   -7.6800    6.9600 N.4       4 LYS4        0.0000 
     17 NZ         83.7700   -5.1900    7.5600 N.4       4 LYS4        0.0000 
     18 NZ         84.8000   -6.2800    7.5100 N.4       4 LYS4        0.0000 
     19 NZ         85.7300   -5.3700    6.7600 N.4       4 LYS4        0.0000 
     20 NZ         85.6300   -3.3700    6.0600 N.4       4 LYS4        0.0000 
     21 CZ         86.6600   -4.4600    6.0200 C.ar      5 PHE5        0.0000 
     22 CZ         85.2700   -3.8000    8.1100 C.ar      5 PHE5        0.0000 
     23 CZ         86.3000   -4.8900    8.0600 C.ar      5 PHE5        0.0000 
     24 CZ         86.2000   -2.8900    7.3600 C.ar      5 PHE5        0.0000 
     25 CZ         87.2300   -3.9800    7.3100 C.ar      5 PHE5        0.0000 
     26 CZ         87.1300   -1.9800    6.6100 C.ar      5 PHE5        0.0000 
     27 CZ         88.1600   -3.0700    6.5700 C.ar      5 PHE5        0.0000 
     28 CZ         80.8900   -1.8600   11.0400 C.ar      5 PHE5        0.0000 
     29 CZ         81.9200   -2.9500   10.9900 C.ar      5 PHE5        0.0000 
     30 CZ         82.8500   -2.0400   10.2400 C.ar      5 PHE5        0.0000 
     31 CZ         84.8100   -2.2200    9.4500 C.ar      5 PHE5        0.0000 
     32 CZ         85.7400   -1.3100    8.7000 C.ar      5 PHE5        0.0000 
     33 CZ         86.6700   -0.4000    7.9500 C.ar      5 PHE5        0.0000 
     34 CZ         87.7000   -1.4900    7.9100 C.ar      5 PHE5        0.0000 
     35 CZ         81.4600   -1.3700   12.3300 C.ar      5 PHE5        0.0000 
     36 CZ         83.4200   -1.5500   11.5400 C.ar      5 PHE5        0.0000 
     37 CZ         84.4500   -2.6400   11.5000 C.ar      5 PHE5        0.0000 
     38 CZ         84.3500   -0.6400   10.7900 C.ar      5 PHE5        0.0000 
     39 CZ         85.2800    0.2700   10.0400 C.ar      5 PHE5        0.0000 
     40 CA         84.6000   -2.2900    6.1000 C.3       6 GLY6        0.0000 
     41 CA         86.5600   -2.4700    5.3100 C.3       6 GLY6        0.0000 
     42 CA         87.5900   -3.5500    5.2700 C.3       6 GLY6        0.0000 
     43 CA         81.2500   -1.4400    8.9900 C.3       6 GLY6        0.0000 
     44 CA         82.1800   -0.5300    8.2400 C.3       6 GLY6        0.0000 
     45 CA         83.2100   -1.6200    8.2000 C.3       6 GLY6        0.0000 
     46 CA         84.2400   -2.7100    8.1500 C.3       6 GLY6        0.0000 
     47 CA         83.1100    0.3800    7.4900 C.3       6 GLY6        0.0000 
     48 CA         84.1400   -0.7100    7.4500 C.3       6 GLY6        0.0000 
     49 CA         86.1000   -0.8900    6.6500 C.3       6 GLY6        0.0000 
     50 CA         87.0300    0.0200    5.9000 C.3       6 GLY6        0.0000 
     51 CA         88.0600   -1.0700    5.8600 C.3       6 GLY6        0.0000 
     52 CA         89.0900   -2.1600    5.8200 C.3       6 GLY6        0.0000 
     53 CA         85.6400    0.6900    8.0000 C.3       6 GLY6        0.0000 
     54 CA         88.7300   -2.5800    7.8600 C.3       6 GLY6        0.0000 
     55 CA         89.6600   -1.6700    7.1200 C.3       6 GLY6        0.0000 
     56 CA         85.1800    2.2600    9.3400 C.3       6 GLY6        0.0000 
     57 CA         85.1900    6.3300   11.2800 C.3       6 GLY6        0.0000 
     58 CA         84.7300    7.9000   12.6200 C.3       6 GLY6        0.0000 
     59 DU         85.1700   -1.8000    7.4000 H         7 CUB7        0.0000 
     60 DU         81.8200   -0.9500   10.2900 H         7 CUB7        0.0000 
     61 DU         82.7500   -0.0400    9.5400 H         7 CUB7        0.0000 
     62 DU         83.7800   -1.1300    9.4900 H         7 CUB7        0.0000 
     63 DU         84.7100   -0.2200    8.7500 H         7 CUB7        0.0000 
     64 DU         82.3900   -0.4600   11.5900 H         7 CUB7        0.0000 
@<TRIPOS>BOND
@<TRIPOS>SUBSTRUCTURE
     1 SER1        1 GROUP   
     2 ALA2        8 GROUP   
     3 ASP3       12 GROUP   
     4 LYS4       16 GROUP   
     5 PHE5       21 GROUP   
     6 GLY6       40 GROUP   
     7 CUB7       59 GROUP   
@<TRIPOS>SET

