#    Name: 6d3s_1_ATP
#    Modification time : Fri May 22 19:26:29 2020

@<TRIPOS>MOLECULE
6d3s_1_ATP
   31    33     1     0     1
SMALL
NO_CHARGES


@<TRIPOS>ATOM
      1 PG        123.4840  127.8630   93.0890 P.3       1 ATP1501     0.0000 
      2 O1G       122.7200  129.2000   93.2100 O.co2     1 ATP1501     0.0000 
      3 O2G       124.5480  127.7320   94.1980 O.co2     1 ATP1501     0.0000 
      4 O3G       124.0820  127.6700   91.6840 O.co2     1 ATP1501     0.0000 
      5 PB        121.8540  125.3900   92.4700 P.3       1 ATP1501     0.0000 
      6 O1B       121.0730  125.7660   91.2280 O.co2     1 ATP1501     0.0000 
      7 O2B       122.8630  124.2670   92.4920 O.co2     1 ATP1501     0.0000 
      8 O3B       122.3240  126.6730   93.3840 O.3       1 ATP1501     0.0000 
      9 PA        120.5220  123.5150   94.3130 P.3       1 ATP1501     0.0000 
     10 O1A       121.3060  123.4820   95.6040 O.co2     1 ATP1501     0.0000 
     11 O2A       120.5450  122.4310   93.3000 O.co2     1 ATP1501     0.0000 
     12 O3A       120.6760  124.9270   93.5320 O.3       1 ATP1501     0.0000 
     13 O5'       118.8550  123.5120   94.6860 O.3       1 ATP1501     0.0000 
     14 C5'       118.4900  123.7180   96.0200 C.3       1 ATP1501     0.0000 
     15 C4'       117.7540  125.0360   96.0230 C.3       1 ATP1501     0.0000 
     16 O4'       117.2780  125.2420   97.3360 O.3       1 ATP1501     0.0000 
     17 C3'       118.6180  126.2660   95.7230 C.3       1 ATP1501     0.0000 
     18 O3'       117.8940  127.1770   94.9010 O.3       1 ATP1501     0.0000 
     19 C2'       119.0910  126.7850   97.0910 C.3       1 ATP1501     0.0000 
     20 O2'       118.8510  128.1820   97.2860 O.3       1 ATP1501     0.0000 
     21 C1'       118.2690  125.9040   98.0650 C.3       1 ATP1501     0.0000 
     22 N9        118.9860  124.9380   99.0000 N.pl3     1 ATP1501     0.0000 
     23 C8        120.2120  124.3470   98.9210 C.2       1 ATP1501     0.0000 
     24 N7        120.4710  123.5380   99.9230 N.2       1 ATP1501     0.0000 
     25 C5        119.3560  123.5950  100.6740 C.ar      1 ATP1501     0.0000 
     26 C6        119.0000  122.9730  101.8900 C.ar      1 ATP1501     0.0000 
     27 N6        119.8090  122.0900  102.5700 N.pl3     1 ATP1501     0.0000 
     28 N1        117.7800  123.1940  102.4310 N.ar      1 ATP1501     0.0000 
     29 C2        116.9640  124.0060  101.7570 C.ar      1 ATP1501     0.0000 
     30 N3        117.1650  124.6640  100.6140 N.ar      1 ATP1501     0.0000 
     31 C4        118.4090  124.4170  100.1190 C.ar      1 ATP1501     0.0000 
@<TRIPOS>BOND
     1    1    2 ar   
     2    1    3 ar   
     3    1    4 ar   
     4    1    8 1    
     5    5    6 ar   
     6    5    7 ar   
     7    5    8 1    
     8    5   12 1    
     9    9   10 ar   
    10    9   11 ar   
    11    9   12 1    
    12    9   13 1    
    13   13   14 1    
    14   14   15 1    
    15   15   16 1    
    16   15   17 1    
    17   16   21 1    
    18   17   18 1    
    19   17   19 1    
    20   19   20 1    
    21   19   21 1    
    22   21   22 1    
    23   22   23 1    
    24   22   31 1    
    25   23   24 2    
    26   24   25 1    
    27   25   26 ar   
    28   25   31 ar   
    29   26   27 1    
    30   26   28 ar   
    31   28   29 ar   
    32   29   30 ar   
    33   30   31 ar   
@<TRIPOS>SUBSTRUCTURE
     1 ATP1501     1 GROUP   
@<TRIPOS>SET
ATOM$ORANGE STATIC     ATOMS   COLORGROUP SYSTEM 
20 14 14 15 15 17 17 19 19 21 21 23 23 25 25 26 26 29 \
29 31 31 

