#    Name: 6d3s_2_ATP_CAVITY_N1_4
#    Modification time : Fri May 22 19:27:17 2020

@<TRIPOS>MOLECULE
6d3s_2_ATP_CAVITY_N1_4
   32     0     3     0     0
SMALL
NO_CHARGES


@<TRIPOS>ATOM
      1 N         153.5100  144.3100   88.9200 N.am      1 ALA2        0.0000 
      2 O         153.6700  143.3200   90.7900 O.2       1 ALA2        0.0000 
      3 N         153.7600  144.7500   90.3300 N.am      1 ALA2        0.0000 
      4 O         152.4500  143.9200   92.4200 O.2       1 ALA2        0.0000 
      5 O         154.2800  145.6100   93.1600 O.2       1 ALA2        0.0000 
      6 O         151.4200  147.3700   93.1400 O.2       1 ALA2        0.0000 
      7 CA        151.8500  141.6200   90.0400 C.3       2 GLY6        0.0000 
      8 CA        151.9400  143.0500   89.5900 C.3       2 GLY6        0.0000 
      9 CA        152.2000  143.4800   91.0000 C.3       2 GLY6        0.0000 
     10 CA        150.8200  145.0800   90.7700 C.3       2 GLY6        0.0000 
     11 CA        152.2900  144.9100   90.5500 C.3       2 GLY6        0.0000 
     12 CA        150.9100  146.5000   90.3100 C.3       2 GLY6        0.0000 
     13 CA        148.1200  145.8400   92.6200 C.3       2 GLY6        0.0000 
     14 CA        151.0700  145.5100   92.1800 C.3       2 GLY6        0.0000 
     15 CA        152.5500  145.3400   91.9600 C.3       2 GLY6        0.0000 
     16 CA        154.0200  145.1800   91.7500 C.3       2 GLY6        0.0000 
     17 CA        149.6900  147.1000   91.9400 C.3       2 GLY6        0.0000 
     18 CA        151.1600  146.9300   91.7300 C.3       2 GLY6        0.0000 
     19 CA        154.1900  144.1800   93.6100 C.3       2 GLY6        0.0000 
     20 CA        149.8500  146.1100   93.8100 C.3       2 GLY6        0.0000 
     21 CA        151.3300  145.9400   93.5900 C.3       2 GLY6        0.0000 
     22 CA        152.8000  145.7700   93.3800 C.3       2 GLY6        0.0000 
     23 CA        149.9500  147.5300   93.3600 C.3       2 GLY6        0.0000 
     24 CA        153.0600  146.2100   94.7900 C.3       2 GLY6        0.0000 
     25 CA        154.5400  146.0400   94.5700 C.3       2 GLY6        0.0000 
     26 DU        150.4700  143.2200   89.8100 H         3 CUB7        0.0000 
     27 DU        152.0300  144.4800   89.1400 H         3 CUB7        0.0000 
     28 DU        150.7200  143.6500   91.2200 H         3 CUB7        0.0000 
     29 DU        149.3400  145.2400   90.9800 H         3 CUB7        0.0000 
     30 DU        149.4300  146.6700   90.5300 H         3 CUB7        0.0000 
     31 DU        150.9800  144.0800   92.6300 H         3 CUB7        0.0000 
     32 DU        149.6000  145.6700   92.4000 H         3 CUB7        0.0000 
@<TRIPOS>BOND
@<TRIPOS>SUBSTRUCTURE
     1 ALA2        1 GROUP   
     2 GLY6        7 GROUP   
     3 CUB7       26 GROUP   
@<TRIPOS>SET

