#    Name: 6d3s_2_ATP
#    Modification time : Fri May 22 19:27:16 2020

@<TRIPOS>MOLECULE
6d3s_2_ATP
   31    33     1     0     1
SMALL
NO_CHARGES


@<TRIPOS>ATOM
      1 PG        150.0420  141.5050   94.9040 P.3       1 ATP1502     0.0000 
      2 O1G       150.2810  140.4710   96.0290 O.co2     1 ATP1502     0.0000 
      3 O2G       148.9880  142.5390   95.3400 O.co2     1 ATP1502     0.0000 
      4 O3G       149.6600  140.7930   93.5890 O.co2     1 ATP1502     0.0000 
      5 PB        152.1740  143.4320   93.6460 P.3       1 ATP1502     0.0000 
      6 O1B       152.9530  142.7790   92.5060 O.co2     1 ATP1502     0.0000 
      7 O2B       151.2630  144.6160   93.4240 O.co2     1 ATP1502     0.0000 
      8 O3B       151.5500  142.2800   94.6840 O.3       1 ATP1502     0.0000 
      9 PA        153.8830  145.3760   95.3050 P.3       1 ATP1502     0.0000 
     10 O1A       153.3310  145.6050   96.6960 O.co2     1 ATP1502     0.0000 
     11 O2A       153.9650  146.4670   94.2620 O.co2     1 ATP1502     0.0000 
     12 O3A       153.3830  143.9340   94.6800 O.3       1 ATP1502     0.0000 
     13 O5'       155.5270  144.8330   95.4750 O.3       1 ATP1502     0.0000 
     14 C5'       156.1090  144.8610   96.7710 C.3       1 ATP1502     0.0000 
     15 C4'       156.6540  143.4930   97.1770 C.3       1 ATP1502     0.0000 
     16 O4'       157.1340  143.5750   98.5200 O.3       1 ATP1502     0.0000 
     17 C3'       155.5920  142.3820   97.2150 C.3       1 ATP1502     0.0000 
     18 O3'       156.1080  141.1630   96.6630 O.3       1 ATP1502     0.0000 
     19 C2'       155.0960  142.3250   98.6850 C.3       1 ATP1502     0.0000 
     20 O2'       155.0900  140.9980   99.2340 O.3       1 ATP1502     0.0000 
     21 C1'       156.1070  143.2560   99.4170 C.3       1 ATP1502     0.0000 
     22 N9        155.6400  144.5040  100.1850 N.pl3     1 ATP1502     0.0000 
     23 C8        154.6790  145.4160   99.8670 C.2       1 ATP1502     0.0000 
     24 N7        154.6400  146.4540  100.6690 N.2       1 ATP1502     0.0000 
     25 C5        155.5430  146.1560  101.6130 C.ar      1 ATP1502     0.0000 
     26 C6        155.9340  146.8520  102.7780 C.ar      1 ATP1502     0.0000 
     27 N6        155.4320  148.0870  103.1340 N.pl3     1 ATP1502     0.0000 
     28 N1        156.8270  146.2970  103.6250 N.ar      1 ATP1502     0.0000 
     29 C2        157.3200  145.1050  103.2810 C.ar      1 ATP1502     0.0000 
     30 N3        157.0810  144.3640  102.1910 N.ar      1 ATP1502     0.0000 
     31 C4        156.1590  144.9480  101.3770 C.ar      1 ATP1502     0.0000 
@<TRIPOS>BOND
     1    1    2 ar   
     2    1    3 ar   
     3    1    4 ar   
     4    1    8 1    
     5    5    6 ar   
     6    5    7 ar   
     7    5    8 1    
     8    5   12 1    
     9    9   10 ar   
    10    9   11 ar   
    11    9   12 1    
    12    9   13 1    
    13   13   14 1    
    14   14   15 1    
    15   15   16 1    
    16   15   17 1    
    17   16   21 1    
    18   17   18 1    
    19   17   19 1    
    20   19   20 1    
    21   19   21 1    
    22   21   22 1    
    23   22   23 1    
    24   22   31 1    
    25   23   24 2    
    26   24   25 1    
    27   25   26 ar   
    28   25   31 ar   
    29   26   27 1    
    30   26   28 ar   
    31   28   29 ar   
    32   29   30 ar   
    33   30   31 ar   
@<TRIPOS>SUBSTRUCTURE
     1 ATP1502     1 GROUP   
@<TRIPOS>SET
ATOM$ORANGE STATIC     ATOMS   COLORGROUP SYSTEM 
20 14 14 15 15 17 17 19 19 21 21 23 23 25 25 26 26 29 \
29 31 31 

