#    Name: 6d3s_1_ATP_CAVITY_N1_4
#    Modification time : Fri May 22 19:26:30 2020

@<TRIPOS>MOLECULE
6d3s_1_ATP_CAVITY_N1_4
   19     0     3     0     0
SMALL
NO_CHARGES


@<TRIPOS>ATOM
      1 N         115.2400  121.8600   94.7800 N.am      1 ALA2        0.0000 
      2 N         115.3400  123.2900   94.3200 N.am      1 ALA2        0.0000 
      3 O         116.8100  123.1200   94.1100 O.2       1 ALA2        0.0000 
      4 N         115.5000  122.2900   96.1900 N.am      1 ALA2        0.0000 
      5 N         119.2000  119.4100  102.7700 N.am      1 ALA2        0.0000 
      6 CA        116.7200  121.7000   94.5600 C.3       2 GLY6        0.0000 
      7 CA        116.9800  122.1300   95.9700 C.3       2 GLY6        0.0000 
      8 CA        115.5900  123.7200   95.7400 C.3       2 GLY6        0.0000 
      9 CA        117.1400  121.1300   97.8400 C.3       2 GLY6        0.0000 
     10 CA        115.7600  122.7300   97.6000 C.3       2 GLY6        0.0000 
     11 CA        117.3000  120.1400   99.7000 C.3       2 GLY6        0.0000 
     12 CA        117.4000  121.5700   99.2500 C.3       2 GLY6        0.0000 
     13 CA        117.4700  119.1400  101.5700 C.3       2 GLY6        0.0000 
     14 CA        118.9400  118.9800  101.3500 C.3       2 GLY6        0.0000 
     15 CA        120.4200  118.8100  101.1400 C.3       2 GLY6        0.0000 
     16 CA        117.5600  120.5700  101.1200 C.3       2 GLY6        0.0000 
     17 CA        120.6700  119.2500  102.5500 C.3       2 GLY6        0.0000 
     18 DU        118.7800  119.9700   99.4900 H         3 CUB7        0.0000 
     19 DU        119.0300  120.4100  100.9000 H         3 CUB7        0.0000 
@<TRIPOS>BOND
@<TRIPOS>SUBSTRUCTURE
     1 ALA2        1 GROUP   
     2 GLY6        6 GROUP   
     3 CUB7       18 GROUP   
@<TRIPOS>SET

