#    Name: 6hn8_1_TDZ
#    Modification time : Fri May 22 19:24:54 2020

@<TRIPOS>MOLECULE
6hn8_1_TDZ
   31    34     1     0     0
SMALL
NO_CHARGES


@<TRIPOS>ATOM
      1 CAM       -19.7670   -6.6550    8.7050 C.3       1 TDZ502      0.0000 
      2 CAL       -19.9850   -7.6620    9.7970 C.3       1 TDZ502      0.0000 
      3 CBB       -20.1950   -9.0560    9.2900 C.ar      1 TDZ502      0.0000 
      4 CAZ       -20.7480  -10.0490   10.1630 C.ar      1 TDZ502      0.0000 
      5 CAC       -21.0730   -9.6260   11.5610 C.3       1 TDZ502      0.0000 
      6 CBA       -20.9320  -11.4230    9.6830 C.ar      1 TDZ502      0.0000 
      7 OAG       -21.4640  -12.3360   10.4780 O.3       1 TDZ502      0.0000 
      8 CAX       -20.5710  -11.8000    8.3130 C.ar      1 TDZ502      0.0000 
      9 CAA       -20.7900  -13.2390    7.8810 C.3       1 TDZ502      0.0000 
     10 CAY       -19.9810  -10.7720    7.4120 C.ar      1 TDZ502      0.0000 
     11 CAB       -19.6110  -11.0550    6.0070 C.3       1 TDZ502      0.0000 
     12 CBC       -19.8050   -9.3970    7.9240 C.ar      1 TDZ502      0.0000 
     13 OAR       -19.3490   -8.4440    7.1130 O.3       1 TDZ502      0.0000 
     14 CBE       -18.9410   -7.1770    7.5450 C.3       1 TDZ502      0.0000 
     15 CAD       -17.4860   -7.3150    7.9250 C.3       1 TDZ502      0.0000 
     16 CAN       -19.0200   -6.2300    6.3900 C.3       1 TDZ502      0.0000 
     17 OAQ       -20.2780   -6.1350    5.7890 O.3       1 TDZ502      0.0000 
     18 CAW       -20.5230   -5.0960    4.9600 C.ar      1 TDZ502      0.0000 
     19 CAK       -19.5460   -4.5000    4.1810 C.ar      1 TDZ502      0.0000 
     20 CAI       -19.8230   -3.4250    3.3430 C.ar      1 TDZ502      0.0000 
     21 CAJ       -21.7860   -4.5700    4.8810 C.ar      1 TDZ502      0.0000 
     22 CAH       -22.0720   -3.5200    4.0690 C.ar      1 TDZ502      0.0000 
     23 CAV       -21.1100   -2.9400    3.3040 C.ar      1 TDZ502      0.0000 
     24 CAO       -21.5030   -1.8050    2.4050 C.3       1 TDZ502      0.0000 
     25 CBD       -21.2340   -0.3920    2.8410 C.3       1 TDZ502      0.0000 
     26 SAS       -21.3750    0.6630    1.4120 S.3       1 TDZ502      0.0000 
     27 CAT       -22.2190    1.7130    2.3810 C.2       1 TDZ502      0.0000 
     28 OAE       -22.2080    2.8900    2.1480 O.2       1 TDZ502      0.0000 
     29 NAP       -22.8320    1.2260    3.4380 N.am      1 TDZ502      0.0000 
     30 CAU       -22.3100    0.0760    3.7940 C.2       1 TDZ502      0.0000 
     31 OAF       -22.7110   -0.5480    4.7400 O.2       1 TDZ502      0.0000 
@<TRIPOS>BOND
     1    1    2 1    
     2    1   14 1    
     3    2    3 1    
     4    3    4 ar   
     5    3   12 ar   
     6    4    5 1    
     7    4    6 ar   
     8    6    7 1    
     9    6    8 ar   
    10    8    9 1    
    11    8   10 ar   
    12   10   11 1    
    13   10   12 ar   
    14   12   13 1    
    15   13   14 1    
    16   14   15 1    
    17   14   16 1    
    18   16   17 1    
    19   17   18 1    
    20   18   19 ar   
    21   18   21 ar   
    22   19   20 ar   
    23   20   23 ar   
    24   21   22 ar   
    25   22   23 ar   
    26   23   24 1    
    27   24   25 1    
    28   25   26 1    
    29   25   30 1    
    30   26   27 1    
    31   27   28 2    
    32   27   29 am   
    33   29   30 am   
    34   30   31 2    
@<TRIPOS>SUBSTRUCTURE
     1 TDZ502      1 GROUP   
@<TRIPOS>SET

