#    Name: 6hn8_2_TDZ
#    Modification time : Fri May 22 19:25:00 2020

@<TRIPOS>MOLECULE
6hn8_2_TDZ
   31    34     1     0     0
SMALL
NO_CHARGES


@<TRIPOS>ATOM
      1 CAM         8.8490   12.3760  -14.0670 C.3       1 TDZ502      0.0000 
      2 CAL         9.0140   12.8200  -15.4970 C.3       1 TDZ502      0.0000 
      3 CBB         9.3040   14.2970  -15.5700 C.ar      1 TDZ502      0.0000 
      4 CAZ         9.0000   15.0310  -16.7720 C.ar      1 TDZ502      0.0000 
      5 CAC         8.4450   14.2570  -17.9030 C.3       1 TDZ502      0.0000 
      6 CBA         9.3030   16.4650  -16.8420 C.ar      1 TDZ502      0.0000 
      7 OAG         9.0090   17.0990  -17.9660 O.3       1 TDZ502      0.0000 
      8 CAX         9.8790   17.1880  -15.6950 C.ar      1 TDZ502      0.0000 
      9 CAA        10.1750   18.6850  -15.8100 C.3       1 TDZ502      0.0000 
     10 CAY        10.1820   16.4280  -14.4610 C.ar      1 TDZ502      0.0000 
     11 CAB        10.7640   17.0300  -13.2490 C.3       1 TDZ502      0.0000 
     12 CBC         9.9020   14.9950  -14.4090 C.ar      1 TDZ502      0.0000 
     13 OAR        10.1120   14.3340  -13.2620 O.3       1 TDZ502      0.0000 
     14 CBE         9.9330   12.9450  -13.1520 C.3       1 TDZ502      0.0000 
     15 CAD        11.2260   12.4150  -13.6880 C.3       1 TDZ502      0.0000 
     16 CAN         9.6870   12.5990  -11.6920 C.3       1 TDZ502      0.0000 
     17 OAQ         8.3860   12.9210  -11.2670 O.3       1 TDZ502      0.0000 
     18 CAW         7.8690   12.3250  -10.1620 C.ar      1 TDZ502      0.0000 
     19 CAK         8.6550   11.8070   -9.1450 C.ar      1 TDZ502      0.0000 
     20 CAI         8.0910   11.2310   -8.0100 C.ar      1 TDZ502      0.0000 
     21 CAJ         6.5100   12.2490  -10.0150 C.ar      1 TDZ502      0.0000 
     22 CAH         5.9580   11.6810   -8.9270 C.ar      1 TDZ502      0.0000 
     23 CAV         6.7240   11.1570   -7.9280 C.ar      1 TDZ502      0.0000 
     24 CAO         5.9990   10.5870   -6.7430 C.3       1 TDZ502      0.0000 
     25 CBD         5.9500    9.1090   -6.5790 C.3       1 TDZ502      0.0000 
     26 SAS         5.7160    8.7240   -4.8810 S.3       1 TDZ502      0.0000 
     27 CAT         4.7020    7.5010   -5.3360 C.2       1 TDZ502      0.0000 
     28 OAE         4.5140    6.5810   -4.5880 O.2       1 TDZ502      0.0000 
     29 NAP         4.1820    7.5620   -6.5440 N.am      1 TDZ502      0.0000 
     30 CAU         4.7950    8.4610   -7.2750 C.2       1 TDZ502      0.0000 
     31 OAF         4.4390    8.7530   -8.3730 O.2       1 TDZ502      0.0000 
@<TRIPOS>BOND
     1    1    2 1    
     2    1   14 1    
     3    2    3 1    
     4    3    4 ar   
     5    3   12 ar   
     6    4    5 1    
     7    4    6 ar   
     8    6    7 1    
     9    6    8 ar   
    10    8    9 1    
    11    8   10 ar   
    12   10   11 1    
    13   10   12 ar   
    14   12   13 1    
    15   13   14 1    
    16   14   15 1    
    17   14   16 1    
    18   16   17 1    
    19   17   18 1    
    20   18   19 ar   
    21   18   21 ar   
    22   19   20 ar   
    23   20   23 ar   
    24   21   22 ar   
    25   22   23 ar   
    26   23   24 1    
    27   24   25 1    
    28   25   26 1    
    29   25   30 1    
    30   26   27 1    
    31   27   28 2    
    32   27   29 am   
    33   29   30 am   
    34   30   31 2    
@<TRIPOS>SUBSTRUCTURE
     1 TDZ502      1 GROUP   
@<TRIPOS>SET

