#    Name: 5zw7_1_FAD
#    Modification time : Fri May 22 19:26:46 2020

@<TRIPOS>MOLECULE
5zw7_1_FAD
   53    58     1     0     1
SMALL
NO_CHARGES


@<TRIPOS>ATOM
      1 PA          2.7760   18.9620   14.4710 P.3       1 FAD501      0.0000 
      2 O1A         1.5990   19.5930   15.1000 O.co2     1 FAD501      0.0000 
      3 O2A         3.8580   19.8290   13.9570 O.co2     1 FAD501      0.0000 
      4 O5B         2.3040   18.0180   13.2890 O.3       1 FAD501      0.0000 
      5 C5B         0.9540   17.5120   13.2130 C.3       1 FAD501      0.0000 
      6 C4B         0.7580   16.9010   11.8470 C.3       1 FAD501      0.0000 
      7 O4B         0.8730   17.9340   10.8240 O.3       1 FAD501      0.0000 
      8 C3B         1.7790   15.8200   11.4670 C.3       1 FAD501      0.0000 
      9 O3B         1.1900   14.8570   10.6110 O.3       1 FAD501      0.0000 
     10 C2B         2.7910   16.6090   10.6470 C.3       1 FAD501      0.0000 
     11 O2B         3.6080   15.8340    9.7860 O.3       1 FAD501      0.0000 
     12 C1B         1.8510   17.5290    9.8870 C.3       1 FAD501      0.0000 
     13 N9A         2.4870   18.7060    9.3360 N.pl3     1 FAD501      0.0000 
     14 C8A         2.9300   19.8350    9.9850 C.2       1 FAD501      0.0000 
     15 N7A         3.4850   20.7150    9.1810 N.2       1 FAD501      0.0000 
     16 C5A         3.4370   20.1120    7.9310 C.ar      1 FAD501      0.0000 
     17 C6A         3.8650   20.5360    6.6640 C.ar      1 FAD501      0.0000 
     18 N6A         4.5100   21.6840    6.4200 N.pl3     1 FAD501      0.0000 
     19 N1A         3.6320   19.7070    5.6190 N.ar      1 FAD501      0.0000 
     20 C2A         3.0100   18.5500    5.8430 C.ar      1 FAD501      0.0000 
     21 N3A         2.5570   18.0650    6.9930 N.ar      1 FAD501      0.0000 
     22 C4A         2.8000   18.8920    8.0070 C.ar      1 FAD501      0.0000 
     23 N1         11.1500   17.8720   21.2150 N.2       1 FAD501      0.0000 
     24 C2         12.1560   18.4860   21.8880 C.2       1 FAD501      0.0000 
     25 O2         12.3730   19.7150   21.7900 O.2       1 FAD501      0.0000 
     26 N3         12.9940   17.7650   22.7100 N.am      1 FAD501      0.0000 
     27 C4         12.8940   16.4070   22.9020 C.2       1 FAD501      0.0000 
     28 O4         13.6260   15.8270   23.7030 O.2       1 FAD501      0.0000 
     29 C4X        11.8490   15.7500   22.1670 C.2       1 FAD501      0.0000 
     30 N5         11.7310   14.4180   22.3100 N.2       1 FAD501      0.0000 
     31 C5X        10.6700   13.8110   21.6950 C.ar      1 FAD501      0.0000 
     32 C6         10.4980   12.4440   21.8590 C.ar      1 FAD501      0.0000 
     33 C7          9.4590   11.7640   21.2280 C.ar      1 FAD501      0.0000 
     34 C7M         9.3190   10.2720   21.4100 C.3       1 FAD501      0.0000 
     35 C8          8.5730   12.4850   20.4050 C.ar      1 FAD501      0.0000 
     36 C8M         7.4230   11.7960   19.7190 C.3       1 FAD501      0.0000 
     37 C9          8.7310   13.8520   20.2520 C.ar      1 FAD501      0.0000 
     38 C9A         9.7810   14.5210   20.8640 C.ar      1 FAD501      0.0000 
     39 N10         9.9700   15.9160   20.7120 N.pl3     1 FAD501      0.0000 
     40 C10        11.0030   16.5500   21.3580 C.2       1 FAD501      0.0000 
     41 C1'         8.9710   16.6880   19.9770 C.3       1 FAD501      0.0000 
     42 C2'         9.1060   16.5780   18.4640 C.3       1 FAD501      0.0000 
     43 O2'        10.1600   17.4200   18.0050 O.3       1 FAD501      0.0000 
     44 C3'         7.7910   17.0160   17.8150 C.3       1 FAD501      0.0000 
     45 O3'         6.8400   15.9990   18.1430 O.3       1 FAD501      0.0000 
     46 C4'         7.8750   17.1710   16.2910 C.3       1 FAD501      0.0000 
     47 O4'         8.6160   18.3550   16.0210 O.3       1 FAD501      0.0000 
     48 C5'         6.5230   17.2790   15.6210 C.3       1 FAD501      0.0000 
     49 O5'         5.7770   18.4060   16.1810 O.3       1 FAD501      0.0000 
     50 P           4.3320   18.1570   16.7730 P.3       1 FAD501      0.0000 
     51 O1P         4.3320   16.8530   17.5410 O.co2     1 FAD501      0.0000 
     52 O2P         3.8970   19.3810   17.4340 O.co2     1 FAD501      0.0000 
     53 O3P         3.3950   17.8840   15.4770 O.3       1 FAD501      0.0000 
@<TRIPOS>BOND
     1    1    2 ar   
     2    1    3 ar   
     3    1    4 1    
     4    1   53 1    
     5    4    5 1    
     6    5    6 1    
     7    6    7 1    
     8    6    8 1    
     9    7   12 1    
    10    8    9 1    
    11    8   10 1    
    12   10   11 1    
    13   10   12 1    
    14   12   13 1    
    15   13   14 1    
    16   13   22 1    
    17   14   15 2    
    18   15   16 1    
    19   16   17 ar   
    20   16   22 ar   
    21   17   18 1    
    22   17   19 ar   
    23   19   20 ar   
    24   20   21 ar   
    25   21   22 ar   
    26   23   24 1    
    27   23   40 2    
    28   24   25 2    
    29   24   26 am   
    30   26   27 am   
    31   27   28 2    
    32   27   29 1    
    33   29   30 2    
    34   29   40 1    
    35   30   31 1    
    36   31   32 ar   
    37   31   38 ar   
    38   32   33 ar   
    39   33   34 1    
    40   33   35 ar   
    41   35   36 1    
    42   35   37 ar   
    43   37   38 ar   
    44   38   39 1    
    45   39   40 1    
    46   39   41 1    
    47   41   42 1    
    48   42   43 1    
    49   42   44 1    
    50   44   45 1    
    51   44   46 1    
    52   46   47 1    
    53   46   48 1    
    54   48   49 1    
    55   49   50 1    
    56   50   51 ar   
    57   50   52 ar   
    58   50   53 1    
@<TRIPOS>SUBSTRUCTURE
     1 FAD501      1 GROUP   
@<TRIPOS>SET
ATOM$ORANGE STATIC     ATOMS   COLORGROUP SYSTEM 
54 5 5 6 6 8 8 10 10 12 12 14 14 16 16 17 17 20 \
20 22 22 24 24 27 27 29 29 31 31 32 32 33 33 34 34 35 \
35 36 36 37 37 38 38 40 40 41 41 42 42 44 44 46 46 48 \
48 

