#    Name: 6dpw_10_GTP
#    Modification time : Fri May 22 19:32:28 2020

@<TRIPOS>MOLECULE
6dpw_10_GTP
   32    34     1     0     1
SMALL
NO_CHARGES


@<TRIPOS>ATOM
      1 PG        287.5970  448.9210  422.9520 P.3       1 GTP501      0.0000 
      2 O1G       288.5210  447.8980  422.3330 O.co2     1 GTP501      0.0000 
      3 O2G       286.1910  448.3870  423.0000 O.co2     1 GTP501      0.0000 
      4 O3G       287.7040  450.3090  422.3850 O.co2     1 GTP501      0.0000 
      5 O3B       287.9680  449.1730  424.4990 O.3       1 GTP501      0.0000 
      6 PB        288.9630  448.2660  425.3720 P.3       1 GTP501      0.0000 
      7 O1B       288.9560  446.8190  424.9390 O.co2     1 GTP501      0.0000 
      8 O2B       288.6110  448.4750  426.8210 O.co2     1 GTP501      0.0000 
      9 O3A       290.4090  448.8620  425.0450 O.3       1 GTP501      0.0000 
     10 PA        291.7330  448.5010  425.8770 P.3       1 GTP501      0.0000 
     11 O1A       292.5760  447.6740  424.9320 O.co2     1 GTP501      0.0000 
     12 O2A       291.4040  447.8790  427.2160 O.co2     1 GTP501      0.0000 
     13 O5'       292.3300  449.9860  426.0750 O.3       1 GTP501      0.0000 
     14 C5'       293.6150  450.4250  425.6380 C.3       1 GTP501      0.0000 
     15 C4'       294.3660  451.0000  426.8240 C.3       1 GTP501      0.0000 
     16 O4'       294.5920  449.9520  427.7790 O.3       1 GTP501      0.0000 
     17 C3'       295.7250  451.5360  426.3960 C.3       1 GTP501      0.0000 
     18 O3'       296.0900  452.6440  427.2290 O.3       1 GTP501      0.0000 
     19 C2'       296.6040  450.3290  426.6260 C.3       1 GTP501      0.0000 
     20 O2'       297.9710  450.7000  426.8310 O.3       1 GTP501      0.0000 
     21 C1'       295.9990  449.7210  427.8820 C.3       1 GTP501      0.0000 
     22 N9        296.2540  448.2700  427.9420 N.pl3     1 GTP501      0.0000 
     23 C8        295.7750  447.3440  427.1010 C.2       1 GTP501      0.0000 
     24 N7        296.1660  446.1050  427.4890 N.2       1 GTP501      0.0000 
     25 C5        296.8810  446.2280  428.6150 C.2       1 GTP501      0.0000 
     26 C6        297.5820  445.3220  429.5560 C.2       1 GTP501      0.0000 
     27 O6        297.6010  444.0950  429.3820 O.2       1 GTP501      0.0000 
     28 N1        298.1980  445.8500  430.6110 N.am      1 GTP501      0.0000 
     29 C2        298.2090  447.1800  430.8290 C.2       1 GTP501      0.0000 
     30 N2        298.8500  447.6570  431.9230 N.pl3     1 GTP501      0.0000 
     31 N3        297.5790  448.0730  430.0170 N.2       1 GTP501      0.0000 
     32 C4        296.9120  447.6610  428.9180 C.2       1 GTP501      0.0000 
@<TRIPOS>BOND
     1    1    2 ar   
     2    1    3 ar   
     3    1    4 ar   
     4    1    5 1    
     5    5    6 1    
     6    6    7 ar   
     7    6    8 ar   
     8    6    9 1    
     9    9   10 1    
    10   10   11 ar   
    11   10   12 ar   
    12   10   13 1    
    13   13   14 1    
    14   14   15 1    
    15   15   16 1    
    16   15   17 1    
    17   16   21 1    
    18   17   18 1    
    19   17   19 1    
    20   19   20 1    
    21   19   21 1    
    22   21   22 1    
    23   22   23 1    
    24   22   32 1    
    25   23   24 2    
    26   24   25 1    
    27   25   26 1    
    28   25   32 2    
    29   26   27 2    
    30   26   28 am   
    31   28   29 1    
    32   29   30 1    
    33   29   31 2    
    34   31   32 1    
@<TRIPOS>SUBSTRUCTURE
     1 GTP501      1 GROUP   
@<TRIPOS>SET
ATOM$ORANGE STATIC     ATOMS   COLORGROUP SYSTEM 
20 14 14 15 15 17 17 19 19 21 21 23 23 25 25 26 26 29 \
29 32 32 

