#    Name: 6dpw_5_GSP
#    Modification time : Fri May 22 19:31:24 2020

@<TRIPOS>MOLECULE
6dpw_5_GSP
   32    34     1     0     0
SMALL
NO_CHARGES


@<TRIPOS>ATOM
      1 PG        338.4190  460.6490  308.7010 P.3       1 GSP501      0.0000 
      2 O3B       339.6760  460.1390  309.5580 O.3       1 GSP501      0.0000 
      3 S1G       338.9520  460.5480  306.8310 S.2       1 GSP501      0.0000 
      4 O2G       337.1140  459.7390  308.9480 O.3       1 GSP501      0.0000 
      5 O3G       338.1850  462.2200  308.9210 O.3       1 GSP501      0.0000 
      6 PB        339.4900  459.9560  311.1350 P.3       1 GSP501      0.0000 
      7 O1B       338.7580  458.6680  311.4350 O.co2     1 GSP501      0.0000 
      8 O2B       338.8860  461.2530  311.6270 O.co2     1 GSP501      0.0000 
      9 PA        341.9340  458.6660  311.3480 P.3       1 GSP501      0.0000 
     10 O1A       342.1600  458.6930  309.8550 O.co2     1 GSP501      0.0000 
     11 O2A       341.4240  457.4500  312.0540 O.co2     1 GSP501      0.0000 
     12 O3A       340.9570  459.8620  311.7730 O.3       1 GSP501      0.0000 
     13 O5'       343.2820  459.0790  312.1050 O.3       1 GSP501      0.0000 
     14 C5'       344.3160  459.7940  311.4460 C.3       1 GSP501      0.0000 
     15 C4'       345.4700  459.9950  312.4200 C.3       1 GSP501      0.0000 
     16 O4'       345.3760  459.0580  313.5040 O.3       1 GSP501      0.0000 
     17 C3'       346.8250  459.7700  311.7880 C.3       1 GSP501      0.0000 
     18 O3'       347.7290  460.7080  312.3810 O.3       1 GSP501      0.0000 
     19 C2'       347.2060  458.3670  312.1940 C.3       1 GSP501      0.0000 
     20 O2'       348.6240  458.2690  312.3450 O.3       1 GSP501      0.0000 
     21 C1'       346.4710  458.1390  313.5060 C.3       1 GSP501      0.0000 
     22 N9        345.8740  456.7870  313.5590 N.pl3     1 GSP501      0.0000 
     23 C8        344.9980  456.2380  312.7030 C.2       1 GSP501      0.0000 
     24 N7        344.6800  454.9700  313.0910 N.2       1 GSP501      0.0000 
     25 C5        345.3570  454.6990  314.2180 C.2       1 GSP501      0.0000 
     26 C6        345.4940  453.5620  315.1600 C.2       1 GSP501      0.0000 
     27 O6        344.8630  452.5130  314.9670 O.2       1 GSP501      0.0000 
     28 N1        346.3050  453.6820  316.2180 N.am      1 GSP501      0.0000 
     29 C2        346.9990  454.8130  316.4450 C.2       1 GSP501      0.0000 
     30 N2        347.8110  454.8960  317.5220 N.pl3     1 GSP501      0.0000 
     31 N3        346.9260  455.8930  315.6250 N.2       1 GSP501      0.0000 
     32 C4        346.1390  455.9010  314.5200 C.2       1 GSP501      0.0000 
@<TRIPOS>BOND
     1    1    2 1    
     2    1    3 2    
     3    1    4 1    
     4    1    5 1    
     5    2    6 1    
     6    6    7 ar   
     7    6    8 ar   
     8    6   12 1    
     9    9   10 ar   
    10    9   11 ar   
    11    9   12 1    
    12    9   13 1    
    13   13   14 1    
    14   14   15 1    
    15   15   16 1    
    16   15   17 1    
    17   16   21 1    
    18   17   18 1    
    19   17   19 1    
    20   19   20 1    
    21   19   21 1    
    22   21   22 1    
    23   22   23 1    
    24   22   32 1    
    25   23   24 2    
    26   24   25 1    
    27   25   26 1    
    28   25   32 2    
    29   26   27 2    
    30   26   28 am   
    31   28   29 1    
    32   29   30 1    
    33   29   31 2    
    34   31   32 1    
@<TRIPOS>SUBSTRUCTURE
     1 GSP501      1 GROUP   
@<TRIPOS>SET

