#    Name: 6dpw_4_GSP
#    Modification time : Fri May 22 19:31:17 2020

@<TRIPOS>MOLECULE
6dpw_4_GSP
   32    34     1     0     0
SMALL
NO_CHARGES


@<TRIPOS>ATOM
      1 PG        286.3980  447.7800  299.9440 P.3       1 GSP501      0.0000 
      2 O3B       287.7390  447.8920  300.8150 O.3       1 GSP501      0.0000 
      3 S1G       286.9590  447.8760  298.0820 S.2       1 GSP501      0.0000 
      4 O2G       285.6250  446.3940  300.2080 O.3       1 GSP501      0.0000 
      5 O3G       285.4870  449.0900  300.1240 O.3       1 GSP501      0.0000 
      6 PB        287.6280  447.6780  302.3940 P.3       1 GSP501      0.0000 
      7 O1B       287.5300  446.2070  302.7160 O.co2     1 GSP501      0.0000 
      8 O2B       286.5090  448.5830  302.8610 O.co2     1 GSP501      0.0000 
      9 PA        290.3900  447.5680  302.6170 P.3       1 GSP501      0.0000 
     10 O1A       290.5890  447.6730  301.1230 O.co2     1 GSP501      0.0000 
     11 O2A       290.4610  446.2570  303.3350 O.co2     1 GSP501      0.0000 
     12 O3A       288.9900  448.2320  303.0310 O.3       1 GSP501      0.0000 
     13 O5'       291.4210  448.5420  303.3620 O.3       1 GSP501      0.0000 
     14 C5'       292.0450  449.6340  302.6980 C.3       1 GSP501      0.0000 
     15 C4'       293.0010  450.3110  303.6740 C.3       1 GSP501      0.0000 
     16 O4'       293.3020  449.4140  304.7500 O.3       1 GSP501      0.0000 
     17 C3'       294.3250  450.6810  303.0440 C.3       1 GSP501      0.0000 
     18 O3'       294.7490  451.9110  303.6400 O.3       1 GSP501      0.0000 
     19 C2'       295.2530  449.5580  303.4410 C.3       1 GSP501      0.0000 
     20 O2'       296.5780  450.0750  303.5920 O.3       1 GSP501      0.0000 
     21 C1'       294.6800  449.0420  304.7540 C.3       1 GSP501      0.0000 
     22 N9        294.7490  447.5640  304.8130 N.pl3     1 GSP501      0.0000 
     23 C8        294.2120  446.6820  303.9560 C.2       1 GSP501      0.0000 
     24 N7        294.4910  445.4070  304.3480 N.2       1 GSP501      0.0000 
     25 C5        295.2140  445.4660  305.4760 C.2       1 GSP501      0.0000 
     26 C6        295.8410  444.5110  306.4220 C.2       1 GSP501      0.0000 
     27 O6        295.7510  443.2890  306.2360 O.2       1 GSP501      0.0000 
     28 N1        296.5100  444.9820  307.4800 N.am      1 GSP501      0.0000 
     29 C2        296.6240  446.3060  307.7040 C.2       1 GSP501      0.0000 
     30 N2        297.3100  446.7480  308.7830 N.pl3     1 GSP501      0.0000 
     31 N3        296.0790  447.2390  306.8800 N.2       1 GSP501      0.0000 
     32 C4        295.3770  446.8910  305.7750 C.2       1 GSP501      0.0000 
@<TRIPOS>BOND
     1    1    2 1    
     2    1    3 2    
     3    1    4 1    
     4    1    5 1    
     5    2    6 1    
     6    6    7 ar   
     7    6    8 ar   
     8    6   12 1    
     9    9   10 ar   
    10    9   11 ar   
    11    9   12 1    
    12    9   13 1    
    13   13   14 1    
    14   14   15 1    
    15   15   16 1    
    16   15   17 1    
    17   16   21 1    
    18   17   18 1    
    19   17   19 1    
    20   19   20 1    
    21   19   21 1    
    22   21   22 1    
    23   22   23 1    
    24   22   32 1    
    25   23   24 2    
    26   24   25 1    
    27   25   26 1    
    28   25   32 2    
    29   26   27 2    
    30   26   28 am   
    31   28   29 1    
    32   29   30 1    
    33   29   31 2    
    34   31   32 1    
@<TRIPOS>SUBSTRUCTURE
     1 GSP501      1 GROUP   
@<TRIPOS>SET

