#    Name: 6dpw_3_GSP
#    Modification time : Fri May 22 19:31:10 2020

@<TRIPOS>MOLECULE
6dpw_3_GSP
   32    34     1     0     0
SMALL
NO_CHARGES


@<TRIPOS>ATOM
      1 PG        287.5500  448.3910  381.6970 P.3       1 GSP501      0.0000 
      2 O3B       288.8650  448.4690  382.6120 O.3       1 GSP501      0.0000 
      3 S1G       288.1820  448.5570  379.8740 S.2       1 GSP501      0.0000 
      4 O2G       286.7170  447.0310  381.9110 O.3       1 GSP501      0.0000 
      5 O3G       286.6530  449.7070  381.8820 O.3       1 GSP501      0.0000 
      6 PB        288.7320  448.2120  384.1850 P.3       1 GSP501      0.0000 
      7 O1B       288.6110  446.7430  384.5250 O.co2     1 GSP501      0.0000 
      8 O2B       287.6110  449.1310  384.6250 O.co2     1 GSP501      0.0000 
      9 PA        291.4810  448.0630  384.4550 P.3       1 GSP501      0.0000 
     10 O1A       291.6870  448.1240  382.9600 O.co2     1 GSP501      0.0000 
     11 O2A       291.5390  446.7660  385.2050 O.co2     1 GSP501      0.0000 
     12 O3A       290.0890  448.7640  384.8290 O.3       1 GSP501      0.0000 
     13 O5'       292.4990  449.0800  385.1600 O.3       1 GSP501      0.0000 
     14 C5'       293.1170  450.1580  384.4680 C.3       1 GSP501      0.0000 
     15 C4'       294.1480  450.7940  385.3930 C.3       1 GSP501      0.0000 
     16 O4'       294.4560  449.9040  386.4690 O.3       1 GSP501      0.0000 
     17 C3'       295.4760  451.0620  384.7210 C.3       1 GSP501      0.0000 
     18 O3'       295.9870  452.2750  385.2770 O.3       1 GSP501      0.0000 
     19 C2'       296.3650  449.9050  385.1040 C.3       1 GSP501      0.0000 
     20 O2'       297.7160  450.3590  385.1900 O.3       1 GSP501      0.0000 
     21 C1'       295.8090  449.4550  386.4500 C.3       1 GSP501      0.0000 
     22 N9        295.8480  447.9730  386.5110 N.pl3     1 GSP501      0.0000 
     23 C8        295.2890  447.0910  385.6620 C.2       1 GSP501      0.0000 
     24 N7        295.5540  445.8160  386.0600 N.2       1 GSP501      0.0000 
     25 C5        296.2780  445.8720  387.1890 C.2       1 GSP501      0.0000 
     26 C6        296.8880  444.9120  388.1360 C.2       1 GSP501      0.0000 
     27 O6        296.7720  443.6930  387.9520 O.2       1 GSP501      0.0000 
     28 N1        297.5640  445.3760  389.1900 N.am      1 GSP501      0.0000 
     29 C2        297.7010  446.6950  389.4100 C.2       1 GSP501      0.0000 
     30 N2        298.3960  447.1220  390.4890 N.pl3     1 GSP501      0.0000 
     31 N3        297.1750  447.6330  388.5840 N.2       1 GSP501      0.0000 
     32 C4        296.4670  447.2930  387.4800 C.2       1 GSP501      0.0000 
@<TRIPOS>BOND
     1    1    2 1    
     2    1    3 2    
     3    1    4 1    
     4    1    5 1    
     5    2    6 1    
     6    6    7 ar   
     7    6    8 ar   
     8    6   12 1    
     9    9   10 ar   
    10    9   11 ar   
    11    9   12 1    
    12    9   13 1    
    13   13   14 1    
    14   14   15 1    
    15   15   16 1    
    16   15   17 1    
    17   16   21 1    
    18   17   18 1    
    19   17   19 1    
    20   19   20 1    
    21   19   21 1    
    22   21   22 1    
    23   22   23 1    
    24   22   32 1    
    25   23   24 2    
    26   24   25 1    
    27   25   26 1    
    28   25   32 2    
    29   26   27 2    
    30   26   28 am   
    31   28   29 1    
    32   29   30 1    
    33   29   31 2    
    34   31   32 1    
@<TRIPOS>SUBSTRUCTURE
     1 GSP501      1 GROUP   
@<TRIPOS>SET

