#    Name: 6dpw_7_GTP
#    Modification time : Fri May 22 19:31:45 2020

@<TRIPOS>MOLECULE
6dpw_7_GTP
   32    34     1     0     1
SMALL
NO_CHARGES


@<TRIPOS>ATOM
      1 PG        338.8450  461.1560  350.0410 P.3       1 GTP501      0.0000 
      2 O1G       339.2000  459.8380  349.3840 O.co2     1 GTP501      0.0000 
      3 O2G       337.3510  461.3100  350.1240 O.co2     1 GTP501      0.0000 
      4 O3G       339.5400  462.3760  349.5010 O.co2     1 GTP501      0.0000 
      5 O3B       339.3300  461.1770  351.5780 O.3       1 GTP501      0.0000 
      6 PB        339.8290  459.8990  352.4150 P.3       1 GTP501      0.0000 
      7 O1B       339.1720  458.6080  351.9920 O.co2     1 GTP501      0.0000 
      8 O2B       339.6510  460.2260  353.8730 O.co2     1 GTP501      0.0000 
      9 O3A       341.3780  459.8210  352.0510 O.3       1 GTP501      0.0000 
     10 PA        342.4130  458.9220  352.8760 P.3       1 GTP501      0.0000 
     11 O1A       342.8150  457.7880  351.9610 O.co2     1 GTP501      0.0000 
     12 O2A       341.8620  458.5290  354.2280 O.co2     1 GTP501      0.0000 
     13 O5'       343.5630  460.0390  352.9990 O.3       1 GTP501      0.0000 
     14 C5'       344.9180  459.9440  352.5690 C.3       1 GTP501      0.0000 
     15 C4'       345.8180  460.1200  353.7820 C.3       1 GTP501      0.0000 
     16 O4'       345.5960  459.0490  354.7170 O.3       1 GTP501      0.0000 
     17 C3'       347.2760  460.0330  353.3760 C.3       1 GTP501      0.0000 
     18 O3'       348.0670  460.8700  354.2280 O.3       1 GTP501      0.0000 
     19 C2'       347.5790  458.5670  353.5810 C.3       1 GTP501      0.0000 
     20 O2'       348.9770  458.3370  353.7890 O.3       1 GTP501      0.0000 
     21 C1'       346.7770  458.2480  354.8330 C.3       1 GTP501      0.0000 
     22 N9        346.3940  456.8330  354.9150 N.pl3     1 GTP501      0.0000 
     23 C8        345.5740  456.1890  354.0790 C.2       1 GTP501      0.0000 
     24 N7        345.3930  454.9040  354.4790 N.2       1 GTP501      0.0000 
     25 C5        346.0860  454.7270  355.6100 C.2       1 GTP501      0.0000 
     26 C6        346.3180  453.6140  356.5600 C.2       1 GTP501      0.0000 
     27 O6        345.8010  452.5090  356.3790 O.2       1 GTP501      0.0000 
     28 N1        347.0880  453.8180  357.6230 N.am      1 GTP501      0.0000 
     29 C2        347.6710  455.0160  357.8370 C.2       1 GTP501      0.0000 
     30 N2        348.4420  455.1610  358.9420 N.pl3     1 GTP501      0.0000 
     31 N3        347.4950  456.1010  357.0140 N.2       1 GTP501      0.0000 
     32 C4        346.7270  456.0150  355.9030 C.2       1 GTP501      0.0000 
@<TRIPOS>BOND
     1    1    2 ar   
     2    1    3 ar   
     3    1    4 ar   
     4    1    5 1    
     5    5    6 1    
     6    6    7 ar   
     7    6    8 ar   
     8    6    9 1    
     9    9   10 1    
    10   10   11 ar   
    11   10   12 ar   
    12   10   13 1    
    13   13   14 1    
    14   14   15 1    
    15   15   16 1    
    16   15   17 1    
    17   16   21 1    
    18   17   18 1    
    19   17   19 1    
    20   19   20 1    
    21   19   21 1    
    22   21   22 1    
    23   22   23 1    
    24   22   32 1    
    25   23   24 2    
    26   24   25 1    
    27   25   26 1    
    28   25   32 2    
    29   26   27 2    
    30   26   28 am   
    31   28   29 1    
    32   29   30 1    
    33   29   31 2    
    34   31   32 1    
@<TRIPOS>SUBSTRUCTURE
     1 GTP501      1 GROUP   
@<TRIPOS>SET
ATOM$ORANGE STATIC     ATOMS   COLORGROUP SYSTEM 
20 14 14 15 15 17 17 19 19 21 21 23 23 25 25 26 26 29 \
29 32 32 

