#    Name: 6dpw_8_GTP
#    Modification time : Fri May 22 19:31:59 2020

@<TRIPOS>MOLECULE
6dpw_8_GTP
   32    34     1     0     1
SMALL
NO_CHARGES


@<TRIPOS>ATOM
      1 PG        391.5120  449.8900  358.8430 P.3       1 GTP501      0.0000 
      2 O1G       391.2100  448.5840  358.1420 O.co2     1 GTP501      0.0000 
      3 O2G       390.2660  450.7230  358.9280 O.co2     1 GTP501      0.0000 
      4 O3G       392.7090  450.6470  358.3380 O.co2     1 GTP501      0.0000 
      5 O3B       391.9180  449.6640  360.3890 O.3       1 GTP501      0.0000 
      6 PB        391.7270  448.2760  361.1730 P.3       1 GTP501      0.0000 
      7 O1B       390.5400  447.4720  360.6920 O.co2     1 GTP501      0.0000 
      8 O2B       391.6850  448.5780  362.6480 O.co2     1 GTP501      0.0000 
      9 O3A       393.0840  447.5260  360.8110 O.3       1 GTP501      0.0000 
     10 PA        393.6050  446.2200  361.5680 P.3       1 GTP501      0.0000 
     11 O1A       393.4690  445.1020  360.5550 O.co2     1 GTP501      0.0000 
     12 O2A       392.9080  446.0110  362.8960 O.co2     1 GTP501      0.0000 
     13 O5'       395.1360  446.6850  361.7810 O.3       1 GTP501      0.0000 
     14 C5'       396.3070  446.0190  361.3190 C.3       1 GTP501      0.0000 
     15 C4'       397.2540  445.8600  362.4990 C.3       1 GTP501      0.0000 
     16 O4'       396.6240  445.0190  363.4790 O.3       1 GTP501      0.0000 
     17 C3'       398.5380  445.1620  362.0860 C.3       1 GTP501      0.0000 
     18 O3'       399.6190  445.6380  362.8970 O.3       1 GTP501      0.0000 
     19 C2'       398.2000  443.7140  362.3600 C.3       1 GTP501      0.0000 
     20 O2'       399.3670  442.9140  362.5830 O.3       1 GTP501      0.0000 
     21 C1'       397.3560  443.8010  363.6140 C.3       1 GTP501      0.0000 
     22 N9        396.4080  442.6810  363.6970 N.pl3     1 GTP501      0.0000 
     23 C8        395.4000  442.4570  362.8460 C.2       1 GTP501      0.0000 
     24 N7        394.6710  441.3810  363.2270 N.2       1 GTP501      0.0000 
     25 C5        395.2020  440.9220  364.3640 C.2       1 GTP501      0.0000 
     26 C6        394.9090  439.8150  365.3070 C.2       1 GTP501      0.0000 
     27 O6        393.9620  439.0440  365.1070 O.2       1 GTP501      0.0000 
     28 N1        395.6800  439.6640  366.3830 N.am      1 GTP501      0.0000 
     29 C2        396.7220  440.4880  366.6130 C.2       1 GTP501      0.0000 
     30 N2        397.4630  440.2810  367.7280 N.pl3     1 GTP501      0.0000 
     31 N3        397.0490  441.5410  365.8000 N.2       1 GTP501      0.0000 
     32 C4        396.3370  441.8000  364.6800 C.2       1 GTP501      0.0000 
@<TRIPOS>BOND
     1    1    2 ar   
     2    1    3 ar   
     3    1    4 ar   
     4    1    5 1    
     5    5    6 1    
     6    6    7 ar   
     7    6    8 ar   
     8    6    9 1    
     9    9   10 1    
    10   10   11 ar   
    11   10   12 ar   
    12   10   13 1    
    13   13   14 1    
    14   14   15 1    
    15   15   16 1    
    16   15   17 1    
    17   16   21 1    
    18   17   18 1    
    19   17   19 1    
    20   19   20 1    
    21   19   21 1    
    22   21   22 1    
    23   22   23 1    
    24   22   32 1    
    25   23   24 2    
    26   24   25 1    
    27   25   26 1    
    28   25   32 2    
    29   26   27 2    
    30   26   28 am   
    31   28   29 1    
    32   29   30 1    
    33   29   31 2    
    34   31   32 1    
@<TRIPOS>SUBSTRUCTURE
     1 GTP501      1 GROUP   
@<TRIPOS>SET
ATOM$ORANGE STATIC     ATOMS   COLORGROUP SYSTEM 
20 14 14 15 15 17 17 19 19 21 21 23 23 25 25 26 26 29 \
29 32 32 

