#    Name: 6dpw_11_GTP
#    Modification time : Fri May 22 19:32:41 2020

@<TRIPOS>MOLECULE
6dpw_11_GTP
   32    34     1     0     1
SMALL
NO_CHARGES


@<TRIPOS>ATOM
      1 PG        340.0200  461.1170  431.7170 P.3       1 GTP501      0.0000 
      2 O1G       340.3660  459.7840  431.0940 O.co2     1 GTP501      0.0000 
      3 O2G       338.5250  461.2760  431.7740 O.co2     1 GTP501      0.0000 
      4 O3G       340.7440  462.3020  431.1380 O.co2     1 GTP501      0.0000 
      5 O3B       340.4760  461.1870  433.2590 O.3       1 GTP501      0.0000 
      6 PB        340.9600  459.9380  434.1390 P.3       1 GTP501      0.0000 
      7 O1B       340.2950  458.6510  433.7180 O.co2     1 GTP501      0.0000 
      8 O2B       340.7530  460.2840  435.5900 O.co2     1 GTP501      0.0000 
      9 O3A       342.5210  459.8390  433.8080 O.3       1 GTP501      0.0000 
     10 PA        343.5640  458.9370  434.6300 P.3       1 GTP501      0.0000 
     11 O1A       343.9540  457.8260  433.6800 O.co2     1 GTP501      0.0000 
     12 O2A       343.0060  458.5170  435.9720 O.co2     1 GTP501      0.0000 
     13 O5'       344.7500  460.0110  434.8230 O.3       1 GTP501      0.0000 
     14 C5'       346.0960  459.8480  434.3790 C.3       1 GTP501      0.0000 
     15 C4'       347.0260  460.0520  435.5620 C.3       1 GTP501      0.0000 
     16 O4'       346.7730  459.0140  436.5220 O.3       1 GTP501      0.0000 
     17 C3'       348.4830  459.9490  435.1360 C.3       1 GTP501      0.0000 
     18 O3'       349.2910  460.7970  435.9640 O.3       1 GTP501      0.0000 
     19 C2'       348.7490  458.4810  435.3750 C.3       1 GTP501      0.0000 
     20 O2'       350.1400  458.2170  435.5860 O.3       1 GTP501      0.0000 
     21 C1'       347.9390  458.1950  436.6270 C.3       1 GTP501      0.0000 
     22 N9        347.5250  456.7810  436.6920 N.pl3     1 GTP501      0.0000 
     23 C8        346.6810  456.1610  435.8540 C.2       1 GTP501      0.0000 
     24 N7        346.4790  454.8770  436.2450 N.2       1 GTP501      0.0000 
     25 C5        347.1790  454.6740  437.3680 C.2       1 GTP501      0.0000 
     26 C6        347.4060  453.5550  438.3110 C.2       1 GTP501      0.0000 
     27 O6        346.8720  452.4500  438.1370 O.2       1 GTP501      0.0000 
     28 N1        348.2000  453.7570  439.3620 N.am      1 GTP501      0.0000 
     29 C2        348.8010  454.9440  439.5790 C.2       1 GTP501      0.0000 
     30 N2        349.5930  455.0920  440.6670 N.pl3     1 GTP501      0.0000 
     31 N3        348.6330  456.0190  438.7640 N.2       1 GTP501      0.0000 
     32 C4        347.8480  455.9430  437.6670 C.2       1 GTP501      0.0000 
@<TRIPOS>BOND
     1    1    2 ar   
     2    1    3 ar   
     3    1    4 ar   
     4    1    5 1    
     5    5    6 1    
     6    6    7 ar   
     7    6    8 ar   
     8    6    9 1    
     9    9   10 1    
    10   10   11 ar   
    11   10   12 ar   
    12   10   13 1    
    13   13   14 1    
    14   14   15 1    
    15   15   16 1    
    16   15   17 1    
    17   16   21 1    
    18   17   18 1    
    19   17   19 1    
    20   19   20 1    
    21   19   21 1    
    22   21   22 1    
    23   22   23 1    
    24   22   32 1    
    25   23   24 2    
    26   24   25 1    
    27   25   26 1    
    28   25   32 2    
    29   26   27 2    
    30   26   28 am   
    31   28   29 1    
    32   29   30 1    
    33   29   31 2    
    34   31   32 1    
@<TRIPOS>SUBSTRUCTURE
     1 GTP501      1 GROUP   
@<TRIPOS>SET
ATOM$ORANGE STATIC     ATOMS   COLORGROUP SYSTEM 
20 14 14 15 15 17 17 19 19 21 21 23 23 25 25 26 26 29 \
29 32 32 

