#    Name: 6dpw_1_GSP
#    Modification time : Fri May 22 19:30:40 2020

@<TRIPOS>MOLECULE
6dpw_1_GSP
   32    34     1     0     0
SMALL
NO_CHARGES


@<TRIPOS>ATOM
      1 PG        339.7200  460.7260  390.4460 P.3       1 GSP501      0.0000 
      2 O3B       340.9510  460.1960  391.3340 O.3       1 GSP501      0.0000 
      3 S1G       340.3560  460.7460  388.6140 S.2       1 GSP501      0.0000 
      4 O2G       338.4000  459.8160  390.5960 O.3       1 GSP501      0.0000 
      5 O3G       339.4410  462.2780  390.7160 O.3       1 GSP501      0.0000 
      6 PB        340.7190  459.9310  392.8970 P.3       1 GSP501      0.0000 
      7 O1B       339.9930  458.6290  393.1680 O.co2     1 GSP501      0.0000 
      8 O2B       340.0920  461.2160  393.3970 O.co2     1 GSP501      0.0000 
      9 PA        343.1550  458.6390  393.1560 P.3       1 GSP501      0.0000 
     10 O1A       343.3890  458.6720  391.6640 O.co2     1 GSP501      0.0000 
     11 O2A       342.6560  457.4120  393.8550 O.co2     1 GSP501      0.0000 
     12 O3A       342.1720  459.8350  393.5610 O.3       1 GSP501      0.0000 
     13 O5'       344.4930  459.1050  393.8990 O.3       1 GSP501      0.0000 
     14 C5'       345.5050  459.8520  393.2380 C.3       1 GSP501      0.0000 
     15 C4'       346.7010  459.9780  394.1740 C.3       1 GSP501      0.0000 
     16 O4'       346.6170  459.0010  395.2150 O.3       1 GSP501      0.0000 
     17 C3'       348.0270  459.7020  393.5050 C.3       1 GSP501      0.0000 
     18 O3'       348.9810  460.5860  394.1010 O.3       1 GSP501      0.0000 
     19 C2'       348.3830  458.2750  393.8500 C.3       1 GSP501      0.0000 
     20 O2'       349.8020  458.1380  393.9430 O.3       1 GSP501      0.0000 
     21 C1'       347.6780  458.0460  395.1800 C.3       1 GSP501      0.0000 
     22 N9        347.0580  456.7020  395.2530 N.pl3     1 GSP501      0.0000 
     23 C8        346.1620  456.1640  394.4070 C.2       1 GSP501      0.0000 
     24 N7        345.8310  454.9030  394.8070 N.2       1 GSP501      0.0000 
     25 C5        346.5120  454.6270  395.9320 C.2       1 GSP501      0.0000 
     26 C6        346.6320  453.4950  396.8770 C.2       1 GSP501      0.0000 
     27 O6        345.9770  452.4590  396.6920 O.2       1 GSP501      0.0000 
     28 N1        347.4490  453.6080  397.9290 N.am      1 GSP501      0.0000 
     29 C2        348.1630  454.7250  398.1470 C.2       1 GSP501      0.0000 
     30 N2        348.9800  454.7990  399.2200 N.pl3     1 GSP501      0.0000 
     31 N3        348.1080  455.8000  397.3230 N.2       1 GSP501      0.0000 
     32 C4        347.3170  455.8160  396.2210 C.2       1 GSP501      0.0000 
@<TRIPOS>BOND
     1    1    2 1    
     2    1    3 2    
     3    1    4 1    
     4    1    5 1    
     5    2    6 1    
     6    6    7 ar   
     7    6    8 ar   
     8    6   12 1    
     9    9   10 ar   
    10    9   11 ar   
    11    9   12 1    
    12    9   13 1    
    13   13   14 1    
    14   14   15 1    
    15   15   16 1    
    16   15   17 1    
    17   16   21 1    
    18   17   18 1    
    19   17   19 1    
    20   19   20 1    
    21   19   21 1    
    22   21   22 1    
    23   22   23 1    
    24   22   32 1    
    25   23   24 2    
    26   24   25 1    
    27   25   26 1    
    28   25   32 2    
    29   26   27 2    
    30   26   28 am   
    31   28   29 1    
    32   29   30 1    
    33   29   31 2    
    34   31   32 1    
@<TRIPOS>SUBSTRUCTURE
     1 GSP501      1 GROUP   
@<TRIPOS>SET

