#    Name: 6dpw_2_GSP
#    Modification time : Fri May 22 19:30:55 2020

@<TRIPOS>MOLECULE
6dpw_2_GSP
   32    34     1     0     0
SMALL
NO_CHARGES


@<TRIPOS>ATOM
      1 PG        392.0520  449.0920  399.1700 P.3       1 GSP501      0.0000 
      2 O3B       392.8870  448.0580  400.0720 O.3       1 GSP501      0.0000 
      3 S1G       392.5950  448.7610  397.3400 S.2       1 GSP501      0.0000 
      4 O2G       390.4580  448.9430  399.3400 O.3       1 GSP501      0.0000 
      5 O3G       392.5730  450.5860  399.4060 O.3       1 GSP501      0.0000 
      6 PB        392.5880  447.9530  401.6430 P.3       1 GSP501      0.0000 
      7 O1B       391.3490  447.1390  401.9490 O.co2     1 GSP501      0.0000 
      8 O2B       392.6360  449.3880  402.1270 O.co2     1 GSP501      0.0000 
      9 PA        394.2120  445.7330  401.9130 P.3       1 GSP501      0.0000 
     10 O1A       394.4160  445.6310  400.4190 O.co2     1 GSP501      0.0000 
     11 O2A       393.2320  444.8630  402.6420 O.co2     1 GSP501      0.0000 
     12 O3A       393.8650  447.2460  402.2980 O.3       1 GSP501      0.0000 
     13 O5'       395.6330  445.5870  402.6380 O.3       1 GSP501      0.0000 
     14 C5'       396.8710  445.8020  401.9720 C.3       1 GSP501      0.0000 
     15 C4'       397.9990  445.4010  402.9210 C.3       1 GSP501      0.0000 
     16 O4'       397.5030  444.5530  403.9620 O.3       1 GSP501      0.0000 
     17 C3'       399.1000  444.6060  402.2550 C.3       1 GSP501      0.0000 
     18 O3'       400.3310  445.0110  402.8620 O.3       1 GSP501      0.0000 
     19 C2'       398.8210  443.1580  402.6050 C.3       1 GSP501      0.0000 
     20 O2'       400.0500  442.4390  402.7110 O.3       1 GSP501      0.0000 
     21 C1'       398.0710  443.2420  403.9290 C.3       1 GSP501      0.0000 
     22 N9        396.9410  442.2880  403.9940 N.pl3     1 GSP501      0.0000 
     23 C8        395.9110  442.1840  403.1390 C.2       1 GSP501      0.0000 
     24 N7        395.0670  441.1860  403.5270 N.2       1 GSP501      0.0000 
     25 C5        395.5520  440.6470  404.6590 C.2       1 GSP501      0.0000 
     26 C6        395.1620  439.5710  405.6020 C.2       1 GSP501      0.0000 
     27 O6        394.1270  438.9150  405.4040 O.2       1 GSP501      0.0000 
     28 N1        395.9390  439.3250  406.6650 N.am      1 GSP501      0.0000 
     29 C2        397.0630  440.0320  406.8940 C.2       1 GSP501      0.0000 
     30 N2        397.8210  439.7510  407.9750 N.pl3     1 GSP501      0.0000 
     31 N3        397.4850  441.0260  406.0710 N.2       1 GSP501      0.0000 
     32 C4        396.7880  441.3770  404.9610 C.2       1 GSP501      0.0000 
@<TRIPOS>BOND
     1    1    2 1    
     2    1    3 2    
     3    1    4 1    
     4    1    5 1    
     5    2    6 1    
     6    6    7 ar   
     7    6    8 ar   
     8    6   12 1    
     9    9   10 ar   
    10    9   11 ar   
    11    9   12 1    
    12    9   13 1    
    13   13   14 1    
    14   14   15 1    
    15   15   16 1    
    16   15   17 1    
    17   16   21 1    
    18   17   18 1    
    19   17   19 1    
    20   19   20 1    
    21   19   21 1    
    22   21   22 1    
    23   22   23 1    
    24   22   32 1    
    25   23   24 2    
    26   24   25 1    
    27   25   26 1    
    28   25   32 2    
    29   26   27 2    
    30   26   28 am   
    31   28   29 1    
    32   29   30 1    
    33   29   31 2    
    34   31   32 1    
@<TRIPOS>SUBSTRUCTURE
     1 GSP501      1 GROUP   
@<TRIPOS>SET

