#    Name: 6dpw_9_GTP_CAVITY_N1_4
#    Modification time : Fri May 22 19:32:15 2020

@<TRIPOS>MOLECULE
6dpw_9_GTP_CAVITY_N1_4
   70     0     7     0     0
SMALL
NO_CHARGES


@<TRIPOS>ATOM
      1 OG        288.1600  448.6400  345.2900 O.3       1 SER1        0.0000 
      2 OG        292.6400  450.3300  341.3700 O.3       1 SER1        0.0000 
      3 OG        291.3300  450.3100  344.4600 O.3       1 SER1        0.0000 
      4 OG        291.4200  448.8100  344.4900 O.3       1 SER1        0.0000 
      5 OG        292.4700  450.3600  343.4900 O.3       1 SER1        0.0000 
      6 OG        293.6100  450.4100  342.5100 O.3       1 SER1        0.0000 
      7 OG        292.2100  451.8900  345.5700 O.3       1 SER1        0.0000 
      8 OG        292.3000  450.3900  345.6000 O.3       1 SER1        0.0000 
      9 OG        292.3800  448.8900  345.6300 O.3       1 SER1        0.0000 
     10 OG        294.5800  450.4900  343.6600 O.3       1 SER1        0.0000 
     11 OG        294.6700  448.9900  343.6900 O.3       1 SER1        0.0000 
     12 OG        295.5500  450.5700  344.8000 O.3       1 SER1        0.0000 
     13 OG        295.6400  449.0700  344.8300 O.3       1 SER1        0.0000 
     14 OG        295.7300  447.5700  344.8600 O.3       1 SER1        0.0000 
     15 OG        296.6100  449.1500  345.9700 O.3       1 SER1        0.0000 
     16 N         289.6500  448.6200  340.0900 N.am      2 ALA2        0.0000 
     17 N         290.6200  448.7000  341.2300 N.am      2 ALA2        0.0000 
     18 N         291.6800  450.2500  340.2300 N.am      2 ALA2        0.0000 
     19 O         288.2500  447.1400  345.3200 O.2       2 ALA2        0.0000 
     20 O         289.3900  447.1900  344.3500 O.2       2 ALA2        0.0000 
     21 N         291.4100  451.7800  342.3100 N.am      2 ALA2        0.0000 
     22 N         291.5000  450.2800  342.3400 N.am      2 ALA2        0.0000 
     23 O         290.3600  447.2700  345.4900 O.2       2 ALA2        0.0000 
     24 N         294.8500  446.0000  343.7500 N.am      2 ALA2        0.0000 
     25 O         295.4600  449.1000  346.9400 O.2       2 ALA2        0.0000 
     26 O         295.7300  444.6100  347.0300 O.2       2 ALA2        0.0000 
     27 O         296.5200  450.6500  345.9400 O.2       2 ALA2        0.0000 
     28 O         296.5200  447.6900  348.1200 O.2       2 ALA2        0.0000 
     29 OD1       288.5100  448.5700  341.0600 O.co2     3 ASP3        0.0000 
     30 OD1       289.7400  447.1200  340.1200 O.co2     3 ASP3        0.0000 
     31 OD1       288.4300  447.1100  343.2000 O.co2     3 ASP3        0.0000 
     32 OD1       289.4800  448.6500  342.2000 O.co2     3 ASP3        0.0000 
     33 OD1       289.5700  447.1600  342.2300 O.co2     3 ASP3        0.0000 
     34 OD1       290.7100  447.2000  341.2600 O.co2     3 ASP3        0.0000 
     35 NZ        293.3500  451.9400  344.6000 N.4       4 LYS4        0.0000 
     36 CZ        295.8100  446.0800  344.8900 C.ar      5 PHE5        0.0000 
     37 CZ        296.7800  446.1600  346.0300 C.ar      5 PHE5        0.0000 
     38 CZ        296.6100  446.1900  348.1500 C.ar      5 PHE5        0.0000 
     39 CA        288.3400  448.6100  343.1700 C.3       6 GLY6        0.0000 
     40 CA        289.3900  450.1500  342.1700 C.3       6 GLY6        0.0000 
     41 CA        291.7600  448.7500  340.2600 C.3       6 GLY6        0.0000 
     42 CA        289.3100  448.6900  344.3200 C.3       6 GLY6        0.0000 
     43 CA        290.3600  450.2300  343.3100 C.3       6 GLY6        0.0000 
     44 CA        290.5400  447.2400  343.3700 C.3       6 GLY6        0.0000 
     45 CA        291.5900  448.7800  342.3700 C.3       6 GLY6        0.0000 
     46 CA        291.6800  447.2800  342.4000 C.3       6 GLY6        0.0000 
     47 CA        291.5000  447.3200  344.5200 C.3       6 GLY6        0.0000 
     48 CA        292.5600  448.8600  343.5200 C.3       6 GLY6        0.0000 
     49 CA        292.6500  447.3600  343.5500 C.3       6 GLY6        0.0000 
     50 CA        292.7400  445.8700  343.5800 C.3       6 GLY6        0.0000 
     51 CA        293.7000  448.9100  342.5400 C.3       6 GLY6        0.0000 
     52 CA        293.8800  445.9200  342.6000 C.3       6 GLY6        0.0000 
     53 CA        292.4700  447.4000  345.6600 C.3       6 GLY6        0.0000 
     54 CA        293.7000  445.9500  344.7200 C.3       6 GLY6        0.0000 
     55 CA        294.7600  447.4900  343.7200 C.3       6 GLY6        0.0000 
     56 CA        293.2600  450.4700  346.7400 C.3       6 GLY6        0.0000 
     57 CA        293.3500  448.9700  346.7700 C.3       6 GLY6        0.0000 
     58 CA        294.5800  447.5300  345.8300 C.3       6 GLY6        0.0000 
     59 CA        294.6700  446.0300  345.8600 C.3       6 GLY6        0.0000 
     60 CA        294.3200  449.0500  347.9100 C.3       6 GLY6        0.0000 
     61 CA        295.3800  450.6000  346.9100 C.3       6 GLY6        0.0000 
     62 CA        295.5500  447.6100  346.9700 C.3       6 GLY6        0.0000 
     63 CA        295.6400  446.1100  347.0000 C.3       6 GLY6        0.0000 
     64 CA        295.3800  447.6400  349.0900 C.3       6 GLY6        0.0000 
     65 CA        295.4700  446.1400  349.1200 C.3       6 GLY6        0.0000 
     66 DU        293.4400  450.4400  344.6300 H         7 CUB7        0.0000 
     67 DU        293.5300  448.9400  344.6600 H         7 CUB7        0.0000 
     68 DU        293.6200  447.4500  344.6900 H         7 CUB7        0.0000 
     69 DU        294.4100  450.5200  345.7700 H         7 CUB7        0.0000 
     70 DU        294.5000  449.0200  345.8000 H         7 CUB7        0.0000 
@<TRIPOS>BOND
@<TRIPOS>SUBSTRUCTURE
     1 SER1        1 GROUP   
     2 ALA2       16 GROUP   
     3 ASP3       29 GROUP   
     4 LYS4       35 GROUP   
     5 PHE5       36 GROUP   
     6 GLY6       39 GROUP   
     7 CUB7       66 GROUP   
@<TRIPOS>SET

