#    Name: 6dpw_12_GTP
#    Modification time : Fri May 22 19:32:53 2020

@<TRIPOS>MOLECULE
6dpw_12_GTP
   32    34     1     0     1
SMALL
NO_CHARGES


@<TRIPOS>ATOM
      1 PG        392.5220  449.3000  440.4980 P.3       1 GTP501      0.0000 
      2 O1G       392.2030  447.9630  439.8720 O.co2     1 GTP501      0.0000 
      3 O2G       391.2770  450.1370  440.5680 O.co2     1 GTP501      0.0000 
      4 O3G       393.7070  450.0340  439.9290 O.co2     1 GTP501      0.0000 
      5 O3B       392.9610  449.1430  442.0400 O.3       1 GTP501      0.0000 
      6 PB        392.7990  447.8100  442.9170 P.3       1 GTP501      0.0000 
      7 O1B       391.5970  446.9830  442.5260 O.co2     1 GTP501      0.0000 
      8 O2B       392.7960  448.2270  444.3650 O.co2     1 GTP501      0.0000 
      9 O3A       394.1580  447.0240  442.5880 O.3       1 GTP501      0.0000 
     10 PA        394.7280  445.7760  443.4260 P.3       1 GTP501      0.0000 
     11 O1A       394.5970  444.5660  442.5280 O.co2     1 GTP501      0.0000 
     12 O2A       394.0690  445.6810  444.7860 O.co2     1 GTP501      0.0000 
     13 O5'       396.2620  446.2740  443.5360 O.3       1 GTP501      0.0000 
     14 C5'       397.4420  445.5900  443.1070 C.3       1 GTP501      0.0000 
     15 C4'       398.3360  445.3400  444.3160 C.3       1 GTP501      0.0000 
     16 O4'       397.6570  444.4720  445.2390 O.3       1 GTP501      0.0000 
     17 C3'       399.6100  444.6110  443.9170 C.3       1 GTP501      0.0000 
     18 O3'       400.6810  445.0050  444.7840 O.3       1 GTP501      0.0000 
     19 C2'       399.2280  443.1610  444.1070 C.3       1 GTP501      0.0000 
     20 O2'       400.3680  442.3240  444.3260 O.3       1 GTP501      0.0000 
     21 C1'       398.3570  443.2270  445.3460 C.3       1 GTP501      0.0000 
     22 N9        397.3640  442.1390  445.4120 N.pl3     1 GTP501      0.0000 
     23 C8        396.3350  441.9450  444.5750 C.2       1 GTP501      0.0000 
     24 N7        395.5890  440.8820  444.9710 N.2       1 GTP501      0.0000 
     25 C5        396.1280  440.4010  446.0990 C.2       1 GTP501      0.0000 
     26 C6        395.8380  439.3000  447.0490 C.2       1 GTP501      0.0000 
     27 O6        394.8700  438.5410  446.8760 O.2       1 GTP501      0.0000 
     28 N1        396.6380  439.1410  448.1050 N.am      1 GTP501      0.0000 
     29 C2        397.6980  439.9480  448.3160 C.2       1 GTP501      0.0000 
     30 N2        398.4710  439.7400  449.4060 N.pl3     1 GTP501      0.0000 
     31 N3        398.0220  440.9830  447.4940 N.2       1 GTP501      0.0000 
     32 C4        397.2850  441.2520  446.3940 C.2       1 GTP501      0.0000 
@<TRIPOS>BOND
     1    1    2 ar   
     2    1    3 ar   
     3    1    4 ar   
     4    1    5 1    
     5    5    6 1    
     6    6    7 ar   
     7    6    8 ar   
     8    6    9 1    
     9    9   10 1    
    10   10   11 ar   
    11   10   12 ar   
    12   10   13 1    
    13   13   14 1    
    14   14   15 1    
    15   15   16 1    
    16   15   17 1    
    17   16   21 1    
    18   17   18 1    
    19   17   19 1    
    20   19   20 1    
    21   19   21 1    
    22   21   22 1    
    23   22   23 1    
    24   22   32 1    
    25   23   24 2    
    26   24   25 1    
    27   25   26 1    
    28   25   32 2    
    29   26   27 2    
    30   26   28 am   
    31   28   29 1    
    32   29   30 1    
    33   29   31 2    
    34   31   32 1    
@<TRIPOS>SUBSTRUCTURE
     1 GTP501      1 GROUP   
@<TRIPOS>SET
ATOM$ORANGE STATIC     ATOMS   COLORGROUP SYSTEM 
20 14 14 15 15 17 17 19 19 21 21 23 23 25 25 26 26 29 \
29 32 32 

