#    Name: 6dpw_9_GTP
#    Modification time : Fri May 22 19:32:14 2020

@<TRIPOS>MOLECULE
6dpw_9_GTP
   32    34     1     0     1
SMALL
NO_CHARGES


@<TRIPOS>ATOM
      1 PG        286.4990  448.4530  341.2520 P.3       1 GTP501      0.0000 
      2 O1G       287.4230  447.4400  340.6090 O.co2     1 GTP501      0.0000 
      3 O2G       285.0950  447.9140  341.3180 O.co2     1 GTP501      0.0000 
      4 O3G       286.5720  449.8500  340.7050 O.co2     1 GTP501      0.0000 
      5 O3B       286.9010  448.6980  342.7950 O.3       1 GTP501      0.0000 
      6 PB        287.9170  447.7750  343.6280 P.3       1 GTP501      0.0000 
      7 O1B       287.9210  446.3350  343.1750 O.co2     1 GTP501      0.0000 
      8 O2B       287.6030  447.9660  345.0870 O.co2     1 GTP501      0.0000 
      9 O3A       289.3460  448.3710  343.2730 O.3       1 GTP501      0.0000 
     10 PA        290.6660  447.9740  344.0830 P.3       1 GTP501      0.0000 
     11 O1A       291.4870  447.1460  343.1210 O.co2     1 GTP501      0.0000 
     12 O2A       290.3480  447.3360  345.4170 O.co2     1 GTP501      0.0000 
     13 O5'       291.2570  449.4560  344.2890 O.3       1 GTP501      0.0000 
     14 C5'       292.5310  449.9190  343.8510 C.3       1 GTP501      0.0000 
     15 C4'       293.2590  450.5140  345.0400 C.3       1 GTP501      0.0000 
     16 O4'       293.5180  449.4710  345.9920 O.3       1 GTP501      0.0000 
     17 C3'       294.5920  451.0950  344.6130 C.3       1 GTP501      0.0000 
     18 O3'       294.9190  452.2170  345.4430 O.3       1 GTP501      0.0000 
     19 C2'       295.5140  449.9190  344.8460 C.3       1 GTP501      0.0000 
     20 O2'       296.8680  450.3390  345.0450 O.3       1 GTP501      0.0000 
     21 C1'       294.9310  449.2890  346.1050 C.3       1 GTP501      0.0000 
     22 N9        295.2230  447.8530  346.1840 N.pl3     1 GTP501      0.0000 
     23 C8        294.7730  446.9190  345.3400 C.2       1 GTP501      0.0000 
     24 N7        295.1820  445.6860  345.7280 N.2       1 GTP501      0.0000 
     25 C5        295.8800  445.8230  346.8620 C.2       1 GTP501      0.0000 
     26 C6        296.5830  444.9220  347.8050 C.2       1 GTP501      0.0000 
     27 O6        296.6200  443.7020  347.6190 O.2       1 GTP501      0.0000 
     28 N1        297.1790  445.4410  348.8710 N.am      1 GTP501      0.0000 
     29 C2        297.1660  446.7710  349.0950 C.2       1 GTP501      0.0000 
     30 N2        297.7890  447.2370  350.2050 N.pl3     1 GTP501      0.0000 
     31 N3        296.5280  447.6700  348.2800 N.2       1 GTP501      0.0000 
     32 C4        295.8810  447.2590  347.1680 C.2       1 GTP501      0.0000 
@<TRIPOS>BOND
     1    1    2 ar   
     2    1    3 ar   
     3    1    4 ar   
     4    1    5 1    
     5    5    6 1    
     6    6    7 ar   
     7    6    8 ar   
     8    6    9 1    
     9    9   10 1    
    10   10   11 ar   
    11   10   12 ar   
    12   10   13 1    
    13   13   14 1    
    14   14   15 1    
    15   15   16 1    
    16   15   17 1    
    17   16   21 1    
    18   17   18 1    
    19   17   19 1    
    20   19   20 1    
    21   19   21 1    
    22   21   22 1    
    23   22   23 1    
    24   22   32 1    
    25   23   24 2    
    26   24   25 1    
    27   25   26 1    
    28   25   32 2    
    29   26   27 2    
    30   26   28 am   
    31   28   29 1    
    32   29   30 1    
    33   29   31 2    
    34   31   32 1    
@<TRIPOS>SUBSTRUCTURE
     1 GTP501      1 GROUP   
@<TRIPOS>SET
ATOM$ORANGE STATIC     ATOMS   COLORGROUP SYSTEM 
20 14 14 15 15 17 17 19 19 21 21 23 23 25 25 26 26 29 \
29 32 32 

