#    Name: 6dpw_6_GSP
#    Modification time : Fri May 22 19:31:31 2020

@<TRIPOS>MOLECULE
6dpw_6_GSP
   32    34     1     0     0
SMALL
NO_CHARGES


@<TRIPOS>ATOM
      1 PG        390.8810  449.5860  317.4170 P.3       1 GSP501      0.0000 
      2 O3B       391.7530  448.5750  318.3050 O.3       1 GSP501      0.0000 
      3 S1G       391.2980  449.1820  315.5580 S.2       1 GSP501      0.0000 
      4 O2G       389.3010  449.4310  317.6770 O.3       1 GSP501      0.0000 
      5 O3G       391.4390  451.0800  317.6010 O.3       1 GSP501      0.0000 
      6 PB        391.5240  448.5280  319.8880 P.3       1 GSP501      0.0000 
      7 O1B       390.2900  447.7220  320.2190 O.co2     1 GSP501      0.0000 
      8 O2B       391.5890  449.9630  320.3630 O.co2     1 GSP501      0.0000 
      9 PA        393.1560  446.2870  320.1030 P.3       1 GSP501      0.0000 
     10 O1A       393.3600  446.1840  318.6090 O.co2     1 GSP501      0.0000 
     11 O2A       392.1730  445.4210  320.8320 O.co2     1 GSP501      0.0000 
     12 O3A       392.8070  447.7970  320.5090 O.3       1 GSP501      0.0000 
     13 O5'       394.5610  446.1130  320.8550 O.3       1 GSP501      0.0000 
     14 C5'       395.8060  446.3090  320.1990 C.3       1 GSP501      0.0000 
     15 C4'       396.9300  445.9710  321.1750 C.3       1 GSP501      0.0000 
     16 O4'       396.4250  445.1580  322.2460 O.3       1 GSP501      0.0000 
     17 C3'       398.0560  445.1770  320.5470 C.3       1 GSP501      0.0000 
     18 O3'       399.2780  445.6160  321.1500 O.3       1 GSP501      0.0000 
     19 C2'       397.7670  443.7440  320.9350 C.3       1 GSP501      0.0000 
     20 O2'       399.0030  443.0430  321.0870 O.3       1 GSP501      0.0000 
     21 C1'       397.0040  443.8510  322.2460 C.3       1 GSP501      0.0000 
     22 N9        395.8960  442.8730  322.3010 N.pl3     1 GSP501      0.0000 
     23 C8        394.8760  442.7480  321.4380 C.2       1 GSP501      0.0000 
     24 N7        394.0450  441.7370  321.8170 N.2       1 GSP501      0.0000 
     25 C5        394.5340  441.2050  322.9480 C.2       1 GSP501      0.0000 
     26 C6        394.1630  440.1170  323.8870 C.2       1 GSP501      0.0000 
     27 O6        393.1440  439.4380  323.6820 O.2       1 GSP501      0.0000 
     28 N1        394.9410  439.8810  324.9540 N.am      1 GSP501      0.0000 
     29 C2        396.0500  440.6100  325.1910 C.2       1 GSP501      0.0000 
     30 N2        396.8100  440.3410  326.2750 N.pl3     1 GSP501      0.0000 
     31 N3        396.4540  441.6180  324.3730 N.2       1 GSP501      0.0000 
     32 C4        395.7540  441.9590  323.2600 C.2       1 GSP501      0.0000 
@<TRIPOS>BOND
     1    1    2 1    
     2    1    3 2    
     3    1    4 1    
     4    1    5 1    
     5    2    6 1    
     6    6    7 ar   
     7    6    8 ar   
     8    6   12 1    
     9    9   10 ar   
    10    9   11 ar   
    11    9   12 1    
    12    9   13 1    
    13   13   14 1    
    14   14   15 1    
    15   15   16 1    
    16   15   17 1    
    17   16   21 1    
    18   17   18 1    
    19   17   19 1    
    20   19   20 1    
    21   19   21 1    
    22   21   22 1    
    23   22   23 1    
    24   22   32 1    
    25   23   24 2    
    26   24   25 1    
    27   25   26 1    
    28   25   32 2    
    29   26   27 2    
    30   26   28 am   
    31   28   29 1    
    32   29   30 1    
    33   29   31 2    
    34   31   32 1    
@<TRIPOS>SUBSTRUCTURE
     1 GSP501      1 GROUP   
@<TRIPOS>SET

