#    Name: 6di7_1_GDP_CAVITY_N1_6
#    Modification time : Fri May 22 19:36:33 2020

@<TRIPOS>MOLECULE
6di7_1_GDP_CAVITY_N1_6
   72     0     5     0     0
SMALL
NO_CHARGES


@<TRIPOS>ATOM
      1 OG          7.5400   14.6300   99.1900 O.3       1 SER1        0.0000 
      2 OG          8.9400   16.6200   98.2800 O.3       1 SER1        0.0000 
      3 OG         10.2800   19.5300  101.7900 O.3       1 SER1        0.0000 
      4 OG         10.8500   20.5900  100.0400 O.3       1 SER1        0.0000 
      5 OG         11.4100   19.4200  100.8000 O.3       1 SER1        0.0000 
      6 OG         11.6700   21.5300  100.8800 O.3       1 SER1        0.0000 
      7 N           8.1000   13.4600   99.9500 N.am      2 ALA2        0.0000 
      8 O           9.7800   12.1800   99.7200 O.2       2 ALA2        0.0000 
      9 N           7.7900   14.5000  101.7700 N.am      2 ALA2        0.0000 
     10 O           9.4700   13.2200  101.5400 O.2       2 ALA2        0.0000 
     11 N          10.0500   14.2800   99.8000 N.am      2 ALA2        0.0000 
     12 N          10.6000   13.1200  100.5600 N.am      2 ALA2        0.0000 
     13 N          10.3100   16.3900   99.8800 N.am      2 ALA2        0.0000 
     14 N          10.8700   15.2200  100.6400 N.am      2 ALA2        0.0000 
     15 N          11.4400   16.2800   98.9000 N.am      2 ALA2        0.0000 
     16 O           7.7800   19.8700  101.1700 O.2       2 ALA2        0.0000 
     17 O           8.9000   19.7700  100.1900 O.2       2 ALA2        0.0000 
     18 N           9.4800   20.8300   98.4400 N.am      2 ALA2        0.0000 
     19 N          10.0300   19.6600   99.2000 N.am      2 ALA2        0.0000 
     20 N          12.2600   17.2100   99.7400 N.am      2 ALA2        0.0000 
     21 N          12.8400   18.2800   97.9900 N.am      2 ALA2        0.0000 
     22 N          13.3900   17.1100   98.7500 N.am      2 ALA2        0.0000 
     23 N          12.5300   19.3200   99.8200 N.am      2 ALA2        0.0000 
     24 O          13.6600   19.2100   98.8300 O.2       2 ALA2        0.0000 
     25 O          14.2100   18.0400   99.5900 O.2       2 ALA2        0.0000 
     26 O          14.7800   19.1000   97.8500 O.2       2 ALA2        0.0000 
     27 N          12.8000   21.4200   99.9000 N.am      2 ALA2        0.0000 
     28 N          13.3500   20.2500  100.6600 N.am      2 ALA2        0.0000 
     29 N          13.9300   21.3100   98.9100 N.am      2 ALA2        0.0000 
     30 N          14.4800   20.1400   99.6700 N.am      2 ALA2        0.0000 
     31 N          13.6200   22.3500  100.7400 N.am      2 ALA2        0.0000 
     32 N          14.7500   22.2500   99.7500 N.am      2 ALA2        0.0000 
     33 N          15.0200   24.3500   99.8300 N.am      2 ALA2        0.0000 
     34 OD1         8.0600   16.6000  101.8500 O.co2     3 ASP3        0.0000 
     35 OD1         9.1900   16.4900  100.8700 O.co2     3 ASP3        0.0000 
     36 OD1         9.7400   15.3200  101.6300 O.co2     3 ASP3        0.0000 
     37 OD1         8.3300   18.7000  101.9300 O.co2     3 ASP3        0.0000 
     38 OD1         9.4600   18.6000  100.9500 O.co2     3 ASP3        0.0000 
     39 OD1        11.1400   17.3200  100.7200 O.co2     3 ASP3        0.0000 
     40 OD1        11.6900   16.1500  101.4800 O.co2     3 ASP3        0.0000 
     41 OD1        11.1600   19.5500   98.2200 O.co2     3 ASP3        0.0000 
     42 OD1        11.9600   18.2500  101.5600 O.co2     3 ASP3        0.0000 
     43 CA          8.0800   18.8300   99.3500 C.3       4 GLY6        0.0000 
     44 CA          9.7300   20.7000  101.0300 C.3       4 GLY6        0.0000 
     45 CA         10.3000   21.7600   99.2800 C.3       4 GLY6        0.0000 
     46 CA         11.9800   20.4900   99.0600 C.3       4 GLY6        0.0000 
     47 CA         13.0800   18.1500  100.5800 C.3       4 GLY6        0.0000 
     48 CA         12.5500   21.5500   97.3100 C.3       4 GLY6        0.0000 
     49 CA         13.1100   20.3800   98.0700 C.3       4 GLY6        0.0000 
     50 CA         13.6800   21.4400   96.3300 C.3       4 GLY6        0.0000 
     51 CA         14.2300   20.2700   97.0900 C.3       4 GLY6        0.0000 
     52 CA         11.1200   22.7000  100.1200 C.3       4 GLY6        0.0000 
     53 CA         12.2500   22.5900   99.1400 C.3       4 GLY6        0.0000 
     54 CA         13.3700   22.4800   98.1500 C.3       4 GLY6        0.0000 
     55 CA         14.5000   22.3800   97.1700 C.3       4 GLY6        0.0000 
     56 CA         15.0500   21.2100   97.9300 C.3       4 GLY6        0.0000 
     57 CA         16.1800   21.1000   96.9400 C.3       4 GLY6        0.0000 
     58 CA         16.7300   19.9300   97.7000 C.3       4 GLY6        0.0000 
     59 CA         17.8600   19.8200   96.7200 C.3       4 GLY6        0.0000 
     60 CA         13.0700   23.5200   99.9800 C.3       4 GLY6        0.0000 
     61 CA         14.2000   23.4200   98.9900 C.3       4 GLY6        0.0000 
     62 CA         15.3200   23.3100   98.0100 C.3       4 GLY6        0.0000 
     63 CA         15.8800   22.1400   98.7700 C.3       4 GLY6        0.0000 
     64 CA         17.0000   22.0300   97.7800 C.3       4 GLY6        0.0000 
     65 DU          8.3700   15.5600  100.0300 H         5 CUB7        0.0000 
     66 DU          8.9200   14.3900  100.7900 H         5 CUB7        0.0000 
     67 DU          9.4900   15.4500   99.0400 H         5 CUB7        0.0000 
     68 DU          8.6400   17.6600  100.1100 H         5 CUB7        0.0000 
     69 DU          9.7600   17.5600   99.1200 H         5 CUB7        0.0000 
     70 DU         10.8900   17.4500   98.1400 H         5 CUB7        0.0000 
     71 DU         10.5800   18.4900   99.9600 H         5 CUB7        0.0000 
     72 DU         11.7100   18.3800   98.9800 H         5 CUB7        0.0000 
@<TRIPOS>BOND
@<TRIPOS>SUBSTRUCTURE
     1 SER1        1 GROUP   
     2 ALA2        7 GROUP   
     3 ASP3       34 GROUP   
     4 GLY6       43 GROUP   
     5 CUB7       65 GROUP   
@<TRIPOS>SET

