#    Name: 6di7_1_GDP
#    Modification time : Fri May 22 19:36:32 2020

@<TRIPOS>MOLECULE
6di7_1_GDP
   28    30     1     0     1
SMALL
NO_CHARGES


@<TRIPOS>ATOM
      1 PB          5.5130   19.7550  101.7860 P.3       1 GDP1001     0.0000 
      2 O1B         4.6670   18.7290  101.1050 O.co2     1 GDP1001     0.0000 
      3 O2B         5.1090   21.1880  101.4270 O.co2     1 GDP1001     0.0000 
      4 O3B         5.4990   19.6360  103.3120 O.co2     1 GDP1001     0.0000 
      5 O3A         7.0300   19.6250  101.3140 O.3       1 GDP1001     0.0000 
      6 PA          8.4220   19.2370  101.9810 P.3       1 GDP1001     0.0000 
      7 O1A         8.4050   17.7260  102.2240 O.co2     1 GDP1001     0.0000 
      8 O2A         8.7260   20.0580  103.1730 O.co2     1 GDP1001     0.0000 
      9 O5'         9.4420   19.4890  100.7800 O.3       1 GDP1001     0.0000 
     10 C5'         9.3240   18.8520   99.4920 C.3       1 GDP1001     0.0000 
     11 C4'        10.6980   18.6610   98.9010 C.3       1 GDP1001     0.0000 
     12 O4'        11.3170   19.9470   98.6680 O.3       1 GDP1001     0.0000 
     13 C3'        11.6800   17.8590   99.7590 C.3       1 GDP1001     0.0000 
     14 O3'        12.4570   16.9950   98.9390 O.3       1 GDP1001     0.0000 
     15 C2'        12.5390   18.9480  100.4060 C.3       1 GDP1001     0.0000 
     16 O2'        13.8600   18.4910  100.6770 O.3       1 GDP1001     0.0000 
     17 C1'        12.5850   19.9890   99.2920 C.3       1 GDP1001     0.0000 
     18 N9         12.8180   21.3580   99.7770 N.pl3     1 GDP1001     0.0000 
     19 C8         12.0150   22.0870  100.6140 C.2       1 GDP1001     0.0000 
     20 N7         12.4770   23.2920  100.8550 N.2       1 GDP1001     0.0000 
     21 C5         13.6580   23.3570  100.1330 C.2       1 GDP1001     0.0000 
     22 C6         14.6110   24.4130   99.9810 C.2       1 GDP1001     0.0000 
     23 O6         14.5690   25.5340  100.4860 O.2       1 GDP1001     0.0000 
     24 N1         15.6580   24.0530   99.1550 N.am      1 GDP1001     0.0000 
     25 C2         15.7940   22.8370   98.5390 C.2       1 GDP1001     0.0000 
     26 N2         16.8730   22.6660   97.7710 N.pl3     1 GDP1001     0.0000 
     27 N3         14.9150   21.8470   98.6690 N.2       1 GDP1001     0.0000 
     28 C4         13.8810   22.1710   99.4680 C.2       1 GDP1001     0.0000 
@<TRIPOS>BOND
     1    1    2 ar   
     2    1    3 ar   
     3    1    4 ar   
     4    1    5 1    
     5    5    6 1    
     6    6    7 ar   
     7    6    8 ar   
     8    6    9 1    
     9    9   10 1    
    10   10   11 1    
    11   11   12 1    
    12   11   13 1    
    13   12   17 1    
    14   13   14 1    
    15   13   15 1    
    16   15   16 1    
    17   15   17 1    
    18   17   18 1    
    19   18   19 1    
    20   18   28 1    
    21   19   20 2    
    22   20   21 1    
    23   21   22 1    
    24   21   28 2    
    25   22   23 2    
    26   22   24 am   
    27   24   25 1    
    28   25   26 1    
    29   25   27 2    
    30   27   28 1    
@<TRIPOS>SUBSTRUCTURE
     1 GDP1001     1 GROUP   
@<TRIPOS>SET
ATOM$ORANGE STATIC     ATOMS   COLORGROUP SYSTEM 
20 10 10 11 11 13 13 15 15 17 17 19 19 21 21 22 22 25 \
25 28 28 

