#    Name: 6hz6_7_GNP_CAVITY_N1_8
#    Modification time : Fri May 22 19:38:30 2020

@<TRIPOS>MOLECULE
6hz6_7_GNP_CAVITY_N1_8
  100     0     7     0     0
SMALL
NO_CHARGES


@<TRIPOS>ATOM
      1 OG        149.5300  162.5100  102.6000 O.3       1 SER1        0.0000 
      2 OG        151.3700  161.4700  102.7600 O.3       1 SER1        0.0000 
      3 OG        151.7000  161.8200  101.3400 O.3       1 SER1        0.0000 
      4 OG        153.5400  160.7900  101.5100 O.3       1 SER1        0.0000 
      5 OG        153.8700  161.1400  100.0800 O.3       1 SER1        0.0000 
      6 OG        156.0400  160.4600   98.8300 O.3       1 SER1        0.0000 
      7 OG        154.9300  161.1700  101.9200 O.3       1 SER1        0.0000 
      8 OG        155.2600  161.5200  100.5000 O.3       1 SER1        0.0000 
      9 OG        156.7800  160.1300  102.0800 O.3       1 SER1        0.0000 
     10 N         149.2000  162.1600  104.0200 N.am      2 ALA2        0.0000 
     11 O         149.0800  163.9200  102.8400 O.2       2 ALA2        0.0000 
     12 N         152.3500  162.5200   98.5000 N.am      2 ALA2        0.0000 
     13 N         153.7400  162.9000   98.9100 N.am      2 ALA2        0.0000 
     14 N         153.6100  164.6600   97.7300 N.am      2 ALA2        0.0000 
     15 O         154.8700  157.3000  105.7000 O.2       2 ALA2        0.0000 
     16 O         155.0600  159.4100  103.1000 O.2       2 ALA2        0.0000 
     17 N         155.5800  161.8700   99.0700 N.am      2 ALA2        0.0000 
     18 N         155.1300  163.2800   99.3200 N.am      2 ALA2        0.0000 
     19 N         155.4600  163.6300   97.9000 N.am      2 ALA2        0.0000 
     20 O         156.7100  156.2600  105.8600 O.2       2 ALA2        0.0000 
     21 O         156.2600  157.6700  106.1100 O.2       2 ALA2        0.0000 
     22 O         155.8100  159.0800  106.3500 O.2       2 ALA2        0.0000 
     23 N         157.7500  161.1800   97.8200 N.am      2 ALA2        0.0000 
     24 N         157.3000  162.5900   98.0600 N.am      2 ALA2        0.0000 
     25 N         160.2500  166.1900  101.2000 N.am      2 ALA2        0.0000 
     26 O         159.8000  167.6000  101.4500 O.2       2 ALA2        0.0000 
     27 O         161.1900  167.9700  101.8600 O.2       2 ALA2        0.0000 
     28 OD1       155.9300  157.3200  107.5300 O.co2     3 ASP3        0.0000 
     29 OD1       156.5800  158.0200  104.6800 O.co2     3 ASP3        0.0000 
     30 OD1       156.9100  158.3700  103.2600 O.co2     3 ASP3        0.0000 
     31 OD1       156.4600  159.7800  103.5100 O.co2     3 ASP3        0.0000 
     32 OD1       156.3300  161.5400  102.3300 O.co2     3 ASP3        0.0000 
     33 OD1       157.6500  158.0500  106.5200 O.co2     3 ASP3        0.0000 
     34 OD1       157.9800  158.4000  105.0900 O.co2     3 ASP3        0.0000 
     35 OD1       157.2000  159.4600  106.7600 O.co2     3 ASP3        0.0000 
     36 OD1       157.5200  159.8100  105.3400 O.co2     3 ASP3        0.0000 
     37 OD1       157.0700  161.2200  105.5800 O.co2     3 ASP3        0.0000 
     38 OD1       156.9400  162.9800  104.4000 O.co2     3 ASP3        0.0000 
     39 OD1       157.2700  163.3300  102.9800 O.co2     3 ASP3        0.0000 
     40 OD1       157.5900  163.6800  101.5600 O.co2     3 ASP3        0.0000 
     41 OD1       158.9900  164.0500  101.9700 O.co2     3 ASP3        0.0000 
     42 NZ        151.8900  163.9300   98.7400 N.4       4 LYS4        0.0000 
     43 NZ        154.5500  166.4400   98.3800 N.4       4 LYS4        0.0000 
     44 NZ        157.1000  160.4800  100.6600 N.4       4 LYS4        0.0000 
     45 NZ        157.4300  160.8300   99.2400 N.4       4 LYS4        0.0000 
     46 NZ        156.6500  161.8900  100.9100 N.4       4 LYS4        0.0000 
     47 NZ        156.9800  162.2400   99.4800 N.4       4 LYS4        0.0000 
     48 NZ        158.5700  164.7300   97.2900 N.4       4 LYS4        0.0000 
     49 CZ        149.8500  162.8600  101.1700 C.ar      5 PHE5        0.0000 
     50 CZ        150.1800  163.2100   99.7500 C.ar      5 PHE5        0.0000 
     51 CZ        152.1500  160.4100  101.1000 C.ar      5 PHE5        0.0000 
     52 CZ        152.0200  162.1700   99.9200 C.ar      5 PHE5        0.0000 
     53 CZ        150.9200  162.8800  103.0100 C.ar      5 PHE5        0.0000 
     54 CZ        151.2400  163.2300  101.5800 C.ar      5 PHE5        0.0000 
     55 CZ        151.5700  163.5800  100.1600 C.ar      5 PHE5        0.0000 
     56 CZ        150.4700  164.2900  103.2500 C.ar      5 PHE5        0.0000 
     57 CZ        151.1200  164.9900  100.4100 C.ar      5 PHE5        0.0000 
     58 CZ        153.0900  162.2000  101.7500 C.ar      5 PHE5        0.0000 
     59 CZ        153.4100  162.5500  100.3300 C.ar      5 PHE5        0.0000 
     60 CZ        153.2900  164.3100   99.1500 C.ar      5 PHE5        0.0000 
     61 CZ        154.4800  162.5800  102.1600 C.ar      5 PHE5        0.0000 
     62 CZ        154.8100  162.9300  100.7400 C.ar      5 PHE5        0.0000 
     63 CZ        154.6800  164.6900   99.5600 C.ar      5 PHE5        0.0000 
     64 CZ        155.8800  162.9500  102.5700 C.ar      5 PHE5        0.0000 
     65 CZ        156.2000  163.3000  101.1500 C.ar      5 PHE5        0.0000 
     66 CZ        156.0700  165.0600   99.9700 C.ar      5 PHE5        0.0000 
     67 CZ        157.1400  165.0900  101.8000 C.ar      5 PHE5        0.0000 
     68 CZ        157.4700  165.4400  100.3800 C.ar      5 PHE5        0.0000 
     69 CZ        157.0100  166.8500  100.6300 C.ar      5 PHE5        0.0000 
     70 CZ        158.2100  165.1100  103.6400 C.ar      5 PHE5        0.0000 
     71 CZ        158.5300  165.4600  102.2100 C.ar      5 PHE5        0.0000 
     72 CZ        157.7600  166.5200  103.8800 C.ar      5 PHE5        0.0000 
     73 CZ        158.0800  166.8700  102.4600 C.ar      5 PHE5        0.0000 
     74 CZ        158.4100  167.2200  101.0400 C.ar      5 PHE5        0.0000 
     75 CZ        159.9300  165.8400  102.6200 C.ar      5 PHE5        0.0000 
     76 CZ        159.4700  167.2500  102.8700 C.ar      5 PHE5        0.0000 
     77 CA        148.7500  163.5700  104.2600 C.3       6 GLY6        0.0000 
     78 CA        149.4000  164.2700  101.4200 C.3       6 GLY6        0.0000 
     79 CA        152.4700  160.7600   99.6700 C.3       6 GLY6        0.0000 
     80 CA        150.6000  162.5300  104.4300 C.3       6 GLY6        0.0000 
     81 CA        153.2200  160.4400  102.9300 C.3       6 GLY6        0.0000 
     82 CA        155.1900  157.6500  104.2700 C.3       6 GLY6        0.0000 
     83 CA        154.6100  160.8200  103.3400 C.3       6 GLY6        0.0000 
     84 CA        156.3900  155.9100  107.2800 C.3       6 GLY6        0.0000 
     85 CA        156.1300  159.4300  104.9300 C.3       6 GLY6        0.0000 
     86 CA        155.6800  160.8400  105.1700 C.3       6 GLY6        0.0000 
     87 CA        156.0000  161.1900  103.7500 C.3       6 GLY6        0.0000 
     88 CA        158.6900  162.9700   98.4700 C.3       6 GLY6        0.0000 
     89 CA        157.9200  164.0300  100.1400 C.3       6 GLY6        0.0000 
     90 CA        158.2400  164.3800   98.7200 C.3       6 GLY6        0.0000 
     91 CA        159.3100  164.4000  100.5500 C.3       6 GLY6        0.0000 
     92 CA        159.6300  164.7500   99.1300 C.3       6 GLY6        0.0000 
     93 CA        159.9600  165.1000   97.7000 C.3       6 GLY6        0.0000 
     94 CA        158.8600  165.8100  100.7900 C.3       6 GLY6        0.0000 
     95 CA        159.1800  166.1600   99.3700 C.3       6 GLY6        0.0000 
     96 DU        155.0000  165.0400   98.1400 H         7 CUB7        0.0000 
     97 DU        156.5200  163.6500   99.7300 H         7 CUB7        0.0000 
     98 DU        156.8500  164.0000   98.3100 H         7 CUB7        0.0000 
     99 DU        156.4000  165.4100   98.5500 H         7 CUB7        0.0000 
    100 DU        157.7900  165.7900   98.9600 H         7 CUB7        0.0000 
@<TRIPOS>BOND
@<TRIPOS>SUBSTRUCTURE
     1 SER1        1 GROUP   
     2 ALA2       10 GROUP   
     3 ASP3       28 GROUP   
     4 LYS4       42 GROUP   
     5 PHE5       49 GROUP   
     6 GLY6       77 GROUP   
     7 CUB7       96 GROUP   
@<TRIPOS>SET

