#    Name: 6hz6_6_GDP_CAVITY_N1_4
#    Modification time : Fri May 22 19:38:23 2020

@<TRIPOS>MOLECULE
6hz6_6_GDP_CAVITY_N1_4
  179     0     7     0     0
SMALL
NO_CHARGES


@<TRIPOS>ATOM
      1 OG        104.2800   92.0600  139.8000 O.3       1 SER1        0.0000 
      2 OG        103.8300   93.4700  140.0400 O.3       1 SER1        0.0000 
      3 OG        109.9700   86.4600  136.5600 O.3       1 SER1        0.0000 
      4 OG        108.8700   87.1700  139.6400 O.3       1 SER1        0.0000 
      5 OG        109.2000   87.5200  138.2200 O.3       1 SER1        0.0000 
      6 OG        109.5200   87.8700  136.8000 O.3       1 SER1        0.0000 
      7 OG        109.8500   88.2200  135.3800 O.3       1 SER1        0.0000 
      8 OG        108.4200   88.5800  139.8900 O.3       1 SER1        0.0000 
      9 OG        108.7500   88.9300  138.4700 O.3       1 SER1        0.0000 
     10 OG        109.0700   89.2800  137.0400 O.3       1 SER1        0.0000 
     11 OG        109.3900   89.6300  135.6200 O.3       1 SER1        0.0000 
     12 OG        108.2900   90.3400  138.7100 O.3       1 SER1        0.0000 
     13 OG        108.6200   90.6900  137.2900 O.3       1 SER1        0.0000 
     14 OG        110.2700   87.5500  140.0500 O.3       1 SER1        0.0000 
     15 OG        109.8100   88.9600  140.3000 O.3       1 SER1        0.0000 
     16 OG        109.6900   90.7200  139.1200 O.3       1 SER1        0.0000 
     17 OG        110.0100   91.0700  137.7000 O.3       1 SER1        0.0000 
     18 OG        111.6600   87.9200  140.4700 O.3       1 SER1        0.0000 
     19 OG        111.2100   89.3300  140.7100 O.3       1 SER1        0.0000 
     20 OG        113.0500   88.3000  140.8800 O.3       1 SER1        0.0000 
     21 OG        113.6700   89.7300  142.9500 O.3       1 SER1        0.0000 
     22 OG        113.2200   91.1400  143.2000 O.3       1 SER1        0.0000 
     23 N         105.4100   90.6100  131.7900 N.am      2 ALA2        0.0000 
     24 N         104.9600   92.0200  132.0400 N.am      2 ALA2        0.0000 
     25 N         108.0600   83.6300  140.1700 N.am      2 ALA2        0.0000 
     26 N         108.3900   83.9800  138.7500 N.am      2 ALA2        0.0000 
     27 N         108.7100   84.3300  137.3200 N.am      2 ALA2        0.0000 
     28 N         109.0300   84.6800  135.9000 N.am      2 ALA2        0.0000 
     29 N         107.9300   85.3900  138.9900 N.am      2 ALA2        0.0000 
     30 N         108.2600   85.7400  137.5700 N.am      2 ALA2        0.0000 
     31 O         105.6700   92.4300  140.2100 O.2       2 ALA2        0.0000 
     32 O         105.2200   93.8400  140.4500 O.2       2 ALA2        0.0000 
     33 N         109.4500   84.0000  140.5800 N.am      2 ALA2        0.0000 
     34 N         109.0000   85.4100  140.8200 N.am      2 ALA2        0.0000 
     35 N         109.3300   85.7600  139.4000 N.am      2 ALA2        0.0000 
     36 N         109.6500   86.1100  137.9800 N.am      2 ALA2        0.0000 
     37 O         107.8400   91.7500  138.9500 O.2       2 ALA2        0.0000 
     38 O         108.1700   92.1000  137.5300 O.2       2 ALA2        0.0000 
     39 O         108.4900   92.4500  136.1100 O.2       2 ALA2        0.0000 
     40 O         108.8100   92.8000  134.6900 O.2       2 ALA2        0.0000 
     41 O         107.3900   93.1600  139.2000 O.2       2 ALA2        0.0000 
     42 O         107.7100   93.5100  137.7800 O.2       2 ALA2        0.0000 
     43 N         111.3000   82.9700  140.7500 N.am      2 ALA2        0.0000 
     44 N         110.8500   84.3800  140.9900 N.am      2 ALA2        0.0000 
     45 N         110.3900   85.7900  141.2300 N.am      2 ALA2        0.0000 
     46 N         110.7200   86.1400  139.8100 N.am      2 ALA2        0.0000 
     47 N         111.0400   86.4900  138.3900 N.am      2 ALA2        0.0000 
     48 N         112.3700   83.0000  142.5800 N.am      2 ALA2        0.0000 
     49 N         112.6900   83.3500  141.1600 N.am      2 ALA2        0.0000 
     50 N         111.9200   84.4000  142.8200 N.am      2 ALA2        0.0000 
     51 N         112.2400   84.7500  141.4000 N.am      2 ALA2        0.0000 
     52 N         111.7900   86.1600  141.6400 N.am      2 ALA2        0.0000 
     53 N         112.1100   86.5100  140.2200 N.am      2 ALA2        0.0000 
     54 N         114.2100   81.9600  142.7400 N.am      2 ALA2        0.0000 
     55 N         113.4400   83.0200  144.4100 N.am      2 ALA2        0.0000 
     56 N         113.7600   83.3700  142.9900 N.am      2 ALA2        0.0000 
     57 N         113.3100   84.7800  143.2300 N.am      2 ALA2        0.0000 
     58 N         112.8600   86.1900  143.4800 N.am      2 ALA2        0.0000 
     59 N         112.7300   87.9500  142.3000 N.am      2 ALA2        0.0000 
     60 N         114.8300   83.4000  144.8200 N.am      2 ALA2        0.0000 
     61 N         115.1500   83.7500  143.4000 N.am      2 ALA2        0.0000 
     62 N         114.0500   84.4600  146.4900 N.am      2 ALA2        0.0000 
     63 N         114.3800   84.8100  145.0600 N.am      2 ALA2        0.0000 
     64 N         113.9200   86.2200  145.3100 N.am      2 ALA2        0.0000 
     65 N         114.2500   86.5700  143.8900 N.am      2 ALA2        0.0000 
     66 N         112.8900   90.7900  144.6200 N.am      2 ALA2        0.0000 
     67 OD1       103.9900   90.9700  136.3000 O.co2     3 ASP3        0.0000 
     68 OD1       103.2100   92.0300  137.9700 O.co2     3 ASP3        0.0000 
     69 OD1       103.5300   92.3800  136.5500 O.co2     3 ASP3        0.0000 
     70 OD1       105.3100   87.4800  140.4900 O.co2     3 ASP3        0.0000 
     71 OD1       105.6400   87.8300  139.0700 O.co2     3 ASP3        0.0000 
     72 OD1       105.1800   89.2400  139.3100 O.co2     3 ASP3        0.0000 
     73 OD1       105.5100   89.5900  137.8900 O.co2     3 ASP3        0.0000 
     74 OD1       104.7300   90.6500  139.5600 O.co2     3 ASP3        0.0000 
     75 OD1       105.0600   91.0000  138.1300 O.co2     3 ASP3        0.0000 
     76 OD1       105.3800   91.3500  136.7100 O.co2     3 ASP3        0.0000 
     77 OD1       105.7000   91.7000  135.2900 O.co2     3 ASP3        0.0000 
     78 OD1       106.0300   92.0500  133.8700 O.co2     3 ASP3        0.0000 
     79 OD1       106.3500   92.4000  132.4500 O.co2     3 ASP3        0.0000 
     80 OD1       104.6000   92.4100  138.3800 O.co2     3 ASP3        0.0000 
     81 OD1       104.9300   92.7600  136.9600 O.co2     3 ASP3        0.0000 
     82 OD1       107.1000   92.0700  135.7000 O.co2     3 ASP3        0.0000 
     83 OD1       107.4200   92.4200  134.2800 O.co2     3 ASP3        0.0000 
     84 OD1       106.3200   93.1300  137.3700 O.co2     3 ASP3        0.0000 
     85 OD1       106.6400   93.4800  135.9400 O.co2     3 ASP3        0.0000 
     86 OD1       105.5400   94.1900  139.0300 O.co2     3 ASP3        0.0000 
     87 OD1       105.8700   94.5400  137.6100 O.co2     3 ASP3        0.0000 
     88 OD1       106.9400   94.5700  139.4400 O.co2     3 ASP3        0.0000 
     89 NZ        105.5400   88.8500  132.9700 N.4       4 LYS4        0.0000 
     90 NZ        104.7600   89.9100  134.6400 N.4       4 LYS4        0.0000 
     91 NZ        105.0900   90.2600  133.2100 N.4       4 LYS4        0.0000 
     92 NZ        104.3100   91.3200  134.8800 N.4       4 LYS4        0.0000 
     93 NZ        104.6400   91.6700  133.4600 N.4       4 LYS4        0.0000 
     94 NZ        102.7600   93.4400  138.2100 N.4       4 LYS4        0.0000 
     95 NZ        106.8600   85.3600  137.1600 N.4       4 LYS4        0.0000 
     96 NZ        106.0900   86.4200  138.8200 N.4       4 LYS4        0.0000 
     97 NZ        105.9600   88.1800  137.6500 N.4       4 LYS4        0.0000 
     98 NZ        106.9300   89.2300  133.3800 N.4       4 LYS4        0.0000 
     99 NZ        105.8300   89.9400  136.4700 N.4       4 LYS4        0.0000 
    100 NZ        106.1600   90.2900  135.0500 N.4       4 LYS4        0.0000 
    101 NZ        104.1500   93.8200  138.6200 N.4       4 LYS4        0.0000 
    102 NZ        108.5800   86.0900  136.1500 N.4       4 LYS4        0.0000 
    103 NZ        107.8100   87.1500  137.8100 N.4       4 LYS4        0.0000 
    104 NZ        108.1300   87.5000  136.3900 N.4       4 LYS4        0.0000 
    105 NZ        108.4500   87.8500  134.9700 N.4       4 LYS4        0.0000 
    106 NZ        107.3500   88.5500  138.0600 N.4       4 LYS4        0.0000 
    107 NZ        107.6800   88.9100  136.6300 N.4       4 LYS4        0.0000 
    108 NZ        108.0000   89.2600  135.2100 N.4       4 LYS4        0.0000 
    109 NZ        116.2200   83.7700  145.2300 N.4       4 LYS4        0.0000 
    110 CZ        105.4400   85.7200  141.6700 C.ar      5 PHE5        0.0000 
    111 CZ        106.9600   84.3400  143.2600 C.ar      5 PHE5        0.0000 
    112 CZ        106.5100   85.7400  143.5000 C.ar      5 PHE5        0.0000 
    113 CZ        108.2000   91.3600  132.6100 C.ar      5 PHE5        0.0000 
    114 CZ        108.6800   85.0600  142.2400 C.ar      5 PHE5        0.0000 
    115 CZ        109.2700   91.3900  134.4400 C.ar      5 PHE5        0.0000 
    116 CZ        110.0700   85.4400  142.6600 C.ar      5 PHE5        0.0000 
    117 CZ        109.6200   86.8500  142.9000 C.ar      5 PHE5        0.0000 
    118 CZ        111.4600   85.8100  143.0700 C.ar      5 PHE5        0.0000 
    119 CZ        111.0100   87.2200  143.3100 C.ar      5 PHE5        0.0000 
    120 CZ        112.6600   84.0800  146.0800 C.ar      5 PHE5        0.0000 
    121 CZ        112.9800   84.4300  144.6500 C.ar      5 PHE5        0.0000 
    122 CZ        112.5300   85.8400  144.9000 C.ar      5 PHE5        0.0000 
    123 CZ        112.4000   87.6000  143.7200 C.ar      5 PHE5        0.0000 
    124 CZ        111.9500   89.0100  143.9600 C.ar      5 PHE5        0.0000 
    125 CZ        115.2800   81.9900  144.5800 C.ar      5 PHE5        0.0000 
    126 CZ        115.6100   82.3400  143.1500 C.ar      5 PHE5        0.0000 
    127 CZ        113.8000   87.9700  144.1300 C.ar      5 PHE5        0.0000 
    128 CZ        114.1200   88.3200  142.7100 C.ar      5 PHE5        0.0000 
    129 CZ        113.3400   89.3800  144.3700 C.ar      5 PHE5        0.0000 
    130 CZ        116.6700   82.3600  144.9900 C.ar      5 PHE5        0.0000 
    131 CZ        116.5500   84.1200  143.8100 C.ar      5 PHE5        0.0000 
    132 CZ        115.7700   85.1800  145.4700 C.ar      5 PHE5        0.0000 
    133 CZ        114.7400   89.7600  144.7800 C.ar      5 PHE5        0.0000 
    134 CA        104.9900   87.1300  141.9100 C.3       6 GLY6        0.0000 
    135 CA        104.8600   88.8900  140.7300 C.3       6 GLY6        0.0000 
    136 CA        106.8300   86.1000  142.0800 C.3       6 GLY6        0.0000 
    137 CA        106.0600   87.1500  143.7400 C.3       6 GLY6        0.0000 
    138 CA        106.2500   89.2600  141.1400 C.3       6 GLY6        0.0000 
    139 CA        106.1200   91.0200  139.9700 C.3       6 GLY6        0.0000 
    140 CA        108.2200   86.4700  142.4900 C.3       6 GLY6        0.0000 
    141 CA        108.5500   86.8200  141.0700 C.3       6 GLY6        0.0000 
    142 CA        108.1000   88.2300  141.3100 C.3       6 GLY6        0.0000 
    143 CA        107.6400   89.6400  141.5500 C.3       6 GLY6        0.0000 
    144 CA        107.9700   89.9900  140.1300 C.3       6 GLY6        0.0000 
    145 CA        108.9400   91.0400  135.8700 C.3       6 GLY6        0.0000 
    146 CA        107.2600   94.9200  138.0200 C.3       6 GLY6        0.0000 
    147 CA        109.9400   87.2000  141.4800 C.3       6 GLY6        0.0000 
    148 CA        109.4900   88.6100  141.7200 C.3       6 GLY6        0.0000 
    149 CA        110.8800   88.9800  142.1300 C.3       6 GLY6        0.0000 
    150 CA        112.2800   89.3600  142.5400 C.3       6 GLY6        0.0000 
    151 CA        112.6000   89.7100  141.1200 C.3       6 GLY6        0.0000 
    152 CA        114.5000   83.0500  146.2400 C.3       6 GLY6        0.0000 
    153 CA        112.5700   90.4400  146.0400 C.3       6 GLY6        0.0000 
    154 DU        106.6700   83.2500  139.7600 H         7 CUB7        0.0000 
    155 DU        106.9900   83.6000  138.3400 H         7 CUB7        0.0000 
    156 DU        105.8900   84.3100  141.4200 H         7 CUB7        0.0000 
    157 DU        106.2200   84.6600  140.0000 H         7 CUB7        0.0000 
    158 DU        106.5400   85.0100  138.5800 H         7 CUB7        0.0000 
    159 DU        105.7600   86.0700  140.2500 H         7 CUB7        0.0000 
    160 DU        106.4800   90.6400  133.6200 H         7 CUB7        0.0000 
    161 DU        106.8100   90.9900  132.2000 H         7 CUB7        0.0000 
    162 DU        107.2800   84.6900  141.8300 H         7 CUB7        0.0000 
    163 DU        107.1600   86.4500  140.6600 H         7 CUB7        0.0000 
    164 DU        107.4800   86.8000  139.2300 H         7 CUB7        0.0000 
    165 DU        106.7000   87.8500  140.9000 H         7 CUB7        0.0000 
    166 DU        107.0300   88.2000  139.4800 H         7 CUB7        0.0000 
    167 DU        108.3300   89.6100  133.7900 H         7 CUB7        0.0000 
    168 DU        106.5800   89.6100  139.7200 H         7 CUB7        0.0000 
    169 DU        106.9000   89.9600  138.3000 H         7 CUB7        0.0000 
    170 DU        107.2200   90.3100  136.8800 H         7 CUB7        0.0000 
    171 DU        107.5500   90.6600  135.4600 H         7 CUB7        0.0000 
    172 DU        107.8700   91.0100  134.0300 H         7 CUB7        0.0000 
    173 DU        106.4500   91.3700  138.5400 H         7 CUB7        0.0000 
    174 DU        106.7700   91.7200  137.1200 H         7 CUB7        0.0000 
    175 DU        107.7500   92.7700  132.8600 H         7 CUB7        0.0000 
    176 DU        106.0000   92.7800  138.7900 H         7 CUB7        0.0000 
    177 DU        110.5200   84.0300  142.4100 H         7 CUB7        0.0000 
    178 DU        111.3400   87.5700  141.8900 H         7 CUB7        0.0000 
    179 DU        113.8900   81.6100  144.1700 H         7 CUB7        0.0000 
@<TRIPOS>BOND
@<TRIPOS>SUBSTRUCTURE
     1 SER1        1 GROUP   
     2 ALA2       23 GROUP   
     3 ASP3       67 GROUP   
     4 LYS4       89 GROUP   
     5 PHE5      110 GROUP   
     6 GLY6      134 GROUP   
     7 CUB7      154 GROUP   
@<TRIPOS>SET

