#    Name: 6hz6_9_GNP_CAVITY_N1_8
#    Modification time : Fri May 22 19:38:42 2020

@<TRIPOS>MOLECULE
6hz6_9_GNP_CAVITY_N1_8
   70     0     7     0     0
SMALL
NO_CHARGES


@<TRIPOS>ATOM
      1 OG        194.1100  108.3900  110.5100 O.3       1 SER1        0.0000 
      2 OG        192.6800  108.7400  115.0200 O.3       1 SER1        0.0000 
      3 OG        193.0100  109.0900  113.6000 O.3       1 SER1        0.0000 
      4 OG        194.8500  108.0600  113.7700 O.3       1 SER1        0.0000 
      5 OG        194.0800  109.1200  115.4300 O.3       1 SER1        0.0000 
      6 OG        193.3000  110.1800  117.1000 O.3       1 SER1        0.0000 
      7 N         193.6600  109.7900  110.7600 N.am      2 ALA2        0.0000 
      8 O         192.2300  110.1500  115.2700 O.2       2 ALA2        0.0000 
      9 O         191.7800  111.5600  115.5100 O.2       2 ALA2        0.0000 
     10 N         194.5300  107.7100  115.1900 N.am      2 ALA2        0.0000 
     11 N         196.7000  107.0300  113.9300 N.am      2 ALA2        0.0000 
     12 N         197.3500  107.7300  111.0900 N.am      2 ALA2        0.0000 
     13 N         195.6000  107.7400  117.0200 N.am      2 ALA2        0.0000 
     14 N         195.9200  108.0900  115.6000 N.am      2 ALA2        0.0000 
     15 N         198.2200  105.6400  115.5200 N.am      2 ALA2        0.0000 
     16 N         197.7700  107.0500  115.7700 N.am      2 ALA2        0.0000 
     17 N         196.9900  108.1100  117.4300 N.am      2 ALA2        0.0000 
     18 N         199.2900  105.6700  117.3500 N.am      2 ALA2        0.0000 
     19 N         198.8300  107.0800  117.6000 N.am      2 ALA2        0.0000 
     20 N         198.3800  108.4900  117.8400 N.am      2 ALA2        0.0000 
     21 OD1       191.4500  111.2100  116.9300 O.co2     3 ASP3        0.0000 
     22 OD1       192.8500  111.5900  117.3400 O.co2     3 ASP3        0.0000 
     23 OD1       202.9800  103.6000  117.6900 O.co2     3 ASP3        0.0000 
     24 OD1       203.3000  103.9500  116.2700 O.co2     3 ASP3        0.0000 
     25 NZ        195.1400  109.1500  117.2700 N.4       4 LYS4        0.0000 
     26 NZ        194.6900  110.5600  117.5100 N.4       4 LYS4        0.0000 
     27 NZ        198.5400  105.9900  114.1000 N.4       4 LYS4        0.0000 
     28 NZ        198.0900  107.4000  114.3400 N.4       4 LYS4        0.0000 
     29 NZ        199.6100  106.0200  115.9300 N.4       4 LYS4        0.0000 
     30 NZ        199.1600  107.4300  116.1800 N.4       4 LYS4        0.0000 
     31 NZ        199.4800  107.7800  114.7500 N.4       4 LYS4        0.0000 
     32 NZ        197.9300  109.9000  118.0900 N.4       4 LYS4        0.0000 
     33 NZ        201.4600  104.9900  116.1000 N.4       4 LYS4        0.0000 
     34 NZ        201.0000  106.4000  116.3400 N.4       4 LYS4        0.0000 
     35 NZ        200.8800  108.1600  115.1600 N.4       4 LYS4        0.0000 
     36 CZ        195.6300  107.0000  112.1000 C.ar      5 PHE5        0.0000 
     37 CZ        195.1800  108.4100  112.3500 C.ar      5 PHE5        0.0000 
     38 CZ        195.5000  108.7600  110.9200 C.ar      5 PHE5        0.0000 
     39 CZ        194.4000  109.4700  114.0100 C.ar      5 PHE5        0.0000 
     40 CZ        194.7200  109.8200  112.5900 C.ar      5 PHE5        0.0000 
     41 CZ        197.1500  105.6200  113.6900 C.ar      5 PHE5        0.0000 
     42 CZ        197.4700  105.9700  112.2700 C.ar      5 PHE5        0.0000 
     43 CZ        197.0200  107.3800  112.5100 C.ar      5 PHE5        0.0000 
     44 CZ        196.2400  108.4400  114.1800 C.ar      5 PHE5        0.0000 
     45 CZ        196.5700  108.7900  112.7600 C.ar      5 PHE5        0.0000 
     46 CZ        195.4700  109.5000  115.8400 C.ar      5 PHE5        0.0000 
     47 CZ        195.0200  110.9100  116.0900 C.ar      5 PHE5        0.0000 
     48 CZ        198.6700  104.2300  115.2800 C.ar      5 PHE5        0.0000 
     49 CZ        198.4100  107.7500  112.9200 C.ar      5 PHE5        0.0000 
     50 CZ        197.3100  108.4600  116.0100 C.ar      5 PHE5        0.0000 
     51 CZ        196.8600  109.8700  116.2500 C.ar      5 PHE5        0.0000 
     52 CZ        196.4100  111.2800  116.5000 C.ar      5 PHE5        0.0000 
     53 CZ        199.7400  104.2600  117.1100 C.ar      5 PHE5        0.0000 
     54 CZ        200.0600  104.6100  115.6900 C.ar      5 PHE5        0.0000 
     55 CZ        198.7100  108.8400  116.4200 C.ar      5 PHE5        0.0000 
     56 CZ        198.2500  110.2500  116.6600 C.ar      5 PHE5        0.0000 
     57 CZ        197.8000  111.6600  116.9100 C.ar      5 PHE5        0.0000 
     58 CZ        201.9100  103.5800  115.8600 C.ar      5 PHE5        0.0000 
     59 CZ        202.2300  103.9300  114.4300 C.ar      5 PHE5        0.0000 
     60 CZ        201.1300  104.6400  117.5200 C.ar      5 PHE5        0.0000 
     61 CZ        200.1000  109.2100  116.8300 C.ar      5 PHE5        0.0000 
     62 CZ        200.4200  109.5600  115.4100 C.ar      5 PHE5        0.0000 
     63 CZ        199.6500  110.6200  117.0700 C.ar      5 PHE5        0.0000 
     64 CA        193.3300  109.4400  112.1800 C.3       6 GLY6        0.0000 
     65 CA        193.6200  110.5300  115.6800 C.3       6 GLY6        0.0000 
     66 CA        193.9500  110.8800  114.2600 C.3       6 GLY6        0.0000 
     67 CA        193.1700  111.9400  115.9200 C.3       6 GLY6        0.0000 
     68 CA        194.5600  112.3100  116.3300 C.3       6 GLY6        0.0000 
     69 CA        199.3200  110.2700  118.5000 C.3       6 GLY6        0.0000 
     70 DU        200.5500  107.8100  116.5900 H         7 CUB7        0.0000 
@<TRIPOS>BOND
@<TRIPOS>SUBSTRUCTURE
     1 SER1        1 GROUP   
     2 ALA2        7 GROUP   
     3 ASP3       21 GROUP   
     4 LYS4       25 GROUP   
     5 PHE5       36 GROUP   
     6 GLY6       64 GROUP   
     7 CUB7       70 GROUP   
@<TRIPOS>SET

