#    Name: 6hz6_8_GNP_CAVITY_N1_4
#    Modification time : Fri May 22 19:38:36 2020

@<TRIPOS>MOLECULE
6hz6_8_GNP_CAVITY_N1_4
   63     0     7     0     0
SMALL
NO_CHARGES


@<TRIPOS>ATOM
      1 OG        178.6200  135.9700   88.4600 O.3       1 SER1        0.0000 
      2 OG        178.9500  136.3200   87.0400 O.3       1 SER1        0.0000 
      3 OG        181.9900  133.5500   90.2100 O.3       1 SER1        0.0000 
      4 OG        181.2100  134.6100   91.8800 O.3       1 SER1        0.0000 
      5 OG        181.5400  134.9600   90.4600 O.3       1 SER1        0.0000 
      6 N         178.7500  134.2100   89.6400 N.am      2 ALA2        0.0000 
      7 O         178.3000  135.6200   89.8800 O.2       2 ALA2        0.0000 
      8 N         180.4700  134.9400   88.6200 N.am      2 ALA2        0.0000 
      9 O         179.0400  135.3000   93.1300 O.2       2 ALA2        0.0000 
     10 O         179.3700  135.6500   91.7100 O.2       2 ALA2        0.0000 
     11 O         178.5900  136.7100   93.3800 O.2       2 ALA2        0.0000 
     12 N         181.8600  135.3100   89.0300 N.am      2 ALA2        0.0000 
     13 N         182.1800  135.6600   87.6100 N.am      2 ALA2        0.0000 
     14 N         182.5100  136.0100   86.1900 N.am      2 ALA2        0.0000 
     15 N         183.3800  133.9300   90.6200 N.am      2 ALA2        0.0000 
     16 N         183.7000  134.2800   89.2000 N.am      2 ALA2        0.0000 
     17 N         184.3500  134.9800   86.3600 N.am      2 ALA2        0.0000 
     18 N         183.2500  135.6900   89.4400 N.am      2 ALA2        0.0000 
     19 N         183.5800  136.0400   88.0200 N.am      2 ALA2        0.0000 
     20 N         185.8700  133.6000   87.9500 N.am      2 ALA2        0.0000 
     21 N         184.7700  134.3100   91.0300 N.am      2 ALA2        0.0000 
     22 N         185.1000  134.6600   89.6100 N.am      2 ALA2        0.0000 
     23 N         185.4200  135.0100   88.1900 N.am      2 ALA2        0.0000 
     24 N         185.7500  135.3600   86.7700 N.am      2 ALA2        0.0000 
     25 N         186.9400  133.6200   89.7800 N.am      2 ALA2        0.0000 
     26 OD1       178.2600  136.3600   94.8000 O.co2     3 ASP3        0.0000 
     27 OD1       180.4300  135.6700   93.5400 O.co2     3 ASP3        0.0000 
     28 OD1       180.7600  136.0200   92.1200 O.co2     3 ASP3        0.0000 
     29 OD1       179.9800  137.0800   93.7900 O.co2     3 ASP3        0.0000 
     30 OD1       182.1500  136.4000   92.5300 O.co2     3 ASP3        0.0000 
     31 NZ        184.6800  135.3300   84.9300 N.4       4 LYS4        0.0000 
     32 NZ        182.6000  134.9900   92.2900 N.4       4 LYS4        0.0000 
     33 NZ        182.9300  135.3400   90.8700 N.4       4 LYS4        0.0000 
     34 NZ        186.0700  135.7100   85.3500 N.4       4 LYS4        0.0000 
     35 NZ        184.6500  136.0700   89.8600 N.4       4 LYS4        0.0000 
     36 NZ        186.0400  136.4400   90.2700 N.4       4 LYS4        0.0000 
     37 NZ        185.5900  137.8500   90.5100 N.4       4 LYS4        0.0000 
     38 CZ        179.4000  134.9100   86.7900 C.ar      5 PHE5        0.0000 
     39 CZ        180.7900  135.2900   87.2000 C.ar      5 PHE5        0.0000 
     40 CZ        181.1200  135.6400   85.7800 C.ar      5 PHE5        0.0000 
     41 CZ        180.0100  136.3500   88.8700 C.ar      5 PHE5        0.0000 
     42 CZ        180.3400  136.7000   87.4500 C.ar      5 PHE5        0.0000 
     43 CZ        181.4100  136.7200   89.2800 C.ar      5 PHE5        0.0000 
     44 CZ        181.7300  137.0700   87.8600 C.ar      5 PHE5        0.0000 
     45 CZ        183.9000  136.3900   86.6000 C.ar      5 PHE5        0.0000 
     46 CZ        182.4800  136.7500   91.1100 C.ar      5 PHE5        0.0000 
     47 CZ        182.8000  137.1000   89.6900 C.ar      5 PHE5        0.0000 
     48 CZ        184.9700  136.4200   88.4300 C.ar      5 PHE5        0.0000 
     49 CZ        185.2900  136.7700   87.0100 C.ar      5 PHE5        0.0000 
     50 CZ        184.1900  137.4800   90.1000 C.ar      5 PHE5        0.0000 
     51 CZ        185.9100  138.2000   89.0900 C.ar      5 PHE5        0.0000 
     52 CZ        185.1300  139.2600   90.7500 C.ar      5 PHE5        0.0000 
     53 CA        180.5900  133.1800   89.8000 C.3       6 GLY6        0.0000 
     54 CA        180.9200  133.5300   88.3800 C.3       6 GLY6        0.0000 
     55 CA        179.8200  134.2400   91.4700 C.3       6 GLY6        0.0000 
     56 CA        180.1400  134.5900   90.0500 C.3       6 GLY6        0.0000 
     57 CA        178.7200  134.9500   94.5600 C.3       6 GLY6        0.0000 
     58 CA        179.6900  136.0000   90.2900 C.3       6 GLY6        0.0000 
     59 CA        181.0800  136.3700   90.7000 C.3       6 GLY6        0.0000 
     60 CA        180.3100  137.4300   92.3700 C.3       6 GLY6        0.0000 
     61 CA        186.4900  135.0300   90.0200 C.3       6 GLY6        0.0000 
     62 DU        186.8100  135.3800   88.6000 H         7 CUB7        0.0000 
     63 DU        186.3600  136.7900   88.8400 H         7 CUB7        0.0000 
@<TRIPOS>BOND
@<TRIPOS>SUBSTRUCTURE
     1 SER1        1 GROUP   
     2 ALA2        6 GROUP   
     3 ASP3       26 GROUP   
     4 LYS4       31 GROUP   
     5 PHE5       38 GROUP   
     6 GLY6       53 GROUP   
     7 CUB7       62 GROUP   
@<TRIPOS>SET

