#    Name: 6hz6_10_GDP
#    Modification time : Fri May 22 19:38:47 2020

@<TRIPOS>MOLECULE
6hz6_10_GDP
   40    42     1     0     1
SMALL
NO_CHARGES


@<TRIPOS>ATOM
      1 PB        178.7840  111.2260  146.4230 P.3       1 GDP1001     0.0000 
      2 O1B       179.3900  110.0510  145.7740 O.co2     1 GDP1001     0.0000 
      3 O2B       177.3860  111.3800  145.9760 O.co2     1 GDP1001     0.0000 
      4 O3B       179.5420  112.4370  146.0470 O.co2     1 GDP1001     0.0000 
      5 O3A       178.8010  111.0380  148.0130 O.3       1 GDP1001     0.0000 
      6 PA        179.9590  111.7060  148.9020 P.3       1 GDP1001     0.0000 
      7 O1A       181.1540  111.9270  148.0680 O.co2     1 GDP1001     0.0000 
      8 O2A       179.4650  113.0050  149.4090 O.co2     1 GDP1001     0.0000 
      9 O5'       180.3530  110.7300  150.1360 O.3       1 GDP1001     0.0000 
     10 C5'       179.8410  111.0120  151.4420 C.3       1 GDP1001     0.0000 
     11 C4'       180.4720  110.1900  152.5940 C.3       1 GDP1001     0.0000 
     12 O4'       180.2540  108.7610  152.2840 O.3       1 GDP1001     0.0000 
     13 C3'       181.9840  110.3370  152.7320 C.3       1 GDP1001     0.0000 
     14 O3'       182.3480  110.1250  154.1130 O.3       1 GDP1001     0.0000 
     15 C2'       182.4370  109.2030  151.8820 C.3       1 GDP1001     0.0000 
     16 O2'       183.8040  108.8820  152.1070 O.3       1 GDP1001     0.0000 
     17 C1'       181.5430  108.1200  152.4340 C.3       1 GDP1001     0.0000 
     18 N9        181.6730  106.9130  151.6210 N.pl3     1 GDP1001     0.0000 
     19 C8        181.1550  106.8560  150.4100 C.2       1 GDP1001     0.0000 
     20 N7        181.4320  105.6730  149.8860 N.2       1 GDP1001     0.0000 
     21 C5        182.1380  104.9970  150.7790 C.2       1 GDP1001     0.0000 
     22 C6        182.6570  103.7800  150.7230 C.2       1 GDP1001     0.0000 
     23 O6        182.5030  103.0680  149.7330 O.2       1 GDP1001     0.0000 
     24 N1        183.3590  103.2920  151.8140 N.am      1 GDP1001     0.0000 
     25 C2        183.5080  104.1150  152.9230 C.2       1 GDP1001     0.0000 
     26 N2        184.1780  103.6740  153.9710 N.pl3     1 GDP1001     0.0000 
     27 N3        182.9740  105.3380  152.9240 N.2       1 GDP1001     0.0000 
     28 C4        182.2900  105.7650  151.8580 C.2       1 GDP1001     0.0000 
     29 H5'       178.7750  110.8050  151.4120 H         1 GDP1001     0.0000 
     30 H5''      179.9970  112.0680  151.6540 H         1 GDP1001     0.0000 
     31 H4'       180.0300  110.5310  153.5060 H         1 GDP1001     0.0000 
     32 H3'       182.3530  111.3040  152.4030 H         1 GDP1001     0.0000 
     33 HO3'      183.3380  110.1440  154.2180 H         1 GDP1001     0.0000 
     34 H2'       182.2110  109.3980  150.8500 H         1 GDP1001     0.0000 
     35 HO2'      183.9520  108.6990  153.0760 H         1 GDP1001     0.0000 
     36 H1'       181.7570  107.9290  153.4740 H         1 GDP1001     0.0000 
     37 H8        180.5870  107.6510  149.9330 H         1 GDP1001     0.0000 
     38 HN1       183.7560  102.3740  151.7990 H         1 GDP1001     0.0000 
     39 HN21      184.5500  102.7510  153.9300 H         1 GDP1001     0.0000 
     40 HN22      184.3020  104.2470  154.7810 H         1 GDP1001     0.0000 
@<TRIPOS>BOND
     1    1    2 ar   
     2    1    3 ar   
     3    1    4 ar   
     4    1    5 1    
     5    5    6 1    
     6    6    7 ar   
     7    6    8 ar   
     8    6    9 1    
     9    9   10 1    
    10   10   11 1    
    11   10   29 1    
    12   10   30 1    
    13   11   12 1    
    14   11   13 1    
    15   11   31 1    
    16   12   17 1    
    17   13   14 1    
    18   13   15 1    
    19   13   32 1    
    20   14   33 1    
    21   15   16 1    
    22   15   17 1    
    23   15   34 1    
    24   16   35 1    
    25   17   18 1    
    26   17   36 1    
    27   18   19 1    
    28   18   28 1    
    29   19   20 2    
    30   19   37 1    
    31   20   21 1    
    32   21   22 1    
    33   21   28 2    
    34   22   23 2    
    35   22   24 am   
    36   24   25 1    
    37   24   38 1    
    38   25   26 1    
    39   25   27 2    
    40   26   39 1    
    41   26   40 1    
    42   27   28 1    
@<TRIPOS>SUBSTRUCTURE
     1 GDP1001     1 GROUP   
@<TRIPOS>SET
ATOM$ORANGE STATIC     ATOMS   COLORGROUP SYSTEM 
20 10 10 11 11 13 13 15 15 17 17 19 19 21 21 22 22 25 \
25 28 28 

