#    Name: 6hz6_8_GNP
#    Modification time : Fri May 22 19:38:34 2020

@<TRIPOS>MOLECULE
6hz6_8_GNP
   45    47     1     0     1
SMALL
NO_CHARGES


@<TRIPOS>ATOM
      1 PG        177.4340  135.8300   98.2870 P.3       1 GNP1001     0.0000 
      2 O1G       175.9640  135.8330   98.1940 O.co2     1 GNP1001     0.0000 
      3 O2G       177.8910  134.5830   98.9250 O.co2     1 GNP1001     0.0000 
      4 O3G       177.8420  136.9970   99.0960 O.co2     1 GNP1001     0.0000 
      5 N3B       178.1110  135.9470   96.8810 N.3       1 GNP1001     0.0000 
      6 PB        177.5690  136.9210   95.8540 P.3       1 GNP1001     0.0000 
      7 O1B       176.1020  136.9130   95.8130 O.co2     1 GNP1001     0.0000 
      8 O2B       178.0880  138.2650   96.1440 O.co2     1 GNP1001     0.0000 
      9 O3A       178.1600  136.4330   94.4800 O.3       1 GNP1001     0.0000 
     10 PA        179.5240  137.1250   94.0640 P.3       1 GNP1001     0.0000 
     11 O1A       179.2930  138.5260   93.6660 O.co2     1 GNP1001     0.0000 
     12 O2A       180.4290  137.1450   95.2280 O.co2     1 GNP1001     0.0000 
     13 O5'       180.1580  136.2900   92.8520 O.3       1 GNP1001     0.0000 
     14 C5'       180.9130  135.1230   93.1440 C.3       1 GNP1001     0.0000 
     15 C4'       181.7130  134.5400   91.9570 C.3       1 GNP1001     0.0000 
     16 O4'       180.8460  134.3430   90.7890 O.3       1 GNP1001     0.0000 
     17 C3'       182.8390  135.4260   91.4520 C.3       1 GNP1001     0.0000 
     18 O3'       183.8140  134.6110   90.7980 O.3       1 GNP1001     0.0000 
     19 C2'       182.1040  136.2620   90.4580 C.3       1 GNP1001     0.0000 
     20 O2'       182.9720  136.9800   89.5860 O.3       1 GNP1001     0.0000 
     21 C1'       181.3960  135.1640   89.7290 C.3       1 GNP1001     0.0000 
     22 N9        180.4110  135.7350   88.8360 N.pl3     1 GNP1001     0.0000 
     23 C8        179.1360  136.0000   89.0690 C.2       1 GNP1001     0.0000 
     24 N7        178.6240  136.5230   87.9680 N.2       1 GNP1001     0.0000 
     25 C5        179.5970  136.5900   87.0720 C.2       1 GNP1001     0.0000 
     26 C6        179.5940  137.0380   85.8320 C.2       1 GNP1001     0.0000 
     27 O6        178.5560  137.4760   85.3560 O.2       1 GNP1001     0.0000 
     28 N1        180.7660  136.9980   85.0770 N.am      1 GNP1001     0.0000 
     29 C2        181.9180  136.4800   85.6730 C.2       1 GNP1001     0.0000 
     30 N2        183.0670  136.4200   85.0090 N.pl3     1 GNP1001     0.0000 
     31 N3        181.8570  136.0470   86.9350 N.2       1 GNP1001     0.0000 
     32 C4        180.7060  136.1020   87.6100 C.2       1 GNP1001     0.0000 
     33 HNB3      178.9310  135.4340   96.6700 H         1 GNP1001     0.0000 
     34 H5'2      180.2210  134.3610   93.4820 H         1 GNP1001     0.0000 
     35 H5'1      181.5940  135.3620   93.9480 H         1 GNP1001     0.0000 
     36 H4'       182.1640  133.6420   92.3250 H         1 GNP1001     0.0000 
     37 H3'       183.3100  135.9910   92.2420 H         1 GNP1001     0.0000 
     38 HO3'      184.5290  135.1890   90.4150 H         1 GNP1001     0.0000 
     39 H2'       181.4060  136.9050   90.9410 H         1 GNP1001     0.0000 
     40 HO2'      183.5880  136.3420   89.1360 H         1 GNP1001     0.0000 
     41 H1'       182.0870  134.5560   89.1580 H         1 GNP1001     0.0000 
     42 H8        178.5970  135.8090   89.9860 H         1 GNP1001     0.0000 
     43 HN1       180.7770  137.3330   84.1340 H         1 GNP1001     0.0000 
     44 HN21      183.1140  136.7630   84.0750 H         1 GNP1001     0.0000 
     45 HN22      183.8840  136.0410   85.4460 H         1 GNP1001     0.0000 
@<TRIPOS>BOND
     1    1    2 ar   
     2    1    3 ar   
     3    1    4 ar   
     4    1    5 1    
     5    5    6 1    
     6    5   33 1    
     7    6    7 ar   
     8    6    8 ar   
     9    6    9 1    
    10    9   10 1    
    11   10   11 ar   
    12   10   12 ar   
    13   10   13 1    
    14   13   14 1    
    15   14   15 1    
    16   14   34 1    
    17   14   35 1    
    18   15   16 1    
    19   15   17 1    
    20   15   36 1    
    21   16   21 1    
    22   17   18 1    
    23   17   19 1    
    24   17   37 1    
    25   18   38 1    
    26   19   20 1    
    27   19   21 1    
    28   19   39 1    
    29   20   40 1    
    30   21   22 1    
    31   21   41 1    
    32   22   23 1    
    33   22   32 1    
    34   23   24 2    
    35   23   42 1    
    36   24   25 1    
    37   25   26 1    
    38   25   32 2    
    39   26   27 2    
    40   26   28 am   
    41   28   29 1    
    42   28   43 1    
    43   29   30 1    
    44   29   31 2    
    45   30   44 1    
    46   30   45 1    
    47   31   32 1    
@<TRIPOS>SUBSTRUCTURE
     1 GNP1001     1 GROUP   
@<TRIPOS>SET
ATOM$ORANGE STATIC     ATOMS   COLORGROUP SYSTEM 
20 14 14 15 15 17 17 19 19 21 21 23 23 25 25 26 26 29 \
29 32 32 

