#    Name: 6hz6_8_GNP_CAVITY_N1_ALL
#    Modification time : Fri May 22 19:38:36 2020

@<TRIPOS>MOLECULE
6hz6_8_GNP_CAVITY_N1_ALL
  106     0     7     0     0
SMALL
NO_CHARGES


@<TRIPOS>ATOM
      1 OG        178.6200  135.9700   88.4600 O.3       1 SER1        0.0000 
      2 OG        178.9500  136.3200   87.0400 O.3       1 SER1        0.0000 
      3 OG        181.9900  133.5500   90.2100 O.3       1 SER1        0.0000 
      4 OG        181.2100  134.6100   91.8800 O.3       1 SER1        0.0000 
      5 OG        181.5400  134.9600   90.4600 O.3       1 SER1        0.0000 
      6 OG        190.7600  129.8000   91.2900 O.3       1 SER1        0.0000 
      7 N         178.7500  134.2100   89.6400 N.am      2 ALA2        0.0000 
      8 O         178.3000  135.6200   89.8800 O.2       2 ALA2        0.0000 
      9 N         180.4700  134.9400   88.6200 N.am      2 ALA2        0.0000 
     10 O         179.0400  135.3000   93.1300 O.2       2 ALA2        0.0000 
     11 O         179.3700  135.6500   91.7100 O.2       2 ALA2        0.0000 
     12 O         178.5900  136.7100   93.3800 O.2       2 ALA2        0.0000 
     13 N         181.8600  135.3100   89.0300 N.am      2 ALA2        0.0000 
     14 N         182.1800  135.6600   87.6100 N.am      2 ALA2        0.0000 
     15 N         182.5100  136.0100   86.1900 N.am      2 ALA2        0.0000 
     16 N         183.3800  133.9300   90.6200 N.am      2 ALA2        0.0000 
     17 N         183.7000  134.2800   89.2000 N.am      2 ALA2        0.0000 
     18 N         184.3500  134.9800   86.3600 N.am      2 ALA2        0.0000 
     19 N         183.2500  135.6900   89.4400 N.am      2 ALA2        0.0000 
     20 N         183.5800  136.0400   88.0200 N.am      2 ALA2        0.0000 
     21 N         187.1000  131.1300   86.0400 N.am      2 ALA2        0.0000 
     22 N         186.6500  132.5400   86.2800 N.am      2 ALA2        0.0000 
     23 N         185.8700  133.6000   87.9500 N.am      2 ALA2        0.0000 
     24 N         186.2000  133.9500   86.5200 N.am      2 ALA2        0.0000 
     25 N         184.7700  134.3100   91.0300 N.am      2 ALA2        0.0000 
     26 N         185.1000  134.6600   89.6100 N.am      2 ALA2        0.0000 
     27 N         185.4200  135.0100   88.1900 N.am      2 ALA2        0.0000 
     28 N         185.7500  135.3600   86.7700 N.am      2 ALA2        0.0000 
     29 N         187.3900  132.2100   89.5300 N.am      2 ALA2        0.0000 
     30 N         186.9400  133.6200   89.7800 N.am      2 ALA2        0.0000 
     31 N         187.2700  133.9700   88.3600 N.am      2 ALA2        0.0000 
     32 O         189.6900  129.7700   89.4600 O.2       2 ALA2        0.0000 
     33 O         189.5600  131.5300   88.2800 O.2       2 ALA2        0.0000 
     34 OD1       178.2600  136.3600   94.8000 O.co2     3 ASP3        0.0000 
     35 OD1       180.4300  135.6700   93.5400 O.co2     3 ASP3        0.0000 
     36 OD1       180.7600  136.0200   92.1200 O.co2     3 ASP3        0.0000 
     37 OD1       179.9800  137.0800   93.7900 O.co2     3 ASP3        0.0000 
     38 OD1       182.1500  136.4000   92.5300 O.co2     3 ASP3        0.0000 
     39 OD1       186.9800  132.8900   84.8600 O.co2     3 ASP3        0.0000 
     40 OD1       188.8200  131.8600   85.0200 O.co2     3 ASP3        0.0000 
     41 OD1       188.3700  133.2600   85.2700 O.co2     3 ASP3        0.0000 
     42 NZ        184.6800  135.3300   84.9300 N.4       4 LYS4        0.0000 
     43 NZ        182.6000  134.9900   92.2900 N.4       4 LYS4        0.0000 
     44 NZ        182.9300  135.3400   90.8700 N.4       4 LYS4        0.0000 
     45 NZ        186.0700  135.7100   85.3500 N.4       4 LYS4        0.0000 
     46 NZ        184.6500  136.0700   89.8600 N.4       4 LYS4        0.0000 
     47 NZ        186.0400  136.4400   90.2700 N.4       4 LYS4        0.0000 
     48 NZ        185.5900  137.8500   90.5100 N.4       4 LYS4        0.0000 
     49 NZ        189.4400  133.2900   87.1000 N.4       4 LYS4        0.0000 
     50 NZ        191.0900  130.1500   89.8700 N.4       4 LYS4        0.0000 
     51 NZ        190.9600  131.9100   88.6900 N.4       4 LYS4        0.0000 
     52 NZ        190.5100  133.3200   88.9300 N.4       4 LYS4        0.0000 
     53 NZ        192.0300  131.9300   90.5200 N.4       4 LYS4        0.0000 
     54 NZ        191.5700  133.3400   90.7600 N.4       4 LYS4        0.0000 
     55 NZ        191.9000  133.6900   89.3400 N.4       4 LYS4        0.0000 
     56 CZ        179.4000  134.9100   86.7900 C.ar      5 PHE5        0.0000 
     57 CZ        180.7900  135.2900   87.2000 C.ar      5 PHE5        0.0000 
     58 CZ        181.1200  135.6400   85.7800 C.ar      5 PHE5        0.0000 
     59 CZ        180.0100  136.3500   88.8700 C.ar      5 PHE5        0.0000 
     60 CZ        180.3400  136.7000   87.4500 C.ar      5 PHE5        0.0000 
     61 CZ        181.4100  136.7200   89.2800 C.ar      5 PHE5        0.0000 
     62 CZ        181.7300  137.0700   87.8600 C.ar      5 PHE5        0.0000 
     63 CZ        183.9000  136.3900   86.6000 C.ar      5 PHE5        0.0000 
     64 CZ        182.4800  136.7500   91.1100 C.ar      5 PHE5        0.0000 
     65 CZ        182.8000  137.1000   89.6900 C.ar      5 PHE5        0.0000 
     66 CZ        184.9700  136.4200   88.4300 C.ar      5 PHE5        0.0000 
     67 CZ        185.2900  136.7700   87.0100 C.ar      5 PHE5        0.0000 
     68 CZ        184.1900  137.4800   90.1000 C.ar      5 PHE5        0.0000 
     69 CZ        185.9100  138.2000   89.0900 C.ar      5 PHE5        0.0000 
     70 CZ        185.1300  139.2600   90.7500 C.ar      5 PHE5        0.0000 
     71 CZ        189.2400  131.1800   89.7000 C.ar      5 PHE5        0.0000 
     72 CZ        188.7900  132.5900   89.9400 C.ar      5 PHE5        0.0000 
     73 CZ        190.6300  131.5600   90.1100 C.ar      5 PHE5        0.0000 
     74 CZ        190.1800  132.9700   90.3500 C.ar      5 PHE5        0.0000 
     75 CA        180.5900  133.1800   89.8000 C.3       6 GLY6        0.0000 
     76 CA        180.9200  133.5300   88.3800 C.3       6 GLY6        0.0000 
     77 CA        179.8200  134.2400   91.4700 C.3       6 GLY6        0.0000 
     78 CA        180.1400  134.5900   90.0500 C.3       6 GLY6        0.0000 
     79 CA        178.7200  134.9500   94.5600 C.3       6 GLY6        0.0000 
     80 CA        179.6900  136.0000   90.2900 C.3       6 GLY6        0.0000 
     81 CA        181.0800  136.3700   90.7000 C.3       6 GLY6        0.0000 
     82 CA        180.3100  137.4300   92.3700 C.3       6 GLY6        0.0000 
     83 CA        186.3300  132.1900   87.7000 C.3       6 GLY6        0.0000 
     84 CA        188.1700  131.1500   87.8700 C.3       6 GLY6        0.0000 
     85 CA        188.5000  131.5000   86.4500 C.3       6 GLY6        0.0000 
     86 CA        187.7200  132.5600   88.1100 C.3       6 GLY6        0.0000 
     87 CA        186.4900  135.0300   90.0200 C.3       6 GLY6        0.0000 
     88 CA        189.8900  131.8800   86.8600 C.3       6 GLY6        0.0000 
     89 CA        188.3400  134.0000   90.1900 C.3       6 GLY6        0.0000 
     90 CA        188.2100  135.7600   89.0100 C.3       6 GLY6        0.0000 
     91 CA        187.7600  137.1700   89.2500 C.3       6 GLY6        0.0000 
     92 CA        191.2100  128.3900   91.0400 C.3       6 GLY6        0.0000 
     93 CA        191.5400  128.7400   89.6200 C.3       6 GLY6        0.0000 
     94 CA        189.7300  134.3800   90.6000 C.3       6 GLY6        0.0000 
     95 CA        191.1200  134.7500   91.0100 C.3       6 GLY6        0.0000 
     96 DU        188.0400  132.9100   86.6900 H         7 CUB7        0.0000 
     97 DU        187.5900  134.3200   86.9300 H         7 CUB7        0.0000 
     98 DU        187.9200  134.6700   85.5100 H         7 CUB7        0.0000 
     99 DU        186.8100  135.3800   88.6000 H         7 CUB7        0.0000 
    100 DU        187.1400  135.7300   87.1800 H         7 CUB7        0.0000 
    101 DU        186.3600  136.7900   88.8400 H         7 CUB7        0.0000 
    102 DU        186.6900  137.1400   87.4200 H         7 CUB7        0.0000 
    103 DU        189.1100  132.9400   88.5200 H         7 CUB7        0.0000 
    104 DU        188.6600  134.3500   88.7700 H         7 CUB7        0.0000 
    105 DU        188.9800  134.7000   87.3400 H         7 CUB7        0.0000 
    106 DU        190.0500  134.7300   89.1800 H         7 CUB7        0.0000 
@<TRIPOS>BOND
@<TRIPOS>SUBSTRUCTURE
     1 SER1        1 GROUP   
     2 ALA2        7 GROUP   
     3 ASP3       34 GROUP   
     4 LYS4       42 GROUP   
     5 PHE5       56 GROUP   
     6 GLY6       75 GROUP   
     7 CUB7       96 GROUP   
@<TRIPOS>SET

