#    Name: 6hz6_2_GNP
#    Modification time : Fri May 22 19:38:01 2020

@<TRIPOS>MOLECULE
6hz6_2_GNP
   45    47     1     0     1
SMALL
NO_CHARGES


@<TRIPOS>ATOM
      1 PG         74.5830  116.1050   98.2310 P.3       1 GNP1001     0.0000 
      2 O1G        76.0530  116.1080   98.1400 O.co2     1 GNP1001     0.0000 
      3 O2G        74.1190  117.3510   98.8660 O.co2     1 GNP1001     0.0000 
      4 O3G        74.1790  114.9380   99.0420 O.co2     1 GNP1001     0.0000 
      5 N3B        73.9090  115.9810   96.8240 N.3       1 GNP1001     0.0000 
      6 PB         74.4580  115.0080   95.8010 P.3       1 GNP1001     0.0000 
      7 O1B        75.9250  115.0220   95.7610 O.co2     1 GNP1001     0.0000 
      8 O2B        73.9450  113.6620   96.0930 O.co2     1 GNP1001     0.0000 
      9 O3A        73.8660  115.4900   94.4250 O.3       1 GNP1001     0.0000 
     10 PA         72.5070  114.7900   94.0070 P.3       1 GNP1001     0.0000 
     11 O1A        72.7450  113.3900   93.6130 O.co2     1 GNP1001     0.0000 
     12 O2A        71.5990  114.7690   95.1700 O.co2     1 GNP1001     0.0000 
     13 O5'        71.8700  115.6200   92.7930 O.3       1 GNP1001     0.0000 
     14 C5'        71.1100  116.7840   93.0800 C.3       1 GNP1001     0.0000 
     15 C4'        70.3090  117.3610   91.8900 C.3       1 GNP1001     0.0000 
     16 O4'        71.1770  117.5590   90.7240 O.3       1 GNP1001     0.0000 
     17 C3'        69.1880  116.4680   91.3860 C.3       1 GNP1001     0.0000 
     18 O3'        68.2100  117.2770   90.7280 O.3       1 GNP1001     0.0000 
     19 C2'        69.9290  115.6330   90.3960 C.3       1 GNP1001     0.0000 
     20 O2'        69.0660  114.9090   89.5230 O.3       1 GNP1001     0.0000 
     21 C1'        70.6330  116.7320   89.6650 C.3       1 GNP1001     0.0000 
     22 N9         71.6210  116.1640   88.7750 N.pl3     1 GNP1001     0.0000 
     23 C8         72.8980  115.9060   89.0110 C.2       1 GNP1001     0.0000 
     24 N7         73.4140  115.3820   87.9110 N.2       1 GNP1001     0.0000 
     25 C5         72.4430  115.3090   87.0140 C.2       1 GNP1001     0.0000 
     26 C6         72.4500  114.8580   85.7760 C.2       1 GNP1001     0.0000 
     27 O6         73.4910  114.4240   85.3020 O.2       1 GNP1001     0.0000 
     28 N1         71.2790  114.8910   85.0180 N.am      1 GNP1001     0.0000 
     29 C2         70.1230  115.4050   85.6110 C.2       1 GNP1001     0.0000 
     30 N2         68.9750  115.4580   84.9450 N.pl3     1 GNP1001     0.0000 
     31 N3         70.1800  115.8410   86.8720 N.2       1 GNP1001     0.0000 
     32 C4         71.3310  115.7920   87.5490 C.2       1 GNP1001     0.0000 
     33 HNB3       73.0850  116.4940   96.6160 H         1 GNP1001     0.0000 
     34 H5'2       71.7970  117.5500   93.4180 H         1 GNP1001     0.0000 
     35 H5'1       70.4280  116.5490   93.8840 H         1 GNP1001     0.0000 
     36 H4'        69.8530  118.2570   92.2580 H         1 GNP1001     0.0000 
     37 H3'        68.7190  115.9000   92.1790 H         1 GNP1001     0.0000 
     38 HO3'       67.5000  116.6930   90.3450 H         1 GNP1001     0.0000 
     39 H2'        70.6290  114.9950   90.8820 H         1 GNP1001     0.0000 
     40 HO2'       68.4470  115.5420   89.0690 H         1 GNP1001     0.0000 
     41 H1'        69.9400  117.3350   89.0910 H         1 GNP1001     0.0000 
     42 H8         73.4350  116.1030   89.9300 H         1 GNP1001     0.0000 
     43 HN1        71.2710  114.5550   84.0770 H         1 GNP1001     0.0000 
     44 HN21       68.9310  115.1150   84.0120 H         1 GNP1001     0.0000 
     45 HN22       68.1570  115.8360   85.3810 H         1 GNP1001     0.0000 
@<TRIPOS>BOND
     1    1    2 ar   
     2    1    3 ar   
     3    1    4 ar   
     4    1    5 1    
     5    5    6 1    
     6    5   33 1    
     7    6    7 ar   
     8    6    8 ar   
     9    6    9 1    
    10    9   10 1    
    11   10   11 ar   
    12   10   12 ar   
    13   10   13 1    
    14   13   14 1    
    15   14   15 1    
    16   14   34 1    
    17   14   35 1    
    18   15   16 1    
    19   15   17 1    
    20   15   36 1    
    21   16   21 1    
    22   17   18 1    
    23   17   19 1    
    24   17   37 1    
    25   18   38 1    
    26   19   20 1    
    27   19   21 1    
    28   19   39 1    
    29   20   40 1    
    30   21   22 1    
    31   21   41 1    
    32   22   23 1    
    33   22   32 1    
    34   23   24 2    
    35   23   42 1    
    36   24   25 1    
    37   25   26 1    
    38   25   32 2    
    39   26   27 2    
    40   26   28 am   
    41   28   29 1    
    42   28   43 1    
    43   29   30 1    
    44   29   31 2    
    45   30   44 1    
    46   30   45 1    
    47   31   32 1    
@<TRIPOS>SUBSTRUCTURE
     1 GNP1001     1 GROUP   
@<TRIPOS>SET
ATOM$ORANGE STATIC     ATOMS   COLORGROUP SYSTEM 
20 14 14 15 15 17 17 19 19 21 21 23 23 25 25 26 26 29 \
29 32 32 

