#    Name: 6hz6_6_GDP
#    Modification time : Fri May 22 19:38:22 2020

@<TRIPOS>MOLECULE
6hz6_6_GDP
   40    42     1     0     1
SMALL
NO_CHARGES


@<TRIPOS>ATOM
      1 PB        105.5180   91.0330  136.9100 P.3       1 GDP1001     0.0000 
      2 O1B       105.7960   90.9290  135.4630 O.co2     1 GDP1001     0.0000 
      3 O2B       105.9190   92.3740  137.3780 O.co2     1 GDP1001     0.0000 
      4 O3B       104.0740   90.8410  137.1570 O.co2     1 GDP1001     0.0000 
      5 O3A       106.3440   89.8980  137.6850 O.3       1 GDP1001     0.0000 
      6 PA        106.9490   90.1660  139.1460 P.3       1 GDP1001     0.0000 
      7 O1A       107.5880   91.4990  139.2150 O.co2     1 GDP1001     0.0000 
      8 O2A       105.8570   90.0770  140.1340 O.co2     1 GDP1001     0.0000 
      9 O5'       108.0460   89.0410  139.4810 O.3       1 GDP1001     0.0000 
     10 C5'       108.5110   88.1240  138.4910 C.3       1 GDP1001     0.0000 
     11 C4'       109.4310   87.0340  139.0720 C.3       1 GDP1001     0.0000 
     12 O4'       110.6880   87.6690  139.4980 O.3       1 GDP1001     0.0000 
     13 C3'       108.8710   86.3990  140.3480 C.3       1 GDP1001     0.0000 
     14 O3'       109.3030   85.0320  140.4520 O.3       1 GDP1001     0.0000 
     15 C2'       109.5690   87.2330  141.3910 C.3       1 GDP1001     0.0000 
     16 O2'       109.5110   86.6120  142.6730 O.3       1 GDP1001     0.0000 
     17 C1'       110.9570   87.1900  140.8320 C.3       1 GDP1001     0.0000 
     18 N9        111.8330   88.0790  141.5890 N.pl3     1 GDP1001     0.0000 
     19 C8        111.8890   89.3890  141.4250 C.2       1 GDP1001     0.0000 
     20 N7        112.7760   89.8780  142.2810 N.2       1 GDP1001     0.0000 
     21 C5        113.2550   88.8620  142.9880 C.2       1 GDP1001     0.0000 
     22 C6        114.1520   88.8230  143.9630 C.2       1 GDP1001     0.0000 
     23 O6        114.6900   89.8560  144.3540 O.2       1 GDP1001     0.0000 
     24 N1        114.4780   87.5940  144.5430 N.am      1 GDP1001     0.0000 
     25 C2        113.8370   86.4450  144.0710 C.2       1 GDP1001     0.0000 
     26 N2        114.0910   85.2390  144.5670 N.pl3     1 GDP1001     0.0000 
     27 N3        112.9410   86.5580  143.0910 N.2       1 GDP1001     0.0000 
     28 C4        112.6710   87.7470  142.5530 C.2       1 GDP1001     0.0000 
     29 H5'       109.0520   88.6800  137.7290 H         1 GDP1001     0.0000 
     30 H5''      107.6440   87.6420  138.0410 H         1 GDP1001     0.0000 
     31 H4'       109.5520   86.2670  138.3100 H         1 GDP1001     0.0000 
     32 H3'       107.7850   86.4330  140.4040 H         1 GDP1001     0.0000 
     33 HO3'      108.9050   84.5020  139.7060 H         1 GDP1001     0.0000 
     34 H2'       109.2120   88.2470  141.3830 H         1 GDP1001     0.0000 
     35 HO2'      109.8710   85.6810  142.6120 H         1 GDP1001     0.0000 
     36 H1'       111.3530   86.1800  140.8040 H         1 GDP1001     0.0000 
     37 H8        111.3160   89.9550  140.6960 H         1 GDP1001     0.0000 
     38 HN1       115.1520   87.5440  145.2800 H         1 GDP1001     0.0000 
     39 HN21      114.7580   85.1160  145.3020 H         1 GDP1001     0.0000 
     40 HN22      113.6060   84.4490  144.1890 H         1 GDP1001     0.0000 
@<TRIPOS>BOND
     1    1    2 ar   
     2    1    3 ar   
     3    1    4 ar   
     4    1    5 1    
     5    5    6 1    
     6    6    7 ar   
     7    6    8 ar   
     8    6    9 1    
     9    9   10 1    
    10   10   11 1    
    11   10   29 1    
    12   10   30 1    
    13   11   12 1    
    14   11   13 1    
    15   11   31 1    
    16   12   17 1    
    17   13   14 1    
    18   13   15 1    
    19   13   32 1    
    20   14   33 1    
    21   15   16 1    
    22   15   17 1    
    23   15   34 1    
    24   16   35 1    
    25   17   18 1    
    26   17   36 1    
    27   18   19 1    
    28   18   28 1    
    29   19   20 2    
    30   19   37 1    
    31   20   21 1    
    32   21   22 1    
    33   21   28 2    
    34   22   23 2    
    35   22   24 am   
    36   24   25 1    
    37   24   38 1    
    38   25   26 1    
    39   25   27 2    
    40   26   39 1    
    41   26   40 1    
    42   27   28 1    
@<TRIPOS>SUBSTRUCTURE
     1 GDP1001     1 GROUP   
@<TRIPOS>SET
ATOM$ORANGE STATIC     ATOMS   COLORGROUP SYSTEM 
20 10 10 11 11 13 13 15 15 17 17 19 19 21 21 22 22 25 \
25 28 28 

