#    Name: 6hz6_4_GDP
#    Modification time : Fri May 22 19:38:08 2020

@<TRIPOS>MOLECULE
6hz6_4_GDP
   40    42     1     0     1
SMALL
NO_CHARGES


@<TRIPOS>ATOM
      1 PB         73.2410  140.7910  146.4070 P.3       1 GDP1001     0.0000 
      2 O1B        72.6370  141.9660  145.7540 O.co2     1 GDP1001     0.0000 
      3 O2B        74.6370  140.6300  145.9550 O.co2     1 GDP1001     0.0000 
      4 O3B        72.4770  139.5820  146.0390 O.co2     1 GDP1001     0.0000 
      5 O3A        73.2310  140.9880  147.9950 O.3       1 GDP1001     0.0000 
      6 PA         72.0740  140.3280  148.8920 P.3       1 GDP1001     0.0000 
      7 O1A        70.8750  140.1070  148.0640 O.co2     1 GDP1001     0.0000 
      8 O2A        72.5650  139.0300  149.4040 O.co2     1 GDP1001     0.0000 
      9 O5'        71.6880  141.3120  150.1230 O.3       1 GDP1001     0.0000 
     10 C5'        72.2030  141.0340  151.4280 C.3       1 GDP1001     0.0000 
     11 C4'        71.5800  141.8650  152.5780 C.3       1 GDP1001     0.0000 
     12 O4'        71.8020  143.2910  152.2600 O.3       1 GDP1001     0.0000 
     13 C3'        70.0680  141.7240  152.7220 C.3       1 GDP1001     0.0000 
     14 O3'        69.7100  141.9440  154.1040 O.3       1 GDP1001     0.0000 
     15 C2'        69.6160  142.8550  151.8680 C.3       1 GDP1001     0.0000 
     16 O2'        68.2510  143.1820  152.0970 O.3       1 GDP1001     0.0000 
     17 C1'        70.5160  143.9370  152.4120 C.3       1 GDP1001     0.0000 
     18 N9         70.3880  145.1410  151.5930 N.pl3     1 GDP1001     0.0000 
     19 C8         70.9010  145.1900  150.3810 C.2       1 GDP1001     0.0000 
     20 N7         70.6270  146.3720  149.8510 N.2       1 GDP1001     0.0000 
     21 C5         69.9270  147.0550  150.7430 C.2       1 GDP1001     0.0000 
     22 C6         69.4110  148.2730  150.6840 C.2       1 GDP1001     0.0000 
     23 O6         69.5650  148.9790  149.6900 O.2       1 GDP1001     0.0000 
     24 N1         68.7150  148.7690  151.7750 N.am      1 GDP1001     0.0000 
     25 C2         68.5670  147.9520  152.8880 C.2       1 GDP1001     0.0000 
     26 N2         67.9030  148.4010  153.9360 N.pl3     1 GDP1001     0.0000 
     27 N3         69.0970  146.7280  152.8930 N.2       1 GDP1001     0.0000 
     28 C4         69.7760  146.2920  151.8270 C.2       1 GDP1001     0.0000 
     29 H5'        73.2710  141.2370  151.3930 H         1 GDP1001     0.0000 
     30 H5''       72.0440  139.9800  151.6460 H         1 GDP1001     0.0000 
     31 H4'        72.0240  141.5260  153.4910 H         1 GDP1001     0.0000 
     32 H3'        69.6940  140.7560  152.4000 H         1 GDP1001     0.0000 
     33 HO3'       68.7200  141.9290  154.2120 H         1 GDP1001     0.0000 
     34 H2'        69.8370  142.6540  150.8370 H         1 GDP1001     0.0000 
     35 HO2'       68.1080  143.3700  153.0650 H         1 GDP1001     0.0000 
     36 H1'        70.3070  144.1340  153.4520 H         1 GDP1001     0.0000 
     37 H8         71.4640  144.3900  149.9050 H         1 GDP1001     0.0000 
     38 HN1        68.3220  149.6880  151.7560 H         1 GDP1001     0.0000 
     39 HN21       67.5340  149.3250  153.8920 H         1 GDP1001     0.0000 
     40 HN22       67.7800  147.8320  154.7490 H         1 GDP1001     0.0000 
@<TRIPOS>BOND
     1    1    2 ar   
     2    1    3 ar   
     3    1    4 ar   
     4    1    5 1    
     5    5    6 1    
     6    6    7 ar   
     7    6    8 ar   
     8    6    9 1    
     9    9   10 1    
    10   10   11 1    
    11   10   29 1    
    12   10   30 1    
    13   11   12 1    
    14   11   13 1    
    15   11   31 1    
    16   12   17 1    
    17   13   14 1    
    18   13   15 1    
    19   13   32 1    
    20   14   33 1    
    21   15   16 1    
    22   15   17 1    
    23   15   34 1    
    24   16   35 1    
    25   17   18 1    
    26   17   36 1    
    27   18   19 1    
    28   18   28 1    
    29   19   20 2    
    30   19   37 1    
    31   20   21 1    
    32   21   22 1    
    33   21   28 2    
    34   22   23 2    
    35   22   24 am   
    36   24   25 1    
    37   24   38 1    
    38   25   26 1    
    39   25   27 2    
    40   26   39 1    
    41   26   40 1    
    42   27   28 1    
@<TRIPOS>SUBSTRUCTURE
     1 GDP1001     1 GROUP   
@<TRIPOS>SET
ATOM$ORANGE STATIC     ATOMS   COLORGROUP SYSTEM 
20 10 10 11 11 13 13 15 15 17 17 19 19 21 21 22 22 25 \
25 28 28 

