#    Name: 6hz6_7_GNP
#    Modification time : Fri May 22 19:38:28 2020

@<TRIPOS>MOLECULE
6hz6_7_GNP
   45    47     1     0     1
SMALL
NO_CHARGES


@<TRIPOS>ATOM
      1 PG        157.5620  155.6720  107.9890 P.3       1 GNP1001     0.0000 
      2 O1G       158.2940  154.5620  107.3510 O.co2     1 GNP1001     0.0000 
      3 O2G       156.4370  155.1370  108.7690 O.co2     1 GNP1001     0.0000 
      4 O3G       158.4470  156.4470  108.8800 O.co2     1 GNP1001     0.0000 
      5 N3B       157.0520  156.6150  106.8940 N.3       1 GNP1001     0.0000 
      6 PB        156.1460  157.7800  107.2760 P.3       1 GNP1001     0.0000 
      7 O1B       156.9340  158.7940  108.0020 O.co2     1 GNP1001     0.0000 
      8 O2B       155.0060  157.3310  108.0870 O.co2     1 GNP1001     0.0000 
      9 O3A       155.6790  158.3320  105.8550 O.3       1 GNP1001     0.0000 
     10 PA        156.1970  159.7990  105.5120 P.3       1 GNP1001     0.0000 
     11 O1A       157.6610  159.8340  105.7000 O.co2     1 GNP1001     0.0000 
     12 O2A       155.5850  160.7710  106.4400 O.co2     1 GNP1001     0.0000 
     13 O5'       155.8400  160.1580  103.9810 O.3       1 GNP1001     0.0000 
     14 C5'       156.7310  159.6240  103.0030 C.3       1 GNP1001     0.0000 
     15 C4'       156.5170  160.1500  101.5800 C.3       1 GNP1001     0.0000 
     16 O4'       155.0630  160.0940  101.3890 O.3       1 GNP1001     0.0000 
     17 C3'       156.9000  161.6030  101.3600 C.3       1 GNP1001     0.0000 
     18 O3'       157.2550  161.8080   99.9890 O.3       1 GNP1001     0.0000 
     19 C2'       155.5980  162.2720  101.6410 C.3       1 GNP1001     0.0000 
     20 O2'       155.5810  163.5980  101.1060 O.3       1 GNP1001     0.0000 
     21 C1'       154.6930  161.3760  100.8540 C.3       1 GNP1001     0.0000 
     22 N9        153.3140  161.7450  101.1150 N.pl3     1 GNP1001     0.0000 
     23 C8        152.5930  161.2840  102.1140 C.2       1 GNP1001     0.0000 
     24 N7        151.3950  161.8490  102.0550 N.2       1 GNP1001     0.0000 
     25 C5        151.3910  162.6710  101.0150 C.2       1 GNP1001     0.0000 
     26 C6        150.4460  163.4640  100.5290 C.2       1 GNP1001     0.0000 
     27 O6        149.3410  163.5240  101.0630 O.2       1 GNP1001     0.0000 
     28 N1        150.7160  164.2360   99.4020 N.am      1 GNP1001     0.0000 
     29 C2        151.9810  164.1480   98.8210 C.2       1 GNP1001     0.0000 
     30 N2        152.3010  164.8550   97.7460 N.pl3     1 GNP1001     0.0000 
     31 N3        152.8870  163.3330   99.3600 N.2       1 GNP1001     0.0000 
     32 C4        152.5870  162.6100  100.4390 C.2       1 GNP1001     0.0000 
     33 HNB3      157.3560  156.5060  105.9540 H         1 GNP1001     0.0000 
     34 H5'2      156.5640  158.5500  103.0050 H         1 GNP1001     0.0000 
     35 H5'1      157.7540  159.8400  103.2740 H         1 GNP1001     0.0000 
     36 H4'       157.1110  159.5450  100.9040 H         1 GNP1001     0.0000 
     37 H3'       157.7130  161.9340  101.9980 H         1 GNP1001     0.0000 
     38 HO3'      157.4170  162.7780   99.8350 H         1 GNP1001     0.0000 
     39 H2'       155.3560  162.2050  102.6810 H         1 GNP1001     0.0000 
     40 HO2'      156.2570  164.1540  101.5810 H         1 GNP1001     0.0000 
     41 H1'       154.9090  161.4080   99.7990 H         1 GNP1001     0.0000 
     42 H8        152.9310  160.5610  102.8390 H         1 GNP1001     0.0000 
     43 HN1       150.0180  164.8400   99.0220 H         1 GNP1001     0.0000 
     44 HN21      151.6350  165.4670   97.3270 H         1 GNP1001     0.0000 
     45 HN22      153.2170  164.7670   97.3580 H         1 GNP1001     0.0000 
@<TRIPOS>BOND
     1    1    2 ar   
     2    1    3 ar   
     3    1    4 ar   
     4    1    5 1    
     5    5    6 1    
     6    5   33 1    
     7    6    7 ar   
     8    6    8 ar   
     9    6    9 1    
    10    9   10 1    
    11   10   11 ar   
    12   10   12 ar   
    13   10   13 1    
    14   13   14 1    
    15   14   15 1    
    16   14   34 1    
    17   14   35 1    
    18   15   16 1    
    19   15   17 1    
    20   15   36 1    
    21   16   21 1    
    22   17   18 1    
    23   17   19 1    
    24   17   37 1    
    25   18   38 1    
    26   19   20 1    
    27   19   21 1    
    28   19   39 1    
    29   20   40 1    
    30   21   22 1    
    31   21   41 1    
    32   22   23 1    
    33   22   32 1    
    34   23   24 2    
    35   23   42 1    
    36   24   25 1    
    37   25   26 1    
    38   25   32 2    
    39   26   27 2    
    40   26   28 am   
    41   28   29 1    
    42   28   43 1    
    43   29   30 1    
    44   29   31 2    
    45   30   44 1    
    46   30   45 1    
    47   31   32 1    
@<TRIPOS>SUBSTRUCTURE
     1 GNP1001     1 GROUP   
@<TRIPOS>SET
ATOM$ORANGE STATIC     ATOMS   COLORGROUP SYSTEM 
20 14 14 15 15 17 17 19 19 21 21 23 23 25 25 26 26 29 \
29 32 32 

