#    Name: 6hz6_11_GDP
#    Modification time : Fri May 22 19:38:54 2020

@<TRIPOS>MOLECULE
6hz6_11_GDP
   40    42     1     0     1
SMALL
NO_CHARGES


@<TRIPOS>ATOM
      1 PB        156.4810  136.5710  157.1040 P.3       1 GDP1001     0.0000 
      2 O1B       156.2060  137.8180  156.3590 O.co2     1 GDP1001     0.0000 
      3 O2B       155.7320  135.4520  156.4920 O.co2     1 GDP1001     0.0000 
      4 O3B       157.9310  136.2870  157.0740 O.co2     1 GDP1001     0.0000 
      5 O3A       156.0180  136.7350  158.6240 O.3       1 GDP1001     0.0000 
      6 PA        156.1050  135.4530  159.5700 P.3       1 GDP1001     0.0000 
      7 O1A       155.3940  134.3220  158.9330 O.co2     1 GDP1001     0.0000 
      8 O2A       157.5270  135.0890  159.7690 O.co2     1 GDP1001     0.0000 
      9 O5'       155.4220  135.7660  161.0050 O.3       1 GDP1001     0.0000 
     10 C5'       156.1230  136.5000  162.0170 C.3       1 GDP1001     0.0000 
     11 C4'       155.1090  137.0870  163.0290 C.3       1 GDP1001     0.0000 
     12 O4'       154.2800  136.0090  163.6200 O.3       1 GDP1001     0.0000 
     13 C3'       155.7460  137.7450  164.2440 C.3       1 GDP1001     0.0000 
     14 O3'       154.7730  138.6080  164.8810 O.3       1 GDP1001     0.0000 
     15 C2'       156.0390  136.5300  165.0900 C.3       1 GDP1001     0.0000 
     16 O2'       156.4020  136.8840  166.4360 O.3       1 GDP1001     0.0000 
     17 C1'       154.6880  135.8630  165.0360 C.3       1 GDP1001     0.0000 
     18 N9        154.7870  134.4760  165.5090 N.pl3     1 GDP1001     0.0000 
     19 C8        154.8500  133.4000  164.7480 C.2       1 GDP1001     0.0000 
     20 N7        154.9470  132.3400  165.5410 N.2       1 GDP1001     0.0000 
     21 C5        154.9630  132.7700  166.7970 C.2       1 GDP1001     0.0000 
     22 C6        155.0550  132.1180  167.9520 C.2       1 GDP1001     0.0000 
     23 O6        155.1350  130.8920  167.9710 O.2       1 GDP1001     0.0000 
     24 N1        155.0440  132.8340  169.1530 N.am      1 GDP1001     0.0000 
     25 C2        154.9440  134.2270  169.0920 C.2       1 GDP1001     0.0000 
     26 N2        154.9310  134.9860  170.1850 N.pl3     1 GDP1001     0.0000 
     27 N3        154.8660  134.8110  167.8970 N.2       1 GDP1001     0.0000 
     28 C4        154.8660  134.0950  166.7720 C.2       1 GDP1001     0.0000 
     29 H5'       156.6520  137.3200  161.5380 H         1 GDP1001     0.0000 
     30 H5''      156.8490  135.8380  162.4620 H         1 GDP1001     0.0000 
     31 H4'       154.5360  137.8240  162.4700 H         1 GDP1001     0.0000 
     32 H3'       156.6370  138.3180  163.9970 H         1 GDP1001     0.0000 
     33 HO3'      153.8390  138.2810  164.7390 H         1 GDP1001     0.0000 
     34 H2'       156.7850  135.8980  164.6510 H         1 GDP1001     0.0000 
     35 HO2'      155.6880  137.4620  166.8380 H         1 GDP1001     0.0000 
     36 H1'       153.9880  136.4060  165.6610 H         1 GDP1001     0.0000 
     37 H8        154.8040  133.3950  163.6680 H         1 GDP1001     0.0000 
     38 HN1       155.1100  132.3590  170.0310 H         1 GDP1001     0.0000 
     39 HN21      154.9980  134.5710  171.0920 H         1 GDP1001     0.0000 
     40 HN22      154.8530  135.9820  170.0910 H         1 GDP1001     0.0000 
@<TRIPOS>BOND
     1    1    2 ar   
     2    1    3 ar   
     3    1    4 ar   
     4    1    5 1    
     5    5    6 1    
     6    6    7 ar   
     7    6    8 ar   
     8    6    9 1    
     9    9   10 1    
    10   10   11 1    
    11   10   29 1    
    12   10   30 1    
    13   11   12 1    
    14   11   13 1    
    15   11   31 1    
    16   12   17 1    
    17   13   14 1    
    18   13   15 1    
    19   13   32 1    
    20   14   33 1    
    21   15   16 1    
    22   15   17 1    
    23   15   34 1    
    24   16   35 1    
    25   17   18 1    
    26   17   36 1    
    27   18   19 1    
    28   18   28 1    
    29   19   20 2    
    30   19   37 1    
    31   20   21 1    
    32   21   22 1    
    33   21   28 2    
    34   22   23 2    
    35   22   24 am   
    36   24   25 1    
    37   24   38 1    
    38   25   26 1    
    39   25   27 2    
    40   26   39 1    
    41   26   40 1    
    42   27   28 1    
@<TRIPOS>SUBSTRUCTURE
     1 GDP1001     1 GROUP   
@<TRIPOS>SET
ATOM$ORANGE STATIC     ATOMS   COLORGROUP SYSTEM 
20 10 10 11 11 13 13 15 15 17 17 19 19 21 21 22 22 25 \
25 28 28 

