#    Name: 6hz6_9_GNP
#    Modification time : Fri May 22 19:38:41 2020

@<TRIPOS>MOLECULE
6hz6_9_GNP
   45    47     1     0     1
SMALL
NO_CHARGES


@<TRIPOS>ATOM
      1 PG        187.3800  115.0270  116.9860 P.3       1 GNP1001     0.0000 
      2 O1G       186.5140  115.3050  115.8270 O.co2     1 GNP1001     0.0000 
      3 O2G       186.5400  114.6520  118.1370 O.co2     1 GNP1001     0.0000 
      4 O3G       188.1940  116.2150  117.3100 O.co2     1 GNP1001     0.0000 
      5 N3B       188.2900  113.8360  116.6180 N.3       1 GNP1001     0.0000 
      6 PB        188.9080  113.8040  115.2490 P.3       1 GNP1001     0.0000 
      7 O1B       187.9630  113.2580  114.2630 O.co2     1 GNP1001     0.0000 
      8 O2B       189.3580  115.1650  114.9240 O.co2     1 GNP1001     0.0000 
      9 O3A       190.1320  112.8410  115.4130 O.3       1 GNP1001     0.0000 
     10 PA        191.5720  113.4750  115.5880 P.3       1 GNP1001     0.0000 
     11 O1A       191.9350  114.2250  114.3800 O.co2     1 GNP1001     0.0000 
     12 O2A       191.5790  114.4090  116.7280 O.co2     1 GNP1001     0.0000 
     13 O5'       192.5890  112.2820  115.8650 O.3       1 GNP1001     0.0000 
     14 C5'       192.1940  111.5280  116.9950 C.3       1 GNP1001     0.0000 
     15 C4'       192.9600  110.2390  117.3090 C.3       1 GNP1001     0.0000 
     16 O4'       192.8610  109.2310  116.2210 O.3       1 GNP1001     0.0000 
     17 C3'       194.4430  110.3820  117.5300 C.3       1 GNP1001     0.0000 
     18 O3'       194.8700  109.2910  118.3530 O.3       1 GNP1001     0.0000 
     19 C2'       194.9490  110.2220  116.1430 C.3       1 GNP1001     0.0000 
     20 O2'       196.3520  109.9910  116.1290 O.3       1 GNP1001     0.0000 
     21 C1'       194.2160  108.9630  115.7520 C.3       1 GNP1001     0.0000 
     22 N9        194.3910  108.7000  114.3140 N.pl3     1 GNP1001     0.0000 
     23 C8        193.6370  109.0480  113.2860 C.2       1 GNP1001     0.0000 
     24 N7        194.2120  108.6000  112.1790 N.2       1 GNP1001     0.0000 
     25 C5        195.3390  107.9960  112.5250 C.2       1 GNP1001     0.0000 
     26 C6        196.2730  107.3980  111.7990 C.2       1 GNP1001     0.0000 
     27 O6        196.1750  107.3240  110.5750 O.2       1 GNP1001     0.0000 
     28 N1        197.3710  106.8350  112.4390 N.am      1 GNP1001     0.0000 
     29 C2        197.4570  106.9220  113.8260 C.2       1 GNP1001     0.0000 
     30 N2        198.4820  106.4080  114.4920 N.pl3     1 GNP1001     0.0000 
     31 N3        196.4900  107.5430  114.4960 N.2       1 GNP1001     0.0000 
     32 C4        195.4480  108.0640  113.8480 C.2       1 GNP1001     0.0000 
     33 HNB3      188.4610  113.0950  117.2480 H         1 GNP1001     0.0000 
     34 H5'2      191.1480  111.2560  116.8880 H         1 GNP1001     0.0000 
     35 H5'1      192.2860  112.1800  117.8380 H         1 GNP1001     0.0000 
     36 H4'       192.5260  109.8980  118.2370 H         1 GNP1001     0.0000 
     37 H3'       194.7050  111.3180  117.9980 H         1 GNP1001     0.0000 
     38 HO3'      195.8530  109.3280  118.4780 H         1 GNP1001     0.0000 
     39 H2'       194.6410  111.0420  115.5240 H         1 GNP1001     0.0000 
     40 HO2'      196.5540  109.1970  116.6950 H         1 GNP1001     0.0000 
     41 H1'       194.6130  108.1130  116.2970 H         1 GNP1001     0.0000 
     42 H8        192.6940  109.5760  113.3410 H         1 GNP1001     0.0000 
     43 HN1       198.0790  106.3790  111.9070 H         1 GNP1001     0.0000 
     44 HN21      199.2180  105.9480  114.0000 H         1 GNP1001     0.0000 
     45 HN22      198.5070  106.4840  115.4900 H         1 GNP1001     0.0000 
@<TRIPOS>BOND
     1    1    2 ar   
     2    1    3 ar   
     3    1    4 ar   
     4    1    5 1    
     5    5    6 1    
     6    5   33 1    
     7    6    7 ar   
     8    6    8 ar   
     9    6    9 1    
    10    9   10 1    
    11   10   11 ar   
    12   10   12 ar   
    13   10   13 1    
    14   13   14 1    
    15   14   15 1    
    16   14   34 1    
    17   14   35 1    
    18   15   16 1    
    19   15   17 1    
    20   15   36 1    
    21   16   21 1    
    22   17   18 1    
    23   17   19 1    
    24   17   37 1    
    25   18   38 1    
    26   19   20 1    
    27   19   21 1    
    28   19   39 1    
    29   20   40 1    
    30   21   22 1    
    31   21   41 1    
    32   22   23 1    
    33   22   32 1    
    34   23   24 2    
    35   23   42 1    
    36   24   25 1    
    37   25   26 1    
    38   25   32 2    
    39   26   27 2    
    40   26   28 am   
    41   28   29 1    
    42   28   43 1    
    43   29   30 1    
    44   29   31 2    
    45   30   44 1    
    46   30   45 1    
    47   31   32 1    
@<TRIPOS>SUBSTRUCTURE
     1 GNP1001     1 GROUP   
@<TRIPOS>SET
ATOM$ORANGE STATIC     ATOMS   COLORGROUP SYSTEM 
20 14 14 15 15 17 17 19 19 21 21 23 23 25 25 26 26 29 \
29 32 32 

