#    Name: 6hz6_1_GNP
#    Modification time : Fri May 22 19:37:55 2020

@<TRIPOS>MOLECULE
6hz6_1_GNP
   45    47     1     0     1
SMALL
NO_CHARGES


@<TRIPOS>ATOM
      1 PG         94.4380   96.3280  107.9890 P.3       1 GNP1001     0.0000 
      2 O1G        93.7060   97.4380  107.3510 O.co2     1 GNP1001     0.0000 
      3 O2G        95.5630   96.8630  108.7690 O.co2     1 GNP1001     0.0000 
      4 O3G        93.5530   95.5530  108.8800 O.co2     1 GNP1001     0.0000 
      5 N3B        94.9480   95.3850  106.8940 N.3       1 GNP1001     0.0000 
      6 PB         95.8540   94.2200  107.2760 P.3       1 GNP1001     0.0000 
      7 O1B        95.0660   93.2060  108.0020 O.co2     1 GNP1001     0.0000 
      8 O2B        96.9940   94.6690  108.0870 O.co2     1 GNP1001     0.0000 
      9 O3A        96.3210   93.6680  105.8550 O.3       1 GNP1001     0.0000 
     10 PA         95.8030   92.2010  105.5120 P.3       1 GNP1001     0.0000 
     11 O1A        94.3400   92.1660  105.7000 O.co2     1 GNP1001     0.0000 
     12 O2A        96.4150   91.2290  106.4400 O.co2     1 GNP1001     0.0000 
     13 O5'        96.1600   91.8420  103.9810 O.3       1 GNP1001     0.0000 
     14 C5'        95.2690   92.3760  103.0030 C.3       1 GNP1001     0.0000 
     15 C4'        95.4830   91.8500  101.5800 C.3       1 GNP1001     0.0000 
     16 O4'        96.9380   91.9060  101.3890 O.3       1 GNP1001     0.0000 
     17 C3'        95.1000   90.3970  101.3600 C.3       1 GNP1001     0.0000 
     18 O3'        94.7450   90.1920   99.9890 O.3       1 GNP1001     0.0000 
     19 C2'        96.4020   89.7280  101.6410 C.3       1 GNP1001     0.0000 
     20 O2'        96.4190   88.4020  101.1060 O.3       1 GNP1001     0.0000 
     21 C1'        97.3070   90.6240  100.8540 C.3       1 GNP1001     0.0000 
     22 N9         98.6860   90.2550  101.1150 N.pl3     1 GNP1001     0.0000 
     23 C8         99.4070   90.7160  102.1140 C.2       1 GNP1001     0.0000 
     24 N7        100.6050   90.1510  102.0550 N.2       1 GNP1001     0.0000 
     25 C5        100.6090   89.3290  101.0150 C.2       1 GNP1001     0.0000 
     26 C6        101.5540   88.5360  100.5290 C.2       1 GNP1001     0.0000 
     27 O6        102.6590   88.4760  101.0630 O.2       1 GNP1001     0.0000 
     28 N1        101.2840   87.7640   99.4020 N.am      1 GNP1001     0.0000 
     29 C2        100.0190   87.8520   98.8210 C.2       1 GNP1001     0.0000 
     30 N2         99.6990   87.1450   97.7460 N.pl3     1 GNP1001     0.0000 
     31 N3         99.1130   88.6670   99.3600 N.2       1 GNP1001     0.0000 
     32 C4         99.4130   89.3900  100.4390 C.2       1 GNP1001     0.0000 
     33 HNB3       94.6500   95.4900  105.9560 H         1 GNP1001     0.0000 
     34 H5'2       95.4360   93.4490  103.0040 H         1 GNP1001     0.0000 
     35 H5'1       94.2500   92.1660  103.2710 H         1 GNP1001     0.0000 
     36 H4'        94.8900   92.4550  100.9030 H         1 GNP1001     0.0000 
     37 H3'        94.2900   90.0670  101.9950 H         1 GNP1001     0.0000 
     38 HO3'       94.5830   89.2210   99.8350 H         1 GNP1001     0.0000 
     39 H2'        96.6440   89.7950  102.6810 H         1 GNP1001     0.0000 
     40 HO2'       95.7430   87.8460  101.5810 H         1 GNP1001     0.0000 
     41 H1'        97.0910   90.5920   99.7990 H         1 GNP1001     0.0000 
     42 H8         99.0690   91.4390  102.8390 H         1 GNP1001     0.0000 
     43 HN1       101.9820   87.1600   99.0220 H         1 GNP1001     0.0000 
     44 HN21      100.3650   86.5330   97.3270 H         1 GNP1001     0.0000 
     45 HN22       98.7830   87.2330   97.3580 H         1 GNP1001     0.0000 
@<TRIPOS>BOND
     1    1    2 ar   
     2    1    3 ar   
     3    1    4 ar   
     4    1    5 1    
     5    5    6 1    
     6    5   33 1    
     7    6    7 ar   
     8    6    8 ar   
     9    6    9 1    
    10    9   10 1    
    11   10   11 ar   
    12   10   12 ar   
    13   10   13 1    
    14   13   14 1    
    15   14   15 1    
    16   14   34 1    
    17   14   35 1    
    18   15   16 1    
    19   15   17 1    
    20   15   36 1    
    21   16   21 1    
    22   17   18 1    
    23   17   19 1    
    24   17   37 1    
    25   18   38 1    
    26   19   20 1    
    27   19   21 1    
    28   19   39 1    
    29   20   40 1    
    30   21   22 1    
    31   21   41 1    
    32   22   23 1    
    33   22   32 1    
    34   23   24 2    
    35   23   42 1    
    36   24   25 1    
    37   25   26 1    
    38   25   32 2    
    39   26   27 2    
    40   26   28 am   
    41   28   29 1    
    42   28   43 1    
    43   29   30 1    
    44   29   31 2    
    45   30   44 1    
    46   30   45 1    
    47   31   32 1    
@<TRIPOS>SUBSTRUCTURE
     1 GNP1001     1 GROUP   
@<TRIPOS>SET
ATOM$ORANGE STATIC     ATOMS   COLORGROUP SYSTEM 
20 14 14 15 15 17 17 19 19 21 21 23 23 25 25 26 26 29 \
29 32 32 

