#    Name: 6hz6_2_GNP_CAVITY_N1_6
#    Modification time : Fri May 22 19:38:02 2020

@<TRIPOS>MOLECULE
6hz6_2_GNP_CAVITY_N1_6
   77     0     7     0     0
SMALL
NO_CHARGES


@<TRIPOS>ATOM
      1 OG         69.6500  118.1500   90.8600 O.3       1 SER1        0.0000 
      2 OG         72.6000  116.4100   87.9400 O.3       1 SER1        0.0000 
      3 OG         71.1700  116.7700   92.4500 O.3       1 SER1        0.0000 
      4 OG         74.4400  115.3800   88.1100 O.3       1 SER1        0.0000 
      5 N          66.5800  116.3200   86.5400 N.am      2 ALA2        0.0000 
      6 N          65.8000  117.3800   88.2100 N.am      2 ALA2        0.0000 
      7 N          66.4500  118.0800   85.3600 N.am      2 ALA2        0.0000 
      8 N          65.0200  118.4400   89.8700 N.am      2 ALA2        0.0000 
      9 N          67.6400  116.3400   88.3700 N.am      2 ALA2        0.0000 
     10 N          67.9700  116.6900   86.9500 N.am      2 ALA2        0.0000 
     11 N          68.2900  117.0400   85.5300 N.am      2 ALA2        0.0000 
     12 N          66.8700  117.4000   90.0400 N.am      2 ALA2        0.0000 
     13 N          69.0400  116.7200   88.7800 N.am      2 ALA2        0.0000 
     14 N          68.2600  117.7800   90.4500 N.am      2 ALA2        0.0000 
     15 N          70.4300  117.0900   89.1900 N.am      2 ALA2        0.0000 
     16 N          70.7500  117.4400   87.7700 N.am      2 ALA2        0.0000 
     17 N          69.9800  118.5000   89.4400 N.am      2 ALA2        0.0000 
     18 O          73.8300  113.9400   86.0300 O.2       2 ALA2        0.0000 
     19 O          72.7000  115.3900   94.0400 O.2       2 ALA2        0.0000 
     20 O          73.0200  115.7400   92.6200 O.2       2 ALA2        0.0000 
     21 O          73.6700  116.4400   89.7700 O.2       2 ALA2        0.0000 
     22 O          74.0900  115.7600   94.4500 O.2       2 ALA2        0.0000 
     23 O          73.6400  117.1700   94.6900 O.2       2 ALA2        0.0000 
     24 OD1        65.3800  118.0500   83.5300 O.co2     3 ASP3        0.0000 
     25 OD1        70.2300  114.9900   91.7900 O.co2     3 ASP3        0.0000 
     26 OD1        69.7800  116.3900   92.0400 O.co2     3 ASP3        0.0000 
     27 OD1        71.3000  115.0100   93.6300 O.co2     3 ASP3        0.0000 
     28 OD1        70.8500  116.4200   93.8700 O.co2     3 ASP3        0.0000 
     29 OD1        72.3700  115.0400   95.4600 O.co2     3 ASP3        0.0000 
     30 OD1        71.9200  116.4500   95.7000 O.co2     3 ASP3        0.0000 
     31 OD1        72.2400  116.8000   94.2800 O.co2     3 ASP3        0.0000 
     32 OD1        73.3100  116.8200   96.1100 O.co2     3 ASP3        0.0000 
     33 NZ         65.5100  116.2900   84.7100 N.4       4 LYS4        0.0000 
     34 NZ         65.8300  116.6400   83.2900 N.4       4 LYS4        0.0000 
     35 NZ         66.0500  113.8600   90.5600 N.4       4 LYS4        0.0000 
     36 NZ         67.0300  114.9100   86.3000 N.4       4 LYS4        0.0000 
     37 NZ         65.9300  115.6200   89.3900 N.4       4 LYS4        0.0000 
     38 NZ         66.9000  116.6700   85.1200 N.4       4 LYS4        0.0000 
     39 NZ         67.4500  114.2300   90.9700 N.4       4 LYS4        0.0000 
     40 NZ         68.7400  115.6300   85.2900 N.4       4 LYS4        0.0000 
     41 NZ         67.3200  115.9900   89.8000 N.4       4 LYS4        0.0000 
     42 NZ         68.8400  114.6100   91.3800 N.4       4 LYS4        0.0000 
     43 NZ         68.7100  116.3700   90.2100 N.4       4 LYS4        0.0000 
     44 CZ         66.3800  114.2100   89.1400 C.ar      5 PHE5        0.0000 
     45 CZ         66.7000  114.5600   87.7200 C.ar      5 PHE5        0.0000 
     46 CZ         67.2200  117.0200   83.7000 C.ar      5 PHE5        0.0000 
     47 CZ         67.7700  114.5800   89.5500 C.ar      5 PHE5        0.0000 
     48 CZ         68.1000  114.9300   88.1300 C.ar      5 PHE5        0.0000 
     49 CZ         68.4200  115.2800   86.7100 C.ar      5 PHE5        0.0000 
     50 CZ         68.6200  117.3900   84.1100 C.ar      5 PHE5        0.0000 
     51 CZ         70.5900  114.6000   85.4500 C.ar      5 PHE5        0.0000 
     52 CZ         69.1600  114.9600   89.9600 C.ar      5 PHE5        0.0000 
     53 CZ         69.4900  115.3100   88.5400 C.ar      5 PHE5        0.0000 
     54 CZ         69.8100  115.6600   87.1200 C.ar      5 PHE5        0.0000 
     55 CZ         70.1400  116.0100   85.7000 C.ar      5 PHE5        0.0000 
     56 CZ         71.6600  114.6300   87.2800 C.ar      5 PHE5        0.0000 
     57 CZ         71.9800  114.9800   85.8600 C.ar      5 PHE5        0.0000 
     58 CZ         70.5600  115.3400   90.3700 C.ar      5 PHE5        0.0000 
     59 CZ         70.8800  115.6900   88.9500 C.ar      5 PHE5        0.0000 
     60 CZ         71.2100  116.0400   87.5300 C.ar      5 PHE5        0.0000 
     61 CZ         71.5300  116.3900   86.1100 C.ar      5 PHE5        0.0000 
     62 CZ         73.5000  113.5900   87.4500 C.ar      5 PHE5        0.0000 
     63 CZ         73.0500  115.0000   87.7000 C.ar      5 PHE5        0.0000 
     64 CZ         73.3800  115.3500   86.2700 C.ar      5 PHE5        0.0000 
     65 CZ         72.1500  117.8200   88.1800 C.ar      5 PHE5        0.0000 
     66 CA         64.0800  116.6500   89.2200 C.3       6 GLY6        0.0000 
     67 CA         65.4700  117.0300   89.6300 C.3       6 GLY6        0.0000 
     68 CA         72.4400  113.5700   85.6200 C.3       6 GLY6        0.0000 
     69 CA         71.6300  115.3600   92.2100 C.3       6 GLY6        0.0000 
     70 CA         71.9500  115.7100   90.7800 C.3       6 GLY6        0.0000 
     71 CA         72.2800  116.0600   89.3600 C.3       6 GLY6        0.0000 
     72 CA         71.5000  117.1200   91.0300 C.3       6 GLY6        0.0000 
     73 CA         71.8200  117.4700   89.6100 C.3       6 GLY6        0.0000 
     74 CA         72.5700  117.1500   92.8600 C.3       6 GLY6        0.0000 
     75 CA         72.8900  117.5000   91.4400 C.3       6 GLY6        0.0000 
     76 DU         66.2500  115.9700   87.9600 H         7 CUB7        0.0000 
     77 DU         70.1100  116.7400   90.6200 H         7 CUB7        0.0000 
@<TRIPOS>BOND
@<TRIPOS>SUBSTRUCTURE
     1 SER1        1 GROUP   
     2 ALA2        5 GROUP   
     3 ASP3       24 GROUP   
     4 LYS4       33 GROUP   
     5 PHE5       44 GROUP   
     6 GLY6       66 GROUP   
     7 CUB7       76 GROUP   
@<TRIPOS>SET

