#    Name: 6hz6_5_GDP
#    Modification time : Fri May 22 19:38:15 2020

@<TRIPOS>MOLECULE
6hz6_5_GDP
   40    42     1     0     1
SMALL
NO_CHARGES


@<TRIPOS>ATOM
      1 PB         95.5190  115.4290  157.1040 P.3       1 GDP1001     0.0000 
      2 O1B        95.7940  114.1820  156.3590 O.co2     1 GDP1001     0.0000 
      3 O2B        96.2680  116.5480  156.4920 O.co2     1 GDP1001     0.0000 
      4 O3B        94.0690  115.7130  157.0740 O.co2     1 GDP1001     0.0000 
      5 O3A        95.9820  115.2650  158.6240 O.3       1 GDP1001     0.0000 
      6 PA         95.8950  116.5470  159.5700 P.3       1 GDP1001     0.0000 
      7 O1A        96.6060  117.6780  158.9330 O.co2     1 GDP1001     0.0000 
      8 O2A        94.4730  116.9110  159.7690 O.co2     1 GDP1001     0.0000 
      9 O5'        96.5780  116.2340  161.0050 O.3       1 GDP1001     0.0000 
     10 C5'        95.8770  115.5000  162.0170 C.3       1 GDP1001     0.0000 
     11 C4'        96.8910  114.9130  163.0290 C.3       1 GDP1001     0.0000 
     12 O4'        97.7200  115.9910  163.6200 O.3       1 GDP1001     0.0000 
     13 C3'        96.2540  114.2550  164.2440 C.3       1 GDP1001     0.0000 
     14 O3'        97.2270  113.3920  164.8810 O.3       1 GDP1001     0.0000 
     15 C2'        95.9610  115.4700  165.0900 C.3       1 GDP1001     0.0000 
     16 O2'        95.5980  115.1160  166.4360 O.3       1 GDP1001     0.0000 
     17 C1'        97.3120  116.1370  165.0360 C.3       1 GDP1001     0.0000 
     18 N9         97.2130  117.5240  165.5090 N.pl3     1 GDP1001     0.0000 
     19 C8         97.1500  118.6000  164.7480 C.2       1 GDP1001     0.0000 
     20 N7         97.0530  119.6600  165.5410 N.2       1 GDP1001     0.0000 
     21 C5         97.0370  119.2300  166.7970 C.2       1 GDP1001     0.0000 
     22 C6         96.9450  119.8820  167.9520 C.2       1 GDP1001     0.0000 
     23 O6         96.8650  121.1080  167.9710 O.2       1 GDP1001     0.0000 
     24 N1         96.9560  119.1660  169.1530 N.am      1 GDP1001     0.0000 
     25 C2         97.0560  117.7730  169.0920 C.2       1 GDP1001     0.0000 
     26 N2         97.0690  117.0140  170.1850 N.pl3     1 GDP1001     0.0000 
     27 N3         97.1340  117.1890  167.8970 N.2       1 GDP1001     0.0000 
     28 C4         97.1340  117.9050  166.7720 C.2       1 GDP1001     0.0000 
     29 H5'        95.3480  114.6800  161.5380 H         1 GDP1001     0.0000 
     30 H5''       95.1510  116.1620  162.4620 H         1 GDP1001     0.0000 
     31 H4'        97.4640  114.1760  162.4700 H         1 GDP1001     0.0000 
     32 H3'        95.3630  113.6820  163.9970 H         1 GDP1001     0.0000 
     33 HO3'       98.1610  113.7190  164.7390 H         1 GDP1001     0.0000 
     34 H2'        95.2150  116.1020  164.6510 H         1 GDP1001     0.0000 
     35 HO2'       96.3130  114.5380  166.8380 H         1 GDP1001     0.0000 
     36 H1'        98.0120  115.5940  165.6610 H         1 GDP1001     0.0000 
     37 H8         97.1960  118.6050  163.6680 H         1 GDP1001     0.0000 
     38 HN1        96.8900  119.6410  170.0310 H         1 GDP1001     0.0000 
     39 HN21       97.0020  117.4290  171.0920 H         1 GDP1001     0.0000 
     40 HN22       97.1470  116.0180  170.0910 H         1 GDP1001     0.0000 
@<TRIPOS>BOND
     1    1    2 ar   
     2    1    3 ar   
     3    1    4 ar   
     4    1    5 1    
     5    5    6 1    
     6    6    7 ar   
     7    6    8 ar   
     8    6    9 1    
     9    9   10 1    
    10   10   11 1    
    11   10   29 1    
    12   10   30 1    
    13   11   12 1    
    14   11   13 1    
    15   11   31 1    
    16   12   17 1    
    17   13   14 1    
    18   13   15 1    
    19   13   32 1    
    20   14   33 1    
    21   15   16 1    
    22   15   17 1    
    23   15   34 1    
    24   16   35 1    
    25   17   18 1    
    26   17   36 1    
    27   18   19 1    
    28   18   28 1    
    29   19   20 2    
    30   19   37 1    
    31   20   21 1    
    32   21   22 1    
    33   21   28 2    
    34   22   23 2    
    35   22   24 am   
    36   24   25 1    
    37   24   38 1    
    38   25   26 1    
    39   25   27 2    
    40   26   39 1    
    41   26   40 1    
    42   27   28 1    
@<TRIPOS>SUBSTRUCTURE
     1 GDP1001     1 GROUP   
@<TRIPOS>SET
ATOM$ORANGE STATIC     ATOMS   COLORGROUP SYSTEM 
20 10 10 11 11 13 13 15 15 17 17 19 19 21 21 22 22 25 \
25 28 28 

