#    Name: 6hz6_11_GDP_CAVITY_N1_6
#    Modification time : Fri May 22 19:38:56 2020

@<TRIPOS>MOLECULE
6hz6_11_GDP_CAVITY_N1_6
  178     0     7     0     0
SMALL
NO_CHARGES


@<TRIPOS>ATOM
      1 OG        151.1800  136.6500  153.5700 O.3       1 SER1        0.0000 
      2 OG        152.2500  136.6800  155.4000 O.3       1 SER1        0.0000 
      3 OG        152.5400  137.7700  158.9000 O.3       1 SER1        0.0000 
      4 OG        151.7700  138.8200  160.5600 O.3       1 SER1        0.0000 
      5 OG        154.0000  132.5100  164.2700 O.3       1 SER1        0.0000 
      6 OG        154.5200  134.9700  160.2400 O.3       1 SER1        0.0000 
      7 OG        154.3900  136.7300  159.0700 O.3       1 SER1        0.0000 
      8 OG        153.9400  138.1400  159.3100 O.3       1 SER1        0.0000 
      9 OG        152.8300  138.8500  162.4000 O.3       1 SER1        0.0000 
     10 OG        153.1600  139.2000  160.9800 O.3       1 SER1        0.0000 
     11 OG        153.4800  139.5500  159.5500 O.3       1 SER1        0.0000 
     12 OG        153.0300  140.9600  159.8000 O.3       1 SER1        0.0000 
     13 OG        155.5200  131.1300  165.8500 O.3       1 SER1        0.0000 
     14 OG        154.4800  135.7100  165.1600 O.3       1 SER1        0.0000 
     15 OG        154.8100  136.0600  163.7400 O.3       1 SER1        0.0000 
     16 OG        155.4600  136.7600  160.9000 O.3       1 SER1        0.0000 
     17 OG        155.7800  137.1100  159.4800 O.3       1 SER1        0.0000 
     18 OG        154.3600  137.4700  163.9900 O.3       1 SER1        0.0000 
     19 OG        154.6800  137.8200  162.5600 O.3       1 SER1        0.0000 
     20 OG        155.0000  138.1700  161.1400 O.3       1 SER1        0.0000 
     21 OG        154.8800  139.9300  159.9600 O.3       1 SER1        0.0000 
     22 OG        158.4000  135.0200  157.9800 O.3       1 SER1        0.0000 
     23 OG        157.6300  136.0700  159.6400 O.3       1 SER1        0.0000 
     24 OG        157.9500  136.4200  158.2200 O.3       1 SER1        0.0000 
     25 OG        156.5300  136.7800  162.7300 O.3       1 SER1        0.0000 
     26 N         152.5800  137.0300  153.9800 N.am      2 ALA2        0.0000 
     27 N         152.1200  138.4400  154.2200 N.am      2 ALA2        0.0000 
     28 N         151.6700  139.8500  154.4700 N.am      2 ALA2        0.0000 
     29 O         154.1000  135.6500  155.5700 O.2       2 ALA2        0.0000 
     30 O         153.6400  137.0600  155.8100 O.2       2 ALA2        0.0000 
     31 N         153.9700  137.4100  154.3900 N.am      2 ALA2        0.0000 
     32 N         153.1900  138.4700  156.0500 N.am      2 ALA2        0.0000 
     33 N         151.4400  138.4700  161.9900 N.am      2 ALA2        0.0000 
     34 O         155.2900  133.9100  158.5800 O.2       2 ALA2        0.0000 
     35 O         155.6200  134.2600  157.1600 O.2       2 ALA2        0.0000 
     36 O         155.1600  135.6700  157.4000 O.2       2 ALA2        0.0000 
     37 O         155.4900  136.0200  155.9800 O.2       2 ALA2        0.0000 
     38 N         151.9300  141.6700  162.8900 N.am      2 ALA2        0.0000 
     39 O         156.6900  134.2900  158.9900 O.2       2 ALA2        0.0000 
     40 O         156.2300  135.7000  159.2300 O.2       2 ALA2        0.0000 
     41 N         153.5100  134.6600  169.4300 N.am      2 ALA2        0.0000 
     42 N         153.8300  135.0100  168.0100 N.am      2 ALA2        0.0000 
     43 N         154.1600  135.3600  166.5900 N.am      2 ALA2        0.0000 
     44 N         154.0300  137.1200  165.4100 N.am      2 ALA2        0.0000 
     45 N         154.2300  139.2300  162.8100 N.am      2 ALA2        0.0000 
     46 N         153.7800  140.6400  163.0500 N.am      2 ALA2        0.0000 
     47 N         153.3200  142.0400  163.3000 N.am      2 ALA2        0.0000 
     48 O         158.0800  134.6700  159.4000 O.2       2 ALA2        0.0000 
     49 N         155.0300  133.2700  171.0200 N.am      2 ALA2        0.0000 
     50 N         154.9000  135.0300  169.8400 N.am      2 ALA2        0.0000 
     51 N         155.2300  135.3800  168.4200 N.am      2 ALA2        0.0000 
     52 N         155.5500  135.7300  167.0000 N.am      2 ALA2        0.0000 
     53 N         154.4500  136.4400  170.0800 N.am      2 ALA2        0.0000 
     54 N         154.7800  136.7900  168.6600 N.am      2 ALA2        0.0000 
     55 N         155.1000  137.1400  167.2400 N.am      2 ALA2        0.0000 
     56 N         155.4200  137.4900  165.8200 N.am      2 ALA2        0.0000 
     57 N         154.0000  137.8500  170.3300 N.am      2 ALA2        0.0000 
     58 N         154.3200  138.2000  168.9100 N.am      2 ALA2        0.0000 
     59 N         154.6500  138.5500  167.4800 N.am      2 ALA2        0.0000 
     60 N         154.9700  138.9000  166.0600 N.am      2 ALA2        0.0000 
     61 N         155.3000  139.2500  164.6400 N.am      2 ALA2        0.0000 
     62 O         158.6900  136.1000  161.4700 O.2       2 ALA2        0.0000 
     63 OD1       151.0200  139.1500  157.3100 O.co2     3 ASP3        0.0000 
     64 OD1       151.3500  139.5000  155.8900 O.co2     3 ASP3        0.0000 
     65 OD1       152.0900  139.1700  159.1400 O.co2     3 ASP3        0.0000 
     66 OD1       152.4200  139.5200  157.7200 O.co2     3 ASP3        0.0000 
     67 OD1       151.3100  140.2300  160.8100 O.co2     3 ASP3        0.0000 
     68 OD1       151.6400  140.5800  159.3900 O.co2     3 ASP3        0.0000 
     69 OD1       152.2900  141.2800  156.5400 O.co2     3 ASP3        0.0000 
     70 OD1       155.9400  134.6100  155.7300 O.co2     3 ASP3        0.0000 
     71 OD1       156.2700  134.9600  154.3100 O.co2     3 ASP3        0.0000 
     72 OD1       155.8100  136.3700  154.5600 O.co2     3 ASP3        0.0000 
     73 OD1       157.0100  134.6400  157.5700 O.co2     3 ASP3        0.0000 
     74 OD1       157.3300  134.9900  156.1400 O.co2     3 ASP3        0.0000 
     75 OD1       157.6600  135.3400  154.7200 O.co2     3 ASP3        0.0000 
     76 OD1       156.8800  136.4000  156.3900 O.co2     3 ASP3        0.0000 
     77 OD1       156.4300  137.8100  156.6300 O.co2     3 ASP3        0.0000 
     78 OD1       157.1700  137.4800  159.8900 O.co2     3 ASP3        0.0000 
     79 OD1       157.5000  137.8300  158.4600 O.co2     3 ASP3        0.0000 
     80 OD1       157.8200  138.1800  157.0400 O.co2     3 ASP3        0.0000 
     81 OD1       157.0500  139.2400  158.7100 O.co2     3 ASP3        0.0000 
     82 OD1       157.3700  135.4300  172.0800 O.co2     3 ASP3        0.0000 
     83 NZ        152.7400  139.8700  156.3000 N.4       4 LYS4        0.0000 
     84 NZ        154.2600  138.4900  157.8900 N.4       4 LYS4        0.0000 
     85 NZ        154.5800  138.8400  156.4700 N.4       4 LYS4        0.0000 
     86 NZ        153.8100  139.9000  158.1300 N.4       4 LYS4        0.0000 
     87 NZ        155.6500  138.8700  158.3000 N.4       4 LYS4        0.0000 
     88 NZ        154.5500  139.5800  161.3900 N.4       4 LYS4        0.0000 
     89 NZ        155.2000  140.2800  158.5400 N.4       4 LYS4        0.0000 
     90 NZ        156.8500  137.1300  161.3100 N.4       4 LYS4        0.0000 
     91 NZ        156.0700  138.1900  162.9700 N.4       4 LYS4        0.0000 
     92 NZ        156.4000  138.5400  161.5500 N.4       4 LYS4        0.0000 
     93 NZ        156.7200  138.8900  160.1300 N.4       4 LYS4        0.0000 
     94 NZ        157.3700  139.5900  157.2900 N.4       4 LYS4        0.0000 
     95 NZ        155.6200  139.6000  163.2200 N.4       4 LYS4        0.0000 
     96 NZ        156.2700  140.3000  160.3700 N.4       4 LYS4        0.0000 
     97 NZ        156.5900  140.6500  158.9500 N.4       4 LYS4        0.0000 
     98 NZ        155.1700  141.0100  163.4600 N.4       4 LYS4        0.0000 
     99 NZ        155.6500  134.7100  173.0900 N.4       4 LYS4        0.0000 
    100 NZ        158.2400  137.5100  161.7200 N.4       4 LYS4        0.0000 
    101 NZ        157.1400  138.2200  164.8100 N.4       4 LYS4        0.0000 
    102 NZ        156.6900  139.6300  165.0500 N.4       4 LYS4        0.0000 
    103 NZ        157.0400  135.0800  173.5000 N.4       4 LYS4        0.0000 
    104 NZ        158.5300  138.5900  165.2200 N.4       4 LYS4        0.0000 
    105 CZ        150.4100  137.7100  155.2300 C.ar      5 PHE5        0.0000 
    106 CZ        151.1500  137.3900  158.4900 C.ar      5 PHE5        0.0000 
    107 CZ        151.4700  137.7400  157.0700 C.ar      5 PHE5        0.0000 
    108 CZ        151.8000  138.0900  155.6400 C.ar      5 PHE5        0.0000 
    109 CZ        150.3700  138.4500  160.1500 C.ar      5 PHE5        0.0000 
    110 CZ        150.7000  138.8000  158.7300 C.ar      5 PHE5        0.0000 
    111 CZ        153.6700  132.1600  165.6900 C.ar      5 PHE5        0.0000 
    112 CZ        153.2200  133.5700  165.9300 C.ar      5 PHE5        0.0000 
    113 CZ        152.7100  140.6100  161.2200 C.ar      5 PHE5        0.0000 
    114 CZ        151.4800  143.0800  163.1300 C.ar      5 PHE5        0.0000 
    115 CZ        154.7400  132.1900  167.5200 C.ar      5 PHE5        0.0000 
    116 CZ        155.0600  132.5400  166.1000 C.ar      5 PHE5        0.0000 
    117 CZ        153.6400  132.9000  170.6100 C.ar      5 PHE5        0.0000 
    118 CZ        153.9600  133.2500  169.1900 C.ar      5 PHE5        0.0000 
    119 CZ        154.2900  133.6000  167.7600 C.ar      5 PHE5        0.0000 
    120 CZ        154.6100  133.9500  166.3400 C.ar      5 PHE5        0.0000 
    121 CZ        153.1900  134.3100  170.8500 C.ar      5 PHE5        0.0000 
    122 CZ        154.1000  140.9900  161.6300 C.ar      5 PHE5        0.0000 
    123 CZ        155.3600  133.6200  169.6000 C.ar      5 PHE5        0.0000 
    124 CZ        155.6800  133.9700  168.1700 C.ar      5 PHE5        0.0000 
    125 CZ        156.0000  134.3200  166.7500 C.ar      5 PHE5        0.0000 
    126 CZ        156.3300  134.6700  165.3300 C.ar      5 PHE5        0.0000 
    127 CZ        154.2500  134.3300  172.6800 C.ar      5 PHE5        0.0000 
    128 CZ        154.5800  134.6800  171.2600 C.ar      5 PHE5        0.0000 
    129 CZ        155.8800  136.0800  165.5700 C.ar      5 PHE5        0.0000 
    130 CZ        153.8000  135.7400  172.9300 C.ar      5 PHE5        0.0000 
    131 CZ        154.1300  136.0900  171.5100 C.ar      5 PHE5        0.0000 
    132 CZ        153.6700  137.5000  171.7500 C.ar      5 PHE5        0.0000 
    133 CZ        154.7200  142.4200  163.7100 C.ar      5 PHE5        0.0000 
    134 CZ        156.3000  135.4100  170.2500 C.ar      5 PHE5        0.0000 
    135 CZ        156.6200  135.7600  168.8300 C.ar      5 PHE5        0.0000 
    136 CZ        156.9500  136.1100  167.4100 C.ar      5 PHE5        0.0000 
    137 CZ        157.2700  136.4600  165.9800 C.ar      5 PHE5        0.0000 
    138 CZ        156.1700  137.1700  169.0700 C.ar      5 PHE5        0.0000 
    139 CZ        156.4900  137.5200  167.6500 C.ar      5 PHE5        0.0000 
    140 CZ        156.8200  137.8700  166.2300 C.ar      5 PHE5        0.0000 
    141 CZ        157.6900  135.7800  170.6600 C.ar      5 PHE5        0.0000 
    142 CZ        158.2100  138.2400  166.6400 C.ar      5 PHE5        0.0000 
    143 CA        151.9300  136.3300  156.8200 C.3       6 GLY6        0.0000 
    144 CA        154.4200  136.0000  154.1500 C.3       6 GLY6        0.0000 
    145 CA        153.3200  136.7100  157.2300 C.3       6 GLY6        0.0000 
    146 CA        150.9900  139.8800  162.2300 C.3       6 GLY6        0.0000 
    147 CA        150.5400  141.2900  162.4700 C.3       6 GLY6        0.0000 
    148 CA        153.5400  133.9200  164.5100 C.3       6 GLY6        0.0000 
    149 CA        154.8400  135.3200  158.8200 C.3       6 GLY6        0.0000 
    150 CA        153.0900  135.3300  164.7500 C.3       6 GLY6        0.0000 
    151 CA        155.3600  137.7800  154.8000 C.3       6 GLY6        0.0000 
    152 CA        155.3900  132.8900  164.6800 C.3       6 GLY6        0.0000 
    153 CA        154.9400  134.3000  164.9200 C.3       6 GLY6        0.0000 
    154 CA        155.2600  134.6500  163.5000 C.3       6 GLY6        0.0000 
    155 CA        155.5800  135.0000  162.0800 C.3       6 GLY6        0.0000 
    156 CA        155.9100  135.3500  160.6500 C.3       6 GLY6        0.0000 
    157 CA        154.7100  132.9200  172.4400 C.3       6 GLY6        0.0000 
    158 CA        156.6500  135.0200  163.9100 C.3       6 GLY6        0.0000 
    159 CA        156.9800  135.3700  162.4900 C.3       6 GLY6        0.0000 
    160 CA        157.3000  135.7200  161.0600 C.3       6 GLY6        0.0000 
    161 CA        156.2000  136.4300  164.1500 C.3       6 GLY6        0.0000 
    162 CA        155.4900  141.3600  162.0400 C.3       6 GLY6        0.0000 
    163 CA        156.4200  133.6500  171.4300 C.3       6 GLY6        0.0000 
    164 CA        157.5900  136.8100  164.5600 C.3       6 GLY6        0.0000 
    165 CA        157.9200  137.1600  163.1400 C.3       6 GLY6        0.0000 
    166 CA        158.9900  137.1900  164.9700 C.3       6 GLY6        0.0000 
    167 CA        159.3100  137.5400  163.5500 C.3       6 GLY6        0.0000 
    168 CA        160.7000  137.9100  163.9600 C.3       6 GLY6        0.0000 
    169 DU        152.8700  138.1200  157.4800 H         7 CUB7        0.0000 
    170 DU        154.7100  137.0800  157.6400 H         7 CUB7        0.0000 
    171 DU        155.0400  137.4300  156.2200 H         7 CUB7        0.0000 
    172 DU        156.5600  136.0500  157.8100 H         7 CUB7        0.0000 
    173 DU        156.1100  137.4600  158.0500 H         7 CUB7        0.0000 
    174 DU        155.3300  138.5200  159.7200 H         7 CUB7        0.0000 
    175 DU        155.7500  137.8400  164.4000 H         7 CUB7        0.0000 
    176 DU        155.9700  135.0600  171.6700 H         7 CUB7        0.0000 
    177 DU        155.5200  136.4700  171.9200 H         7 CUB7        0.0000 
    178 DU        155.8400  136.8200  170.4900 H         7 CUB7        0.0000 
@<TRIPOS>BOND
@<TRIPOS>SUBSTRUCTURE
     1 SER1        1 GROUP   
     2 ALA2       26 GROUP   
     3 ASP3       63 GROUP   
     4 LYS4       83 GROUP   
     5 PHE5      105 GROUP   
     6 GLY6      143 GROUP   
     7 CUB7      169 GROUP   
@<TRIPOS>SET

