#    Name: 6hz6_12_GDP
#    Modification time : Fri May 22 19:39:01 2020

@<TRIPOS>MOLECULE
6hz6_12_GDP
   40    42     1     0     1
SMALL
NO_CHARGES


@<TRIPOS>ATOM
      1 PB        146.5140  160.8950  136.8460 P.3       1 GDP1001     0.0000 
      2 O1B       146.2390  160.9840  135.3970 O.co2     1 GDP1001     0.0000 
      3 O2B       146.1070  159.5600  137.3290 O.co2     1 GDP1001     0.0000 
      4 O3B       147.9580  161.0850  137.0940 O.co2     1 GDP1001     0.0000 
      5 O3A       145.6910  162.0420  137.6060 O.3       1 GDP1001     0.0000 
      6 PA        145.0810  161.7920  139.0690 P.3       1 GDP1001     0.0000 
      7 O1A       144.4370  160.4620  139.1520 O.co2     1 GDP1001     0.0000 
      8 O2A       146.1710  161.8880  140.0580 O.co2     1 GDP1001     0.0000 
      9 O5'       143.9870  162.9260  139.3890 O.3       1 GDP1001     0.0000 
     10 C5'       143.5280  163.8320  138.3870 C.3       1 GDP1001     0.0000 
     11 C4'       142.6100  164.9330  138.9540 C.3       1 GDP1001     0.0000 
     12 O4'       141.3500  164.3070  139.3850 O.3       1 GDP1001     0.0000 
     13 C3'       143.1700  165.5800  140.2240 C.3       1 GDP1001     0.0000 
     14 O3'       142.7430  166.9490  140.3120 O.3       1 GDP1001     0.0000 
     15 C2'       142.4670  164.7600  141.2750 C.3       1 GDP1001     0.0000 
     16 O2'       142.5250  165.3950  142.5500 O.3       1 GDP1001     0.0000 
     17 C1'       141.0800  164.8020  140.7120 C.3       1 GDP1001     0.0000 
     18 N9        140.1990  163.9240  141.4780 N.pl3     1 GDP1001     0.0000 
     19 C8        140.1400  162.6130  141.3280 C.2       1 GDP1001     0.0000 
     20 N7        139.2480  162.1370  142.1880 N.2       1 GDP1001     0.0000 
     21 C5        138.7710  163.1630  142.8820 C.2       1 GDP1001     0.0000 
     22 C6        137.8720  163.2160  143.8550 C.2       1 GDP1001     0.0000 
     23 O6        137.3310  162.1890  144.2570 O.2       1 GDP1001     0.0000 
     24 N1        137.5500  164.4520  144.4210 N.am      1 GDP1001     0.0000 
     25 C2        138.1960  165.5940  143.9360 C.2       1 GDP1001     0.0000 
     26 N2        137.9450  166.8050  144.4190 N.pl3     1 GDP1001     0.0000 
     27 N3        139.0940  165.4660  142.9610 N.2       1 GDP1001     0.0000 
     28 C4        139.3600  164.2700  142.4360 C.2       1 GDP1001     0.0000 
     29 H5'       142.9880  163.2710  137.6330 H         1 GDP1001     0.0000 
     30 H5''      144.3960  164.3060  137.9350 H         1 GDP1001     0.0000 
     31 H4'       142.4930  165.6910  138.1860 H         1 GDP1001     0.0000 
     32 H3'       144.2550  165.5430  140.2830 H         1 GDP1001     0.0000 
     33 HO3'      143.1430  167.4720  139.5620 H         1 GDP1001     0.0000 
     34 H2'       142.8200  163.7450  141.2800 H         1 GDP1001     0.0000 
     35 HO2'      142.1700  166.3270  142.4790 H         1 GDP1001     0.0000 
     36 H1'       140.6890  165.8130  140.6720 H         1 GDP1001     0.0000 
     37 H8        140.7100  162.0380  140.6090 H         1 GDP1001     0.0000 
     38 HN1       136.8750  164.5130  145.1550 H         1 GDP1001     0.0000 
     39 HN21      137.2790  166.9370  145.1520 H         1 GDP1001     0.0000 
     40 HN22      138.4350  167.5900  144.0360 H         1 GDP1001     0.0000 
@<TRIPOS>BOND
     1    1    2 ar   
     2    1    3 ar   
     3    1    4 ar   
     4    1    5 1    
     5    5    6 1    
     6    6    7 ar   
     7    6    8 ar   
     8    6    9 1    
     9    9   10 1    
    10   10   11 1    
    11   10   29 1    
    12   10   30 1    
    13   11   12 1    
    14   11   13 1    
    15   11   31 1    
    16   12   17 1    
    17   13   14 1    
    18   13   15 1    
    19   13   32 1    
    20   14   33 1    
    21   15   16 1    
    22   15   17 1    
    23   15   34 1    
    24   16   35 1    
    25   17   18 1    
    26   17   36 1    
    27   18   19 1    
    28   18   28 1    
    29   19   20 2    
    30   19   37 1    
    31   20   21 1    
    32   21   22 1    
    33   21   28 2    
    34   22   23 2    
    35   22   24 am   
    36   24   25 1    
    37   24   38 1    
    38   25   26 1    
    39   25   27 2    
    40   26   39 1    
    41   26   40 1    
    42   27   28 1    
@<TRIPOS>SUBSTRUCTURE
     1 GDP1001     1 GROUP   
@<TRIPOS>SET
ATOM$ORANGE STATIC     ATOMS   COLORGROUP SYSTEM 
20 10 10 11 11 13 13 15 15 17 17 19 19 21 21 22 22 25 \
25 28 28 

