#    Name: 6hz6_10_GDP_CAVITY_N1_6
#    Modification time : Fri May 22 19:38:48 2020

@<TRIPOS>MOLECULE
6hz6_10_GDP_CAVITY_N1_6
  164     0     7     0     0
SMALL
NO_CHARGES


@<TRIPOS>ATOM
      1 OG        172.3400  112.5300  147.7100 O.3       1 SER1        0.0000 
      2 OG        176.3300  111.5500  151.5400 O.3       1 SER1        0.0000 
      3 OG        175.5500  112.6000  153.2000 O.3       1 SER1        0.0000 
      4 OG        175.1000  114.0100  153.4500 O.3       1 SER1        0.0000 
      5 OG        175.4200  114.3600  152.0300 O.3       1 SER1        0.0000 
      6 OG        178.4900  110.8600  150.2800 O.3       1 SER1        0.0000 
      7 OG        178.8200  111.2100  148.8600 O.3       1 SER1        0.0000 
      8 OG        179.4700  111.9100  146.0200 O.3       1 SER1        0.0000 
      9 OG        179.7900  112.2600  144.5900 O.3       1 SER1        0.0000 
     10 OG        177.7200  111.9200  151.9500 O.3       1 SER1        0.0000 
     11 OG        178.6900  112.9700  147.6800 O.3       1 SER1        0.0000 
     12 OG        179.0200  113.3200  146.2600 O.3       1 SER1        0.0000 
     13 OG        179.3400  113.6700  144.8400 O.3       1 SER1        0.0000 
     14 OG        177.2700  113.3300  152.1900 O.3       1 SER1        0.0000 
     15 OG        182.1500  104.1900  149.4700 O.3       1 SER1        0.0000 
     16 OG        181.3700  105.2500  151.1400 O.3       1 SER1        0.0000 
     17 OG        181.7000  105.6000  149.7200 O.3       1 SER1        0.0000 
     18 OG        180.9200  106.6600  151.3800 O.3       1 SER1        0.0000 
     19 OG        180.7900  108.4200  150.2100 O.3       1 SER1        0.0000 
     20 OG        180.3400  109.8300  150.4500 O.3       1 SER1        0.0000 
     21 OG        179.5600  110.8900  152.1100 O.3       1 SER1        0.0000 
     22 OG        179.8900  111.2400  150.6900 O.3       1 SER1        0.0000 
     23 OG        180.5400  111.9400  147.8500 O.3       1 SER1        0.0000 
     24 OG        180.0800  113.3500  148.0900 O.3       1 SER1        0.0000 
     25 OG        181.8600  108.4500  152.0400 O.3       1 SER1        0.0000 
     26 OG        181.4100  109.8500  152.2800 O.3       1 SER1        0.0000 
     27 OG        181.7300  110.2000  150.8600 O.3       1 SER1        0.0000 
     28 O         174.1900  111.4900  147.8700 O.2       2 ALA2        0.0000 
     29 N         173.2800  114.3100  148.3600 N.am      2 ALA2        0.0000 
     30 O         175.9100  112.2200  146.8600 O.2       2 ALA2        0.0000 
     31 O         176.2300  112.5700  145.4400 O.2       2 ALA2        0.0000 
     32 O         177.7500  111.1900  147.0300 O.2       2 ALA2        0.0000 
     33 O         178.0700  111.5400  145.6100 O.2       2 ALA2        0.0000 
     34 N         175.6800  110.8500  154.3800 N.am      2 ALA2        0.0000 
     35 N         176.0000  111.2000  152.9600 N.am      2 ALA2        0.0000 
     36 O         177.3000  112.6000  147.2700 O.2       2 ALA2        0.0000 
     37 O         177.6200  112.9500  145.8500 O.2       2 ALA2        0.0000 
     38 N         175.2200  112.2500  154.6300 N.am      2 ALA2        0.0000 
     39 O         179.1400  111.5600  147.4400 O.2       2 ALA2        0.0000 
     40 N         177.3900  111.5700  153.3700 N.am      2 ALA2        0.0000 
     41 N         176.6200  112.6300  155.0400 N.am      2 ALA2        0.0000 
     42 O         182.6000  102.7800  149.2300 O.2       2 ALA2        0.0000 
     43 N         182.4700  104.5400  148.0500 N.am      2 ALA2        0.0000 
     44 N         180.6000  106.3100  152.8100 N.am      2 ALA2        0.0000 
     45 N         179.1100  112.3000  152.3600 N.am      2 ALA2        0.0000 
     46 N         183.6700  102.8100  151.0600 N.am      2 ALA2        0.0000 
     47 O         183.9900  103.1600  149.6400 O.2       2 ALA2        0.0000 
     48 N         183.2200  104.2200  151.3100 N.am      2 ALA2        0.0000 
     49 N         182.4400  105.2800  152.9700 N.am      2 ALA2        0.0000 
     50 N         183.4100  106.3300  148.7100 N.am      2 ALA2        0.0000 
     51 N         181.9900  106.6900  153.2200 N.am      2 ALA2        0.0000 
     52 N         181.5400  108.1000  153.4600 N.am      2 ALA2        0.0000 
     53 N         180.7600  109.1500  155.1300 N.am      2 ALA2        0.0000 
     54 N         181.0800  109.5000  153.7000 N.am      2 ALA2        0.0000 
     55 N         180.6300  110.9100  153.9500 N.am      2 ALA2        0.0000 
     56 N         180.1800  112.3200  154.1900 N.am      2 ALA2        0.0000 
     57 N         183.9600  103.8900  154.5600 N.am      2 ALA2        0.0000 
     58 N         184.2900  104.2400  153.1400 N.am      2 ALA2        0.0000 
     59 N         183.1800  104.9500  156.2300 N.am      2 ALA2        0.0000 
     60 N         183.5100  105.3000  154.8000 N.am      2 ALA2        0.0000 
     61 N         183.0600  106.7100  155.0500 N.am      2 ALA2        0.0000 
     62 N         183.3800  107.0600  153.6300 N.am      2 ALA2        0.0000 
     63 N         182.6000  108.1200  155.2900 N.am      2 ALA2        0.0000 
     64 N         182.9300  108.4700  153.8700 N.am      2 ALA2        0.0000 
     65 N         184.1300  106.7400  156.8800 N.am      2 ALA2        0.0000 
     66 N         184.4500  107.0900  155.4600 N.am      2 ALA2        0.0000 
     67 OD1       175.4500  113.6300  147.1100 O.co2     3 ASP3        0.0000 
     68 OD1       175.7800  113.9800  145.6800 O.co2     3 ASP3        0.0000 
     69 OD1       174.6800  114.6900  148.7700 O.co2     3 ASP3        0.0000 
     70 OD1       176.8500  114.0100  147.5200 O.co2     3 ASP3        0.0000 
     71 OD1       177.1700  114.3600  146.0900 O.co2     3 ASP3        0.0000 
     72 OD1       177.4900  114.7100  144.6700 O.co2     3 ASP3        0.0000 
     73 OD1       178.5600  114.7300  146.5000 O.co2     3 ASP3        0.0000 
     74 OD1       179.7600  113.0000  149.5100 O.co2     3 ASP3        0.0000 
     75 OD1       179.9600  115.1100  146.9100 O.co2     3 ASP3        0.0000 
     76 NZ        178.2700  113.6500  143.0100 N.4       4 LYS4        0.0000 
     77 NZ        176.2000  113.3000  150.3600 N.4       4 LYS4        0.0000 
     78 NZ        176.5200  113.6600  148.9400 N.4       4 LYS4        0.0000 
     79 NZ        175.7400  114.7100  150.6000 N.4       4 LYS4        0.0000 
     80 NZ        175.2900  116.1200  150.8500 N.4       4 LYS4        0.0000 
     81 NZ        177.5900  113.6800  150.7700 N.4       4 LYS4        0.0000 
     82 NZ        177.9100  114.0300  149.3500 N.4       4 LYS4        0.0000 
     83 NZ        178.2400  114.3800  147.9300 N.4       4 LYS4        0.0000 
     84 NZ        178.8900  115.0800  145.0800 N.4       4 LYS4        0.0000 
     85 NZ        179.4400  112.6500  150.9400 N.4       4 LYS4        0.0000 
     86 NZ        178.9800  114.0600  151.1800 N.4       4 LYS4        0.0000 
     87 NZ        180.9600  111.2600  152.5300 N.4       4 LYS4        0.0000 
     88 NZ        181.2800  111.6100  151.1000 N.4       4 LYS4        0.0000 
     89 NZ        181.6000  111.9600  149.6800 N.4       4 LYS4        0.0000 
     90 NZ        180.5000  112.6700  152.7700 N.4       4 LYS4        0.0000 
     91 NZ        182.0200  111.2900  154.3600 N.4       4 LYS4        0.0000 
     92 NZ        182.3500  111.6400  152.9400 N.4       4 LYS4        0.0000 
     93 NZ        183.0000  112.3400  150.0900 N.4       4 LYS4        0.0000 
     94 NZ        181.5700  112.7000  154.6000 N.4       4 LYS4        0.0000 
     95 NZ        185.6800  104.6200  153.5500 N.4       4 LYS4        0.0000 
     96 NZ        184.9000  105.6800  155.2100 N.4       4 LYS4        0.0000 
     97 NZ        183.7400  112.0200  153.3500 N.4       4 LYS4        0.0000 
     98 NZ        186.2900  106.0500  155.6200 N.4       4 LYS4        0.0000 
     99 CZ        173.4100  112.5500  149.5400 C.ar      5 PHE5        0.0000 
    100 CZ        173.7400  112.9000  148.1200 C.ar      5 PHE5        0.0000 
    101 CZ        174.6100  110.8200  152.5500 C.ar      5 PHE5        0.0000 
    102 CZ        174.9300  111.1700  151.1300 C.ar      5 PHE5        0.0000 
    103 CZ        174.1600  112.2300  152.7900 C.ar      5 PHE5        0.0000 
    104 CZ        174.4800  112.5800  151.3700 C.ar      5 PHE5        0.0000 
    105 CZ        174.8000  112.9300  149.9500 C.ar      5 PHE5        0.0000 
    106 CZ        176.9400  112.9800  153.6100 C.ar      5 PHE5        0.0000 
    107 CZ        181.8200  103.8400  150.9000 C.ar      5 PHE5        0.0000 
    108 CZ        181.0500  104.9000  152.5600 C.ar      5 PHE5        0.0000 
    109 CZ        178.6600  113.7100  152.6000 C.ar      5 PHE5        0.0000 
    110 CZ        182.8900  103.8700  152.7300 C.ar      5 PHE5        0.0000 
    111 CZ        183.5400  104.5700  149.8800 C.ar      5 PHE5        0.0000 
    112 CZ        183.8700  104.9200  148.4600 C.ar      5 PHE5        0.0000 
    113 CZ        182.7600  105.6300  151.5500 C.ar      5 PHE5        0.0000 
    114 CZ        183.0900  105.9800  150.1300 C.ar      5 PHE5        0.0000 
    115 CZ        183.6400  103.5400  155.9800 C.ar      5 PHE5        0.0000 
    116 CZ        184.6100  104.5900  151.7200 C.ar      5 PHE5        0.0000 
    117 CZ        183.8300  105.6500  153.3800 C.ar      5 PHE5        0.0000 
    118 CZ        184.1600  106.0000  151.9600 C.ar      5 PHE5        0.0000 
    119 CZ        183.7100  107.4100  152.2000 C.ar      5 PHE5        0.0000 
    120 CZ        183.2500  108.8200  152.4500 C.ar      5 PHE5        0.0000 
    121 CZ        185.2300  106.0300  153.7900 C.ar      5 PHE5        0.0000 
    122 CZ        184.7700  107.4400  154.0400 C.ar      5 PHE5        0.0000 
    123 CZ        185.1000  107.7900  152.6100 C.ar      5 PHE5        0.0000 
    124 CZ        184.3200  108.8500  154.2800 C.ar      5 PHE5        0.0000 
    125 CZ        184.6500  109.2000  152.8600 C.ar      5 PHE5        0.0000 
    126 CZ        184.1900  110.6100  153.1000 C.ar      5 PHE5        0.0000 
    127 CZ        184.5200  110.9600  151.6800 C.ar      5 PHE5        0.0000 
    128 CZ        186.6200  106.4000  154.2000 C.ar      5 PHE5        0.0000 
    129 CZ        186.1700  107.8100  154.4500 C.ar      5 PHE5        0.0000 
    130 CA        172.2100  114.2900  146.5300 C.3       6 GLY6        0.0000 
    131 CA        174.0600  113.2500  146.7000 C.3       6 GLY6        0.0000 
    132 CA        173.6100  114.6600  146.9400 C.3       6 GLY6        0.0000 
    133 CA        175.2600  111.5200  149.7100 C.3       6 GLY6        0.0000 
    134 CA        175.5800  111.8700  148.2800 C.3       6 GLY6        0.0000 
    135 CA        176.5500  112.9200  144.0200 C.3       6 GLY6        0.0000 
    136 CA        177.1000  110.4900  149.8700 C.3       6 GLY6        0.0000 
    137 CA        177.4300  110.8400  148.4500 C.3       6 GLY6        0.0000 
    138 CA        178.4000  111.8900  144.1800 C.3       6 GLY6        0.0000 
    139 CA        176.9700  112.2500  148.6900 C.3       6 GLY6        0.0000 
    140 CA        182.0200  105.9500  148.3000 C.3       6 GLY6        0.0000 
    141 CA        181.2400  107.0100  149.9600 C.3       6 GLY6        0.0000 
    142 CA        180.6600  110.1800  149.0300 C.3       6 GLY6        0.0000 
    143 CA        182.6400  107.3900  150.3700 C.3       6 GLY6        0.0000 
    144 CA        182.9600  107.7400  148.9500 C.3       6 GLY6        0.0000 
    145 CA        182.1800  108.8000  150.6200 C.3       6 GLY6        0.0000 
    146 CA        182.5100  109.1500  149.1900 C.3       6 GLY6        0.0000 
    147 CA        182.0600  110.5600  149.4400 C.3       6 GLY6        0.0000 
    148 CA        183.1300  110.5800  151.2700 C.3       6 GLY6        0.0000 
    149 CA        183.4500  110.9300  149.8500 C.3       6 GLY6        0.0000 
    150 CA        185.0300  103.9200  156.3900 C.3       6 GLY6        0.0000 
    151 CA        185.3500  104.2700  154.9700 C.3       6 GLY6        0.0000 
    152 DU        175.1300  113.2800  148.5300 H         7 CUB7        0.0000 
    153 DU        174.0300  113.9900  151.6200 H         7 CUB7        0.0000 
    154 DU        174.3500  114.3400  150.1900 H         7 CUB7        0.0000 
    155 DU        176.6500  111.9000  150.1200 H         7 CUB7        0.0000 
    156 DU        177.9500  113.3000  144.4300 H         7 CUB7        0.0000 
    157 DU        175.8700  112.9500  151.7800 H         7 CUB7        0.0000 
    158 DU        178.0400  112.2700  150.5300 H         7 CUB7        0.0000 
    159 DU        178.3700  112.6200  149.1000 H         7 CUB7        0.0000 
    160 DU        180.2100  111.5900  149.2700 H         7 CUB7        0.0000 
    161 DU        182.3100  107.0400  151.7900 H         7 CUB7        0.0000 
    162 DU        182.4800  109.8800  154.1100 H         7 CUB7        0.0000 
    163 DU        182.8000  110.2300  152.6900 H         7 CUB7        0.0000 
    164 DU        184.5800  105.3300  156.6400 H         7 CUB7        0.0000 
@<TRIPOS>BOND
@<TRIPOS>SUBSTRUCTURE
     1 SER1        1 GROUP   
     2 ALA2       28 GROUP   
     3 ASP3       67 GROUP   
     4 LYS4       76 GROUP   
     5 PHE5       99 GROUP   
     6 GLY6      130 GROUP   
     7 CUB7      152 GROUP   
@<TRIPOS>SET

