#    Name: 6hz6_4_GDP_CAVITY_N1_4
#    Modification time : Fri May 22 19:38:09 2020

@<TRIPOS>MOLECULE
6hz6_4_GDP_CAVITY_N1_4
  151     0     7     0     0
SMALL
NO_CHARGES


@<TRIPOS>ATOM
      1 OG         72.0300  137.9500  146.9100 O.3       1 SER1        0.0000 
      2 OG         72.3500  138.3000  145.4900 O.3       1 SER1        0.0000 
      3 OG         71.2500  139.0100  148.5800 O.3       1 SER1        0.0000 
      4 OG         71.1200  140.7700  147.4000 O.3       1 SER1        0.0000 
      5 OG         73.7500  138.6800  145.9000 O.3       1 SER1        0.0000 
      6 OG         72.9700  139.7400  147.5600 O.3       1 SER1        0.0000 
      7 OG         73.2900  140.0900  146.1400 O.3       1 SER1        0.0000 
      8 OG         71.8700  140.4500  150.6500 O.3       1 SER1        0.0000 
      9 OG         72.1900  140.8000  149.2300 O.3       1 SER1        0.0000 
     10 OG         71.0900  141.5100  152.3200 O.3       1 SER1        0.0000 
     11 OG         71.4200  141.8600  150.9000 O.3       1 SER1        0.0000 
     12 OG         70.6400  142.9200  152.5600 O.3       1 SER1        0.0000 
     13 OG         70.9600  143.2700  151.1400 O.3       1 SER1        0.0000 
     14 OG         70.5100  144.6800  151.3800 O.3       1 SER1        0.0000 
     15 OG         70.3800  146.4400  150.2100 O.3       1 SER1        0.0000 
     16 OG         70.7100  146.7900  148.7800 O.3       1 SER1        0.0000 
     17 OG         69.9300  147.8500  150.4500 O.3       1 SER1        0.0000 
     18 OG         70.2600  148.2000  149.0300 O.3       1 SER1        0.0000 
     19 OG         73.8400  137.6600  152.0000 O.3       1 SER1        0.0000 
     20 OG         73.2600  140.8200  151.0600 O.3       1 SER1        0.0000 
     21 OG         73.5900  141.1700  149.6400 O.3       1 SER1        0.0000 
     22 OG         72.4900  141.8800  152.7300 O.3       1 SER1        0.0000 
     23 OG         74.6500  141.2000  151.4700 O.3       1 SER1        0.0000 
     24 N          67.6900  144.6600  155.4800 N.am      2 ALA2        0.0000 
     25 N          68.0200  145.0100  154.0600 N.am      2 ALA2        0.0000 
     26 O          68.8600  147.8200  148.6200 O.2       2 ALA2        0.0000 
     27 O          68.0900  148.8800  150.2800 O.2       2 ALA2        0.0000 
     28 O          68.4100  149.2300  148.8600 O.2       2 ALA2        0.0000 
     29 O          72.8400  141.5000  146.3900 O.2       2 ALA2        0.0000 
     30 N          70.4400  140.8100  155.1600 N.am      2 ALA2        0.0000 
     31 N          70.7700  141.1600  153.7400 N.am      2 ALA2        0.0000 
     32 N          69.9900  142.2200  155.4100 N.am      2 ALA2        0.0000 
     33 N          70.3200  142.5700  153.9800 N.am      2 ALA2        0.0000 
     34 N          69.8600  143.9800  154.2300 N.am      2 ALA2        0.0000 
     35 N          70.1900  144.3300  152.8100 N.am      2 ALA2        0.0000 
     36 N          69.7400  145.7400  153.0500 N.am      2 ALA2        0.0000 
     37 N          68.6300  146.4400  156.1400 N.am      2 ALA2        0.0000 
     38 N          68.9600  146.7900  154.7200 N.am      2 ALA2        0.0000 
     39 N          69.2800  147.1500  153.2900 N.am      2 ALA2        0.0000 
     40 N          69.1600  148.9000  152.1200 N.am      2 ALA2        0.0000 
     41 O          69.8000  149.6000  149.2700 O.2       2 ALA2        0.0000 
     42 N          68.0500  149.6100  155.2000 N.am      2 ALA2        0.0000 
     43 O          75.1400  139.0600  146.3100 O.2       2 ALA2        0.0000 
     44 O          74.3600  140.1200  147.9700 O.2       2 ALA2        0.0000 
     45 O          74.6900  140.4700  146.5500 O.2       2 ALA2        0.0000 
     46 N          72.6100  140.1200  153.9100 N.am      2 ALA2        0.0000 
     47 N          72.9400  140.4700  152.4800 N.am      2 ALA2        0.0000 
     48 O          74.2300  141.8800  146.8000 O.2       2 ALA2        0.0000 
     49 N          71.7100  142.9400  154.3900 N.am      2 ALA2        0.0000 
     50 N          71.5800  144.7000  153.2200 N.am      2 ALA2        0.0000 
     51 N          70.6800  147.5200  153.7000 N.am      2 ALA2        0.0000 
     52 O          76.2100  139.0800  148.1400 O.2       2 ALA2        0.0000 
     53 O          76.5300  139.4300  146.7200 O.2       2 ALA2        0.0000 
     54 N          74.7800  139.4400  152.6500 N.am      2 ALA2        0.0000 
     55 N          74.3300  140.8500  152.8900 N.am      2 ALA2        0.0000 
     56 N          75.7200  141.2300  153.3100 N.am      2 ALA2        0.0000 
     57 OD1        73.8700  136.9200  147.0800 O.co2     3 ASP3        0.0000 
     58 OD1        74.2000  137.2700  145.6500 O.co2     3 ASP3        0.0000 
     59 OD1        72.7700  137.6300  150.1600 O.co2     3 ASP3        0.0000 
     60 OD1        72.3200  139.0400  150.4100 O.co2     3 ASP3        0.0000 
     61 OD1        72.6500  139.3900  148.9900 O.co2     3 ASP3        0.0000 
     62 OD1        73.6200  140.4400  144.7200 O.co2     3 ASP3        0.0000 
     63 OD1        75.2700  137.3000  147.4900 O.co2     3 ASP3        0.0000 
     64 OD1        75.5900  137.6500  146.0600 O.co2     3 ASP3        0.0000 
     65 OD1        76.9800  138.0200  146.4800 O.co2     3 ASP3        0.0000 
     66 NZ         66.5900  140.0300  152.5100 N.4       4 LYS4        0.0000 
     67 NZ         69.0800  139.7000  149.8300 N.4       4 LYS4        0.0000 
     68 NZ         67.9800  140.4100  152.9200 N.4       4 LYS4        0.0000 
     69 NZ         68.3100  140.7600  151.5000 N.4       4 LYS4        0.0000 
     70 NZ         72.8100  136.9000  145.2400 N.4       4 LYS4        0.0000 
     71 NZ         73.1300  137.2500  143.8200 N.4       4 LYS4        0.0000 
     72 NZ         72.6800  138.6500  144.0700 N.4       4 LYS4        0.0000 
     73 NZ         70.9300  138.6600  150.0000 N.4       4 LYS4        0.0000 
     74 NZ         70.4800  140.0700  150.2400 N.4       4 LYS4        0.0000 
     75 NZ         69.3800  140.7800  153.3300 N.4       4 LYS4        0.0000 
     76 NZ         69.7000  141.1300  151.9100 N.4       4 LYS4        0.0000 
     77 NZ         67.2400  146.0700  155.7300 N.4       4 LYS4        0.0000 
     78 NZ         74.5200  137.6200  144.2300 N.4       4 LYS4        0.0000 
     79 NZ         73.1000  137.9800  148.7400 N.4       4 LYS4        0.0000 
     80 NZ         73.4200  138.3300  147.3200 N.4       4 LYS4        0.0000 
     81 NZ         72.0000  138.6900  151.8300 N.4       4 LYS4        0.0000 
     82 NZ         70.9000  139.4000  154.9200 N.4       4 LYS4        0.0000 
     83 NZ         71.2200  139.7500  153.5000 N.4       4 LYS4        0.0000 
     84 NZ         71.5400  140.1000  152.0700 N.4       4 LYS4        0.0000 
     85 NZ         76.2400  138.3500  143.2200 N.4       4 LYS4        0.0000 
     86 NZ         74.1700  138.0100  150.5700 N.4       4 LYS4        0.0000 
     87 NZ         74.4900  138.3600  149.1500 N.4       4 LYS4        0.0000 
     88 NZ         74.8100  138.7100  147.7300 N.4       4 LYS4        0.0000 
     89 NZ         75.5600  138.3800  150.9800 N.4       4 LYS4        0.0000 
     90 NZ         75.8800  138.7300  149.5600 N.4       4 LYS4        0.0000 
     91 CZ         66.9100  140.3800  151.0900 C.ar      5 PHE5        0.0000 
     92 CZ         67.5300  141.8200  153.1600 C.ar      5 PHE5        0.0000 
     93 CZ         67.0800  143.2200  153.4100 C.ar      5 PHE5        0.0000 
     94 CZ         66.6300  144.6300  153.6500 C.ar      5 PHE5        0.0000 
     95 CZ         66.1700  146.0400  153.9000 C.ar      5 PHE5        0.0000 
     96 CZ         68.8000  143.9500  152.4000 C.ar      5 PHE5        0.0000 
     97 CZ         68.3400  145.3600  152.6400 C.ar      5 PHE5        0.0000 
     98 CZ         68.6700  145.7100  151.2200 C.ar      5 PHE5        0.0000 
     99 CZ         68.9900  146.0600  149.8000 C.ar      5 PHE5        0.0000 
    100 CZ         67.8900  146.7700  152.8800 C.ar      5 PHE5        0.0000 
    101 CZ         68.2200  147.1200  151.4600 C.ar      5 PHE5        0.0000 
    102 CZ         68.5400  147.4700  150.0400 C.ar      5 PHE5        0.0000 
    103 CZ         69.6100  147.5000  151.8700 C.ar      5 PHE5        0.0000 
    104 CZ         70.5800  148.5500  147.6100 C.ar      5 PHE5        0.0000 
    105 CZ         67.8600  147.5000  157.8000 C.ar      5 PHE5        0.0000 
    106 CZ         68.1800  147.8500  156.3800 C.ar      5 PHE5        0.0000 
    107 CZ         68.5100  148.2000  154.9600 C.ar      5 PHE5        0.0000 
    108 CZ         68.8300  148.5500  153.5400 C.ar      5 PHE5        0.0000 
    109 CZ         69.4800  149.2500  150.6900 C.ar      5 PHE5        0.0000 
    110 CZ         67.7300  149.2600  156.6300 C.ar      5 PHE5        0.0000 
    111 CZ         67.2800  150.6700  156.8700 C.ar      5 PHE5        0.0000 
    112 CZ         73.0700  138.7200  153.6600 C.ar      5 PHE5        0.0000 
    113 CZ         73.3900  139.0700  152.2400 C.ar      5 PHE5        0.0000 
    114 CZ         69.5800  148.2300  156.7900 C.ar      5 PHE5        0.0000 
    115 CZ         69.9000  148.5800  155.3700 C.ar      5 PHE5        0.0000 
    116 CZ         74.4600  139.0900  154.0700 C.ar      5 PHE5        0.0000 
    117 CA         68.6300  141.1100  150.0800 C.3       6 GLY6        0.0000 
    118 CA         67.8500  142.1700  151.7400 C.3       6 GLY6        0.0000 
    119 CA         70.8000  140.4200  148.8200 C.3       6 GLY6        0.0000 
    120 CA         70.0200  141.4800  150.4900 C.3       6 GLY6        0.0000 
    121 CA         69.2500  142.5400  152.1500 C.3       6 GLY6        0.0000 
    122 CA         69.5700  142.8900  150.7300 C.3       6 GLY6        0.0000 
    123 CA         69.1200  144.3000  150.9700 C.3       6 GLY6        0.0000 
    124 CA         69.4400  144.6500  149.5500 C.3       6 GLY6        0.0000 
    125 CA         69.3200  146.4100  148.3700 C.3       6 GLY6        0.0000 
    126 CA         69.1900  148.1700  147.2000 C.3       6 GLY6        0.0000 
    127 CA         67.1100  147.8300  154.5500 C.3       6 GLY6        0.0000 
    128 CA         74.0700  139.0300  144.4800 C.3       6 GLY6        0.0000 
    129 CA         74.4000  139.3800  143.0500 C.3       6 GLY6        0.0000 
    130 CA         72.5200  141.1500  147.8100 C.3       6 GLY6        0.0000 
    131 CA         71.7400  142.2100  149.4700 C.3       6 GLY6        0.0000 
    132 CA         71.2900  143.6200  149.7200 C.3       6 GLY6        0.0000 
    133 CA         70.8400  145.0300  149.9600 C.3       6 GLY6        0.0000 
    134 CA         75.9200  138.0000  144.6400 C.3       6 GLY6        0.0000 
    135 CA         75.4600  139.4100  144.8900 C.3       6 GLY6        0.0000 
    136 CA         75.7900  139.7600  143.4600 C.3       6 GLY6        0.0000 
    137 CA         73.9100  141.5300  148.2200 C.3       6 GLY6        0.0000 
    138 CA         71.4500  146.4600  152.0400 C.3       6 GLY6        0.0000 
    139 CA         75.4300  140.1400  149.8100 C.3       6 GLY6        0.0000 
    140 CA         75.7600  140.4900  148.3800 C.3       6 GLY6        0.0000 
    141 CA         74.9800  141.5500  150.0500 C.3       6 GLY6        0.0000 
    142 CA         77.9300  139.8100  147.1300 C.3       6 GLY6        0.0000 
    143 CA         77.1500  140.8700  148.8000 C.3       6 GLY6        0.0000 
    144 CA         76.0500  141.5800  151.8800 C.3       6 GLY6        0.0000 
    145 DU         68.9200  142.1900  153.5700 H         7 CUB7        0.0000 
    146 DU         68.4700  143.6000  153.8200 H         7 CUB7        0.0000 
    147 DU         67.5700  146.4200  154.3100 H         7 CUB7        0.0000 
    148 DU         70.0600  146.0900  151.6300 H         7 CUB7        0.0000 
    149 DU         73.7100  139.4200  150.8200 H         7 CUB7        0.0000 
    150 DU         74.0400  139.7700  149.4000 H         7 CUB7        0.0000 
    151 DU         75.1100  139.7900  151.2300 H         7 CUB7        0.0000 
@<TRIPOS>BOND
@<TRIPOS>SUBSTRUCTURE
     1 SER1        1 GROUP   
     2 ALA2       24 GROUP   
     3 ASP3       57 GROUP   
     4 LYS4       66 GROUP   
     5 PHE5       91 GROUP   
     6 GLY6      117 GROUP   
     7 CUB7      145 GROUP   
@<TRIPOS>SET

