#    Name: 6hz6_12_GDP_CAVITY_N1_4
#    Modification time : Fri May 22 19:39:02 2020

@<TRIPOS>MOLECULE
6hz6_12_GDP_CAVITY_N1_4
  103     0     7     0     0
SMALL
NO_CHARGES


@<TRIPOS>ATOM
      1 OG        142.9200  162.6000  135.9200 O.3       1 SER1        0.0000 
      2 OG        142.4600  164.0100  136.1600 O.3       1 SER1        0.0000 
      3 OG        145.7300  162.6200  131.8200 O.3       1 SER1        0.0000 
      4 OG        143.6600  162.2800  139.1800 O.3       1 SER1        0.0000 
      5 OG        143.9900  162.6300  137.7500 O.3       1 SER1        0.0000 
      6 OG        143.5300  164.0400  138.0000 O.3       1 SER1        0.0000 
      7 OG        147.8000  158.8000  139.2600 O.3       1 SER1        0.0000 
      8 OG        147.3500  160.2100  139.5100 O.3       1 SER1        0.0000 
      9 O         143.8200  159.7800  135.4300 O.2       2 ALA2        0.0000 
     10 O         144.6900  157.7000  139.8700 O.2       2 ALA2        0.0000 
     11 O         145.0200  158.0500  138.4400 O.2       2 ALA2        0.0000 
     12 O         144.2400  159.1100  140.1100 O.2       2 ALA2        0.0000 
     13 O         144.5700  159.4600  138.6900 O.2       2 ALA2        0.0000 
     14 O         144.8900  159.8100  137.2700 O.2       2 ALA2        0.0000 
     15 N         146.1900  161.2100  131.5800 N.am      2 ALA2        0.0000 
     16 O         145.6300  159.4800  140.5200 O.2       2 ALA2        0.0000 
     17 O         151.2400  160.2500  137.2400 O.2       2 ALA2        0.0000 
     18 OD1       145.4700  156.6400  138.2000 O.co2     3 ASP3        0.0000 
     19 OD1       145.7900  156.9900  136.7800 O.co2     3 ASP3        0.0000 
     20 OD1       145.3400  158.4000  137.0200 O.co2     3 ASP3        0.0000 
     21 OD1       145.6700  158.7500  135.6000 O.co2     3 ASP3        0.0000 
     22 OD1       145.9900  159.1000  134.1800 O.co2     3 ASP3        0.0000 
     23 OD1       146.3100  159.4500  132.7600 O.co2     3 ASP3        0.0000 
     24 OD1       145.2100  160.1600  135.8400 O.co2     3 ASP3        0.0000 
     25 OD1       145.5400  160.5100  134.4200 O.co2     3 ASP3        0.0000 
     26 OD1       146.8600  157.0200  138.6100 O.co2     3 ASP3        0.0000 
     27 OD1       146.4100  158.4300  138.8500 O.co2     3 ASP3        0.0000 
     28 OD1       146.7300  158.7800  137.4300 O.co2     3 ASP3        0.0000 
     29 OD1       147.7100  159.8300  133.1700 O.co2     3 ASP3        0.0000 
     30 OD1       146.6100  160.5300  136.2500 O.co2     3 ASP3        0.0000 
     31 OD1       146.9300  160.8900  134.8300 O.co2     3 ASP3        0.0000 
     32 OD1       145.8300  161.5900  137.9200 O.co2     3 ASP3        0.0000 
     33 OD1       145.3800  163.0000  138.1600 O.co2     3 ASP3        0.0000 
     34 OD1       148.5800  157.7400  137.6000 O.co2     3 ASP3        0.0000 
     35 OD1       148.1300  159.1500  137.8400 O.co2     3 ASP3        0.0000 
     36 OD1       147.6800  160.5600  138.0900 O.co2     3 ASP3        0.0000 
     37 OD1       148.0000  160.9100  136.6600 O.co2     3 ASP3        0.0000 
     38 OD1       146.9000  161.6200  139.7500 O.co2     3 ASP3        0.0000 
     39 OD1       146.4500  163.0300  140.0000 O.co2     3 ASP3        0.0000 
     40 OD1       145.9900  164.4400  140.2400 O.co2     3 ASP3        0.0000 
     41 OD1       146.3200  164.7900  138.8200 O.co2     3 ASP3        0.0000 
     42 OD1       149.0700  160.9400  138.5000 O.co2     3 ASP3        0.0000 
     43 OD1       148.2900  162.0000  140.1600 O.co2     3 ASP3        0.0000 
     44 OD1       147.8400  163.4100  140.4100 O.co2     3 ASP3        0.0000 
     45 OD1       147.7100  165.1600  139.2300 O.co2     3 ASP3        0.0000 
     46 OD1       150.7900  161.6600  137.4800 O.co2     3 ASP3        0.0000 
     47 NZ        145.0900  161.9200  134.6700 N.4       4 LYS4        0.0000 
     48 NZ        145.4100  162.2700  133.2400 N.4       4 LYS4        0.0000 
     49 NZ        144.3100  162.9800  136.3300 N.4       4 LYS4        0.0000 
     50 NZ        144.6300  163.3300  134.9100 N.4       4 LYS4        0.0000 
     51 NZ        144.9600  163.6800  133.4900 N.4       4 LYS4        0.0000 
     52 NZ        144.1800  164.7400  135.1500 N.4       4 LYS4        0.0000 
     53 NZ        143.7300  166.1500  135.4000 N.4       4 LYS4        0.0000 
     54 NZ        147.2600  161.2400  133.4100 N.4       4 LYS4        0.0000 
     55 NZ        147.5800  161.5900  131.9900 N.4       4 LYS4        0.0000 
     56 NZ        146.1500  161.9400  136.5000 N.4       4 LYS4        0.0000 
     57 NZ        146.4800  162.2900  135.0800 N.4       4 LYS4        0.0000 
     58 NZ        146.8000  162.6400  133.6500 N.4       4 LYS4        0.0000 
     59 NZ        144.9300  164.4100  138.4100 N.4       4 LYS4        0.0000 
     60 NZ        144.8000  166.1700  137.2300 N.4       4 LYS4        0.0000 
     61 NZ        148.2600  157.3900  139.0200 N.4       4 LYS4        0.0000 
     62 NZ        149.5200  159.5300  138.2500 N.4       4 LYS4        0.0000 
     63 NZ        149.8400  159.8800  136.8300 N.4       4 LYS4        0.0000 
     64 CZ        147.1300  162.9900  132.2300 C.ar      5 PHE5        0.0000 
     65 CZ        144.4400  166.5600  143.5700 C.ar      5 PHE5        0.0000 
     66 CZ        146.9400  166.2200  140.8900 C.ar      5 PHE5        0.0000 
     67 CZ        145.8300  166.9300  143.9800 C.ar      5 PHE5        0.0000 
     68 CZ        146.4800  167.6300  141.1400 C.ar      5 PHE5        0.0000 
     69 CA        144.2700  158.3700  135.1900 C.3       6 GLY6        0.0000 
     70 CA        144.6000  158.7200  133.7700 C.3       6 GLY6        0.0000 
     71 CA        143.0400  160.8400  137.1000 C.3       6 GLY6        0.0000 
     72 CA        143.3700  161.1900  135.6800 C.3       6 GLY6        0.0000 
     73 CA        144.1100  160.8700  138.9300 C.3       6 GLY6        0.0000 
     74 CA        146.0900  158.0800  140.2800 C.3       6 GLY6        0.0000 
     75 CA        145.1800  160.8900  140.7600 C.3       6 GLY6        0.0000 
     76 CA        145.5100  161.2400  139.3400 C.3       6 GLY6        0.0000 
     77 CA        144.7300  162.3000  141.0100 C.3       6 GLY6        0.0000 
     78 CA        144.2800  163.7100  141.2500 C.3       6 GLY6        0.0000 
     79 CA        146.1200  162.6800  141.4200 C.3       6 GLY6        0.0000 
     80 CA        145.6700  164.0900  141.6600 C.3       6 GLY6        0.0000 
     81 CA        144.8900  165.1500  143.3300 C.3       6 GLY6        0.0000 
     82 CA        145.2200  165.5000  141.9100 C.3       6 GLY6        0.0000 
     83 CA        147.0600  164.4600  142.0700 C.3       6 GLY6        0.0000 
     84 CA        147.3900  164.8100  140.6500 C.3       6 GLY6        0.0000 
     85 CA        146.2900  165.5200  143.7400 C.3       6 GLY6        0.0000 
     86 CA        150.4600  161.3100  138.9100 C.3       6 GLY6        0.0000 
     87 DU        144.9200  159.0700  132.3500 H         7 CUB7        0.0000 
     88 DU        144.1500  160.1300  134.0100 H         7 CUB7        0.0000 
     89 DU        144.4700  160.4800  132.5900 H         7 CUB7        0.0000 
     90 DU        143.6900  161.5400  134.2500 H         7 CUB7        0.0000 
     91 DU        144.0200  161.8900  132.8300 H         7 CUB7        0.0000 
     92 DU        143.2400  162.9500  134.5000 H         7 CUB7        0.0000 
     93 DU        142.7900  164.3600  134.7400 H         7 CUB7        0.0000 
     94 DU        145.8600  160.8600  133.0000 H         7 CUB7        0.0000 
     95 DU        144.4400  161.2200  137.5100 H         7 CUB7        0.0000 
     96 DU        144.7600  161.5700  136.0900 H         7 CUB7        0.0000 
     97 DU        145.9600  159.8300  139.1000 H         7 CUB7        0.0000 
     98 DU        146.2800  160.1800  137.6800 H         7 CUB7        0.0000 
     99 DU        145.0500  162.6500  139.5900 H         7 CUB7        0.0000 
    100 DU        144.6000  164.0600  139.8300 H         7 CUB7        0.0000 
    101 DU        144.1500  165.4700  140.0700 H         7 CUB7        0.0000 
    102 DU        145.5400  165.8500  140.4800 H         7 CUB7        0.0000 
    103 DU        145.0900  167.2600  140.7300 H         7 CUB7        0.0000 
@<TRIPOS>BOND
@<TRIPOS>SUBSTRUCTURE
     1 SER1        1 GROUP   
     2 ALA2        9 GROUP   
     3 ASP3       18 GROUP   
     4 LYS4       47 GROUP   
     5 PHE5       64 GROUP   
     6 GLY6       69 GROUP   
     7 CUB7       87 GROUP   
@<TRIPOS>SET

