#    Name: 6hz6_1_GNP_CAVITY_N1_12
#    Modification time : Fri May 22 19:37:56 2020

@<TRIPOS>MOLECULE
6hz6_1_GNP_CAVITY_N1_12
   84     0     7     0     0
SMALL
NO_CHARGES


@<TRIPOS>ATOM
      1 OG         95.3100   91.3500   99.6100 O.3       1 SER1        0.0000 
      2 OG         96.3800   91.3700  101.4400 O.3       1 SER1        0.0000 
      3 OG         98.5500   90.6900  100.1800 O.3       1 SER1        0.0000 
      4 OG         97.7700   91.7500  101.8500 O.3       1 SER1        0.0000 
      5 OG         99.6200   90.7100  102.0100 O.3       1 SER1        0.0000 
      6 OG        101.4600   89.6800  102.1800 O.3       1 SER1        0.0000 
      7 N          95.9200   87.4400   95.6200 N.am      2 ALA2        0.0000 
      8 N          95.1500   88.5000   97.2900 N.am      2 ALA2        0.0000 
      9 N          95.4700   88.8500   95.8600 N.am      2 ALA2        0.0000 
     10 N          94.7000   89.9100   97.5300 N.am      2 ALA2        0.0000 
     11 N          96.9900   87.4700   97.4500 N.am      2 ALA2        0.0000 
     12 N          97.3200   87.8200   96.0300 N.am      2 ALA2        0.0000 
     13 N          96.2200   88.5300   99.1200 N.am      2 ALA2        0.0000 
     14 N          95.7600   89.9400   99.3600 N.am      2 ALA2        0.0000 
     15 N          98.3900   87.8400   97.8600 N.am      2 ALA2        0.0000 
     16 N          98.7100   88.1900   96.4400 N.am      2 ALA2        0.0000 
     17 N          97.6100   88.9000   99.5300 N.am      2 ALA2        0.0000 
     18 N          97.1600   90.3100   99.7700 N.am      2 ALA2        0.0000 
     19 N          99.7800   88.2200   98.2700 N.am      2 ALA2        0.0000 
     20 N          99.3300   89.6300   98.5200 N.am      2 ALA2        0.0000 
     21 N          98.8700   91.0400   98.7600 N.am      2 ALA2        0.0000 
     22 O          99.1700   92.1200  102.2600 O.2       2 ALA2        0.0000 
     23 O         102.9800   88.3000  103.7700 O.2       2 ALA2        0.0000 
     24 OD1        93.7200   88.8600  101.8000 O.co2     3 ASP3        0.0000 
     25 OD1        95.1200   89.2400  102.2100 O.co2     3 ASP3        0.0000 
     26 OD1        94.6600   90.6500  102.4500 O.co2     3 ASP3        0.0000 
     27 OD1        96.0600   91.0200  102.8600 O.co2     3 ASP3        0.0000 
     28 NZ         94.2100   86.7200   96.6300 N.4       4 LYS4        0.0000 
     29 NZ         94.5300   87.0700   95.2100 N.4       4 LYS4        0.0000 
     30 NZ         93.7500   88.1300   96.8700 N.4       4 LYS4        0.0000 
     31 NZ         94.0500   89.2100  100.3700 N.4       4 LYS4        0.0000 
     32 NZ         94.3700   89.5600   98.9500 N.4       4 LYS4        0.0000 
     33 NZ         97.4400   86.0600   97.2100 N.4       4 LYS4        0.0000 
     34 NZ         95.4400   89.5900  100.7800 N.4       4 LYS4        0.0000 
     35 NZ         94.9900   91.0000  101.0300 N.4       4 LYS4        0.0000 
     36 NZ         98.8400   86.4300   97.6200 N.4       4 LYS4        0.0000 
     37 CZ         95.4000   84.9800   99.6400 C.ar      5 PHE5        0.0000 
     38 CZ         96.7000   86.3800   93.9500 C.ar      5 PHE5        0.0000 
     39 CZ         94.6300   86.0400  101.3100 C.ar      5 PHE5        0.0000 
     40 CZ         94.9500   86.3900   99.8900 C.ar      5 PHE5        0.0000 
     41 CZ         96.2500   87.7900   94.2000 C.ar      5 PHE5        0.0000 
     42 CZ         94.1700   87.4500  101.5500 C.ar      5 PHE5        0.0000 
     43 CZ         97.1200   85.7100   98.6300 C.ar      5 PHE5        0.0000 
     44 CZ         97.7700   86.4100   95.7900 C.ar      5 PHE5        0.0000 
     45 CZ         96.3400   86.7700  100.3000 C.ar      5 PHE5        0.0000 
     46 CZ         96.6700   87.1200   98.8700 C.ar      5 PHE5        0.0000 
     47 CZ         95.8900   88.1800  100.5400 C.ar      5 PHE5        0.0000 
     48 CZ         98.5100   86.0800   99.0400 C.ar      5 PHE5        0.0000 
     49 CZ         98.0600   87.4900   99.2800 C.ar      5 PHE5        0.0000 
     50 CZ         97.2800   88.5500  100.9500 C.ar      5 PHE5        0.0000 
     51 CZ         96.8300   89.9600  101.1900 C.ar      5 PHE5        0.0000 
     52 CZ         99.9100   86.4600   99.4500 C.ar      5 PHE5        0.0000 
     53 CZ         99.4500   87.8700   99.6900 C.ar      5 PHE5        0.0000 
     54 CZ         99.0000   89.2800   99.9400 C.ar      5 PHE5        0.0000 
     55 CZ         98.2300   90.3400  101.6000 C.ar      5 PHE5        0.0000 
     56 CZ        100.8500   88.2500  100.1000 C.ar      5 PHE5        0.0000 
     57 CZ        101.1700   88.6000   98.6800 C.ar      5 PHE5        0.0000 
     58 CZ        100.0700   89.3000  101.7700 C.ar      5 PHE5        0.0000 
     59 CZ        100.3900   89.6500  100.3500 C.ar      5 PHE5        0.0000 
     60 CZ        100.7200   90.0000   98.9300 C.ar      5 PHE5        0.0000 
     61 CZ         99.9400   91.0600  100.5900 C.ar      5 PHE5        0.0000 
     62 CZ        100.2700   91.4100   99.1700 C.ar      5 PHE5        0.0000 
     63 CZ         99.4900   92.4700  100.8400 C.ar      5 PHE5        0.0000 
     64 CZ        101.5900   87.9200  103.3600 C.ar      5 PHE5        0.0000 
     65 CZ        101.9200   88.2700  101.9400 C.ar      5 PHE5        0.0000 
     66 CZ        102.2400   88.6200  100.5100 C.ar      5 PHE5        0.0000 
     67 CZ        101.1400   89.3300  103.6000 C.ar      5 PHE5        0.0000 
     68 CZ        101.7900   90.0300  100.7600 C.ar      5 PHE5        0.0000 
     69 CA         92.0400   87.4000   97.8900 C.3       6 GLY6        0.0000 
     70 CA         95.3100   86.0100   93.5400 C.3       6 GLY6        0.0000 
     71 CA         94.8600   87.4200   93.7900 C.3       6 GLY6        0.0000 
     72 CA         93.1100   87.4200   99.7200 C.3       6 GLY6        0.0000 
     73 CA         93.4300   87.7700   98.3000 C.3       6 GLY6        0.0000 
     74 CA         94.5000   87.8000  100.1300 C.3       6 GLY6        0.0000 
     75 CA         96.5100   89.6100  102.6200 C.3       6 GLY6        0.0000 
     76 CA         97.9000   89.9900  103.0300 C.3       6 GLY6        0.0000 
     77 CA         97.4500   91.4000  103.2700 C.3       6 GLY6        0.0000 
     78 DU         93.5600   86.0200   99.4800 H         7 CUB7        0.0000 
     79 DU         93.8800   86.3700   98.0500 H         7 CUB7        0.0000 
     80 DU         96.0500   85.6800   96.8000 H         7 CUB7        0.0000 
     81 DU         96.3800   86.0300   95.3800 H         7 CUB7        0.0000 
     82 DU         95.2800   86.7400   98.4600 H         7 CUB7        0.0000 
     83 DU         95.6000   87.0900   97.0400 H         7 CUB7        0.0000 
     84 DU         94.8200   88.1500   98.7100 H         7 CUB7        0.0000 
@<TRIPOS>BOND
@<TRIPOS>SUBSTRUCTURE
     1 SER1        1 GROUP   
     2 ALA2        7 GROUP   
     3 ASP3       24 GROUP   
     4 LYS4       28 GROUP   
     5 PHE5       37 GROUP   
     6 GLY6       69 GROUP   
     7 CUB7       78 GROUP   
@<TRIPOS>SET

