#    Name: 6hz5_11_GDP
#    Modification time : Fri May 22 19:37:34 2020

@<TRIPOS>MOLECULE
6hz5_11_GDP
   40    42     1     0     1
SMALL
NO_CHARGES


@<TRIPOS>ATOM
      1 PB        155.5970  140.8550  156.1300 P.3       1 GDP1001     0.0000 
      2 O1B       155.3400  142.1120  155.3980 O.co2     1 GDP1001     0.0000 
      3 O2B       154.7570  139.7730  155.5690 O.co2     1 GDP1001     0.0000 
      4 O3B       157.0260  140.4940  156.0100 O.co2     1 GDP1001     0.0000 
      5 O3A       155.2250  141.0530  157.6720 O.3       1 GDP1001     0.0000 
      6 PA        155.2950  139.7740  158.6280 P.3       1 GDP1001     0.0000 
      7 O1A       154.5020  138.6720  158.0370 O.co2     1 GDP1001     0.0000 
      8 O2A       156.7030  139.3370  158.7540 O.co2     1 GDP1001     0.0000 
      9 O5'       154.6820  140.1380  160.0960 O.3       1 GDP1001     0.0000 
     10 C5'       155.4170  140.8300  161.1210 C.3       1 GDP1001     0.0000 
     11 C4'       154.4140  141.4810  162.1040 C.3       1 GDP1001     0.0000 
     12 O4'       153.4940  140.4670  162.6860 O.3       1 GDP1001     0.0000 
     13 C3'       155.0580  142.1070  163.3310 C.3       1 GDP1001     0.0000 
     14 O3'       154.1360  143.0410  163.9460 O.3       1 GDP1001     0.0000 
     15 C2'       155.2390  140.8850  164.1940 C.3       1 GDP1001     0.0000 
     16 O2'       155.5870  141.2390  165.5420 O.3       1 GDP1001     0.0000 
     17 C1'       153.8420  140.3100  164.1150 C.3       1 GDP1001     0.0000 
     18 N9        153.8180  138.9270  164.6220 N.pl3     1 GDP1001     0.0000 
     19 C8        153.8240  137.8220  163.8960 C.2       1 GDP1001     0.0000 
     20 N7        153.8130  136.7850  164.7280 N.2       1 GDP1001     0.0000 
     21 C5        153.8190  137.2540  165.9710 C.2       1 GDP1001     0.0000 
     22 C6        153.8200  136.6310  167.1450 C.2       1 GDP1001     0.0000 
     23 O6        153.8090  135.4040  167.2050 O.2       1 GDP1001     0.0000 
     24 N1        153.8230  137.3820  168.3230 N.am      1 GDP1001     0.0000 
     25 C2        153.8310  138.7720  168.2280 C.2       1 GDP1001     0.0000 
     26 N2        153.8390  139.5300  169.3230 N.pl3     1 GDP1001     0.0000 
     27 N3        153.8350  139.3350  167.0150 N.2       1 GDP1001     0.0000 
     28 C4        153.8230  138.5840  165.9040 C.2       1 GDP1001     0.0000 
     29 H5'       155.9990  141.6240  160.6560 H         1 GDP1001     0.0000 
     30 H5''      156.0970  140.1280  161.5820 H         1 GDP1001     0.0000 
     31 H4'       153.9050  142.2470  161.5200 H         1 GDP1001     0.0000 
     32 H3'       155.9920  142.6170  163.1020 H         1 GDP1001     0.0000 
     33 HO3'      153.1840  142.7840  163.7900 H         1 GDP1001     0.0000 
     34 H2'       155.9510  140.1930  163.7820 H         1 GDP1001     0.0000 
     35 HO2'      154.9000  141.8730  165.9060 H         1 GDP1001     0.0000 
     36 H1'       153.1640  140.9070  164.7080 H         1 GDP1001     0.0000 
     37 H8        153.8140  137.7810  162.8110 H         1 GDP1001     0.0000 
     38 HN1       153.8220  136.9350  169.2160 H         1 GDP1001     0.0000 
     39 HN21      153.8470  139.1060  170.2290 H         1 GDP1001     0.0000 
     40 HN22      153.8400  140.5280  169.2410 H         1 GDP1001     0.0000 
@<TRIPOS>BOND
     1    1    2 ar   
     2    1    3 ar   
     3    1    4 ar   
     4    1    5 1    
     5    5    6 1    
     6    6    7 ar   
     7    6    8 ar   
     8    6    9 1    
     9    9   10 1    
    10   10   11 1    
    11   10   29 1    
    12   10   30 1    
    13   11   12 1    
    14   11   13 1    
    15   11   31 1    
    16   12   17 1    
    17   13   14 1    
    18   13   15 1    
    19   13   32 1    
    20   14   33 1    
    21   15   16 1    
    22   15   17 1    
    23   15   34 1    
    24   16   35 1    
    25   17   18 1    
    26   17   36 1    
    27   18   19 1    
    28   18   28 1    
    29   19   20 2    
    30   19   37 1    
    31   20   21 1    
    32   21   22 1    
    33   21   28 2    
    34   22   23 2    
    35   22   24 am   
    36   24   25 1    
    37   24   38 1    
    38   25   26 1    
    39   25   27 2    
    40   26   39 1    
    41   26   40 1    
    42   27   28 1    
@<TRIPOS>SUBSTRUCTURE
     1 GDP1001     1 GROUP   
@<TRIPOS>SET
ATOM$ORANGE STATIC     ATOMS   COLORGROUP SYSTEM 
20 10 10 11 11 13 13 15 15 17 17 19 19 21 21 22 22 25 \
25 28 28 

