#    Name: 6hz5_4_GDP
#    Modification time : Fri May 22 19:36:58 2020

@<TRIPOS>MOLECULE
6hz5_4_GDP
   40    42     1     0     1
SMALL
NO_CHARGES


@<TRIPOS>ATOM
      1 PB         74.9500  139.0050  148.2320 P.3       1 GDP1001     0.0000 
      2 O1B        74.0890  137.9430  147.6690 O.co2     1 GDP1001     0.0000 
      3 O2B        76.3270  138.8040  147.7400 O.co2     1 GDP1001     0.0000 
      4 O3B        74.4540  140.3310  147.8140 O.co2     1 GDP1001     0.0000 
      5 O3A        74.9440  138.9210  149.8240 O.3       1 GDP1001     0.0000 
      6 PA         73.7320  138.2140  150.5970 P.3       1 GDP1001     0.0000 
      7 O1A        72.5140  138.2310  149.7680 O.co2     1 GDP1001     0.0000 
      8 O2A        74.1210  136.8150  150.8730 O.co2     1 GDP1001     0.0000 
      9 O5'        73.4400  139.0080  151.9680 O.3       1 GDP1001     0.0000 
     10 C5'        73.9510  138.4830  153.1930 C.3       1 GDP1001     0.0000 
     11 C4'        73.4190  139.1620  154.4690 C.3       1 GDP1001     0.0000 
     12 O4'        73.7500  140.6020  154.3330 O.3       1 GDP1001     0.0000 
     13 C3'        71.9050  139.1170  154.6640 C.3       1 GDP1001     0.0000 
     14 O3'        71.6200  139.1630  156.0770 O.3       1 GDP1001     0.0000 
     15 C2'        71.5170  140.3880  153.9960 C.3       1 GDP1001     0.0000 
     16 O2'        70.1950  140.7860  154.3370 O.3       1 GDP1001     0.0000 
     17 C1'        72.5280  141.3220  154.6300 C.3       1 GDP1001     0.0000 
     18 N9         72.4580  142.6320  153.9690 N.pl3     1 GDP1001     0.0000 
     19 C8         72.9270  142.7370  152.7410 C.2       1 GDP1001     0.0000 
     20 N7         72.7530  143.9750  152.3190 N.2       1 GDP1001     0.0000 
     21 C5         72.1590  144.6410  153.2900 C.2       1 GDP1001     0.0000 
     22 C6         71.7780  145.9030  153.3350 C.2       1 GDP1001     0.0000 
     23 O6         71.9700  146.6560  152.3830 O.2       1 GDP1001     0.0000 
     24 N1         71.1770  146.3870  154.4810 N.am      1 GDP1001     0.0000 
     25 C2         70.9830  145.5160  155.5470 C.2       1 GDP1001     0.0000 
     26 N2         70.4090  145.9660  156.6510 N.pl3     1 GDP1001     0.0000 
     27 N3         71.3810  144.2420  155.4450 N.2       1 GDP1001     0.0000 
     28 C4         71.9710  143.8150  154.3210 C.2       1 GDP1001     0.0000 
     29 H5'        75.0280  138.6190  153.1560 H         1 GDP1001     0.0000 
     30 H5''       73.7190  137.4200  153.2540 H         1 GDP1001     0.0000 
     31 H4'        73.8600  138.6530  155.3080 H         1 GDP1001     0.0000 
     32 H3'        71.4360  138.2360  154.2270 H         1 GDP1001     0.0000 
     33 HO3'       70.6320  139.2080  156.2250 H         1 GDP1001     0.0000 
     34 H2'        71.6800  140.3050  152.9370 H         1 GDP1001     0.0000 
     35 HO2'       70.0920  140.8580  155.3260 H         1 GDP1001     0.0000 
     36 H1'        72.3820  141.3950  155.7020 H         1 GDP1001     0.0000 
     37 H8         73.3830  141.9260  152.1820 H         1 GDP1001     0.0000 
     38 HN1        70.8860  147.3390  154.5340 H         1 GDP1001     0.0000 
     39 HN21       70.1490  146.9290  156.6750 H         1 GDP1001     0.0000 
     40 HN22       70.2480  145.3770  157.4430 H         1 GDP1001     0.0000 
@<TRIPOS>BOND
     1    1    2 ar   
     2    1    3 ar   
     3    1    4 ar   
     4    1    5 1    
     5    5    6 1    
     6    6    7 ar   
     7    6    8 ar   
     8    6    9 1    
     9    9   10 1    
    10   10   11 1    
    11   10   29 1    
    12   10   30 1    
    13   11   12 1    
    14   11   13 1    
    15   11   31 1    
    16   12   17 1    
    17   13   14 1    
    18   13   15 1    
    19   13   32 1    
    20   14   33 1    
    21   15   16 1    
    22   15   17 1    
    23   15   34 1    
    24   16   35 1    
    25   17   18 1    
    26   17   36 1    
    27   18   19 1    
    28   18   28 1    
    29   19   20 2    
    30   19   37 1    
    31   20   21 1    
    32   21   22 1    
    33   21   28 2    
    34   22   23 2    
    35   22   24 am   
    36   24   25 1    
    37   24   38 1    
    38   25   26 1    
    39   25   27 2    
    40   26   39 1    
    41   26   40 1    
    42   27   28 1    
@<TRIPOS>SUBSTRUCTURE
     1 GDP1001     1 GROUP   
@<TRIPOS>SET
ATOM$ORANGE STATIC     ATOMS   COLORGROUP SYSTEM 
20 10 10 11 11 13 13 15 15 17 17 19 19 21 21 22 22 25 \
25 28 28 

