#    Name: 6hz5_1_GNP
#    Modification time : Fri May 22 19:36:51 2020

@<TRIPOS>MOLECULE
6hz5_1_GNP
   45    47     1     0     1
SMALL
NO_CHARGES


@<TRIPOS>ATOM
      1 PG         92.8650   96.9150  105.9140 P.3       1 GNP1001     0.0000 
      2 O1G        92.1850   98.1150  105.3950 O.co2     1 GNP1001     0.0000 
      3 O2G        94.0330   97.3130  106.7180 O.co2     1 GNP1001     0.0000 
      4 O3G        91.9460   96.1180  106.7510 O.co2     1 GNP1001     0.0000 
      5 N3B        93.3160   96.0610  104.7120 N.3       1 GNP1001     0.0000 
      6 PB         94.1690   94.8210  104.9430 P.3       1 GNP1001     0.0000 
      7 O1B        93.3470   93.7650  105.5680 O.co2     1 GNP1001     0.0000 
      8 O2B        95.3470   95.1230  105.7740 O.co2     1 GNP1001     0.0000 
      9 O3A        94.5870   94.4190  103.4590 O.3       1 GNP1001     0.0000 
     10 PA         94.0010   93.0270  102.9680 P.3       1 GNP1001     0.0000 
     11 O1A        92.5410   93.0280  103.1780 O.co2     1 GNP1001     0.0000 
     12 O2A        94.5970   91.9480  103.7770 O.co2     1 GNP1001     0.0000 
     13 O5'        94.2940   92.7900  101.4120 O.3       1 GNP1001     0.0000 
     14 C5'        93.4190   93.4190  100.4780 C.3       1 GNP1001     0.0000 
     15 C4'        93.6170   92.9420   99.0350 C.3       1 GNP1001     0.0000 
     16 O4'        95.0720   92.9390   98.8340 O.3       1 GNP1001     0.0000 
     17 C3'        93.1710   91.5160   98.7940 C.3       1 GNP1001     0.0000 
     18 O3'        92.7990   91.3500   97.4210 O.3       1 GNP1001     0.0000 
     19 C2'        94.4470   90.7810   99.0600 C.3       1 GNP1001     0.0000 
     20 O2'        94.4060   89.4600   98.5120 O.3       1 GNP1001     0.0000 
     21 C1'        95.3870   91.6520   98.2740 C.3       1 GNP1001     0.0000 
     22 N9         96.7670   91.2350   98.5150 N.pl3     1 GNP1001     0.0000 
     23 C8         97.5690   91.6390   99.4870 C.2       1 GNP1001     0.0000 
     24 N7         98.7280   91.0050   99.3500 N.2       1 GNP1001     0.0000 
     25 C5         98.6270   90.1960   98.3020 C.2       1 GNP1001     0.0000 
     26 C6         99.4970   89.3530   97.7570 C.2       1 GNP1001     0.0000 
     27 O6        100.6240   89.2190   98.2310 O.2       1 GNP1001     0.0000 
     28 N1         99.1190   88.6140   96.6380 N.am      1 GNP1001     0.0000 
     29 C2         97.8370   88.7880   96.1300 C.2       1 GNP1001     0.0000 
     30 N2         97.4320   88.1110   95.0700 N.pl3     1 GNP1001     0.0000 
     31 N3         97.0080   89.6470   96.7200 N.2       1 GNP1001     0.0000 
     32 C4         97.4080   90.3390   97.7890 C.2       1 GNP1001     0.0000 
     33 HNB3       93.0100   96.2760  103.7950 H         1 GNP1001     0.0000 
     34 H5'2       93.6240   94.4820  100.5350 H         1 GNP1001     0.0000 
     35 H5'1       92.3940   93.2340  100.7430 H         1 GNP1001     0.0000 
     36 H4'        93.0510   93.5900   98.3740 H         1 GNP1001     0.0000 
     37 H3'        92.3480   91.2150   99.4310 H         1 GNP1001     0.0000 
     38 HO3'       92.5910   90.3910   97.2500 H         1 GNP1001     0.0000 
     39 H2'        94.6940   90.8180  100.0960 H         1 GNP1001     0.0000 
     40 HO2'       93.7100   88.9290   98.9910 H         1 GNP1001     0.0000 
     41 H1'        95.1590   91.6350   97.2150 H         1 GNP1001     0.0000 
     42 H8         97.3270   92.3760  100.2470 H         1 GNP1001     0.0000 
     43 HN1        99.7540   87.9740   96.2090 H         1 GNP1001     0.0000 
     44 HN21       98.0540   87.4670   94.6290 H         1 GNP1001     0.0000 
     45 HN22       96.5050   88.2510   94.7200 H         1 GNP1001     0.0000 
@<TRIPOS>BOND
     1    1    2 ar   
     2    1    3 ar   
     3    1    4 ar   
     4    1    5 1    
     5    5    6 1    
     6    5   33 1    
     7    6    7 ar   
     8    6    8 ar   
     9    6    9 1    
    10    9   10 1    
    11   10   11 ar   
    12   10   12 ar   
    13   10   13 1    
    14   13   14 1    
    15   14   15 1    
    16   14   34 1    
    17   14   35 1    
    18   15   16 1    
    19   15   17 1    
    20   15   36 1    
    21   16   21 1    
    22   17   18 1    
    23   17   19 1    
    24   17   37 1    
    25   18   38 1    
    26   19   20 1    
    27   19   21 1    
    28   19   39 1    
    29   20   40 1    
    30   21   22 1    
    31   21   41 1    
    32   22   23 1    
    33   22   32 1    
    34   23   24 2    
    35   23   42 1    
    36   24   25 1    
    37   25   26 1    
    38   25   32 2    
    39   26   27 2    
    40   26   28 am   
    41   28   29 1    
    42   28   43 1    
    43   29   30 1    
    44   29   31 2    
    45   30   44 1    
    46   30   45 1    
    47   31   32 1    
@<TRIPOS>SUBSTRUCTURE
     1 GNP1001     1 GROUP   
@<TRIPOS>SET
ATOM$ORANGE STATIC     ATOMS   COLORGROUP SYSTEM 
20 14 14 15 15 17 17 19 19 21 21 23 23 25 25 26 26 29 \
29 32 32 

