#    Name: 6hz5_5_GDP_CAVITY_N1_8
#    Modification time : Fri May 22 19:37:08 2020

@<TRIPOS>MOLECULE
6hz5_5_GDP_CAVITY_N1_8
  115     0     7     0     0
SMALL
NO_CHARGES


@<TRIPOS>ATOM
      1 OG         94.3000  112.3000  158.7500 O.3       1 SER1        0.0000 
      2 OG         94.5900  112.7500  157.3500 O.3       1 SER1        0.0000 
      3 OG         97.9700  101.2600  162.3800 O.3       1 SER1        0.0000 
      4 OG         97.3600  106.7400  159.2000 O.3       1 SER1        0.0000 
      5 OG         97.6500  107.1900  157.7900 O.3       1 SER1        0.0000 
      6 OG         95.9000  110.8700  160.2200 O.3       1 SER1        0.0000 
      7 OG         99.3600  101.6500  162.7900 O.3       1 SER1        0.0000 
      8 OG         98.8700  103.0300  163.1300 O.3       1 SER1        0.0000 
      9 OG         99.0400  107.5800  158.2000 O.3       1 SER1        0.0000 
     10 OG         98.2600  108.5100  159.9500 O.3       1 SER1        0.0000 
     11 OG         98.5500  108.9600  158.5500 O.3       1 SER1        0.0000 
     12 OG         97.4900  109.4300  161.6900 O.3       1 SER1        0.0000 
     13 OG         97.7700  109.8800  160.2900 O.3       1 SER1        0.0000 
     14 OG         98.0600  110.3300  158.8900 O.3       1 SER1        0.0000 
     15 OG         97.0000  110.8100  162.0300 O.3       1 SER1        0.0000 
     16 OG         97.5700  111.7100  159.2300 O.3       1 SER1        0.0000 
     17 OG         99.6500  108.9000  160.3600 O.3       1 SER1        0.0000 
     18 OG         99.9400  109.3500  158.9600 O.3       1 SER1        0.0000 
     19 OG        100.2200  109.8000  157.5500 O.3       1 SER1        0.0000 
     20 OG        101.3300  109.7400  159.3600 O.3       1 SER1        0.0000 
     21 N          98.0200  109.9200  153.9300 N.am      2 ALA2        0.0000 
     22 O          96.7500  112.2200  156.0200 O.2       2 ALA2        0.0000 
     23 O          97.0400  112.6700  154.6200 O.2       2 ALA2        0.0000 
     24 O          95.9800  113.1500  157.7600 O.2       2 ALA2        0.0000 
     25 O          96.2700  113.6000  156.3600 O.2       2 ALA2        0.0000 
     26 N          98.0900  103.9500  164.8700 N.am      2 ALA2        0.0000 
     27 N          98.3800  104.4000  163.4700 N.am      2 ALA2        0.0000 
     28 N          99.8900  108.9300  154.0000 N.am      2 ALA2        0.0000 
     29 N          97.9800  108.0600  161.3500 N.am      2 ALA2        0.0000 
     30 N          99.4100  110.3100  154.3400 N.am      2 ALA2        0.0000 
     31 N          99.6900  110.7600  152.9400 N.am      2 ALA2        0.0000 
     32 N          97.2000  108.9800  163.0900 N.am      2 ALA2        0.0000 
     33 O          98.6300  111.2300  156.0800 O.2       2 ALA2        0.0000 
     34 O          98.9200  111.6800  154.6800 O.2       2 ALA2        0.0000 
     35 N          99.3600  108.4500  161.7600 N.am      2 ALA2        0.0000 
     36 N         101.5300  107.9100  160.4200 N.am      2 ALA2        0.0000 
     37 N         103.6100  105.1000  161.5500 N.am      2 ALA2        0.0000 
     38 N         103.1200  106.4800  161.8900 N.am      2 ALA2        0.0000 
     39 N         103.4100  106.9300  160.4900 N.am      2 ALA2        0.0000 
     40 OD1        93.6900  110.9900  156.6000 O.co2     3 ASP3        0.0000 
     41 OD1        94.9900  109.1000  159.4700 O.co2     3 ASP3        0.0000 
     42 OD1        95.2800  109.5500  158.0700 O.co2     3 ASP3        0.0000 
     43 OD1        95.8500  110.4500  155.2700 O.co2     3 ASP3        0.0000 
     44 OD1        96.1400  110.9000  153.8600 O.co2     3 ASP3        0.0000 
     45 OD1        94.5100  110.4800  159.8100 O.co2     3 ASP3        0.0000 
     46 OD1        94.7900  110.9300  158.4100 O.co2     3 ASP3        0.0000 
     47 OD1        95.0800  111.3800  157.0100 O.co2     3 ASP3        0.0000 
     48 OD1        95.3600  111.8300  155.6100 O.co2     3 ASP3        0.0000 
     49 OD1        95.6500  112.2800  154.2100 O.co2     3 ASP3        0.0000 
     50 OD1        94.8800  113.2000  155.9500 O.co2     3 ASP3        0.0000 
     51 OD1        95.1600  113.6500  154.5500 O.co2     3 ASP3        0.0000 
     52 OD1        99.3200  108.0300  156.8000 O.co2     3 ASP3        0.0000 
     53 OD1        99.6100  108.4800  155.4000 O.co2     3 ASP3        0.0000 
     54 OD1       100.9100  106.6000  158.2700 O.co2     3 ASP3        0.0000 
     55 OD1       100.4300  107.9700  158.6100 O.co2     3 ASP3        0.0000 
     56 OD1       100.7100  108.4200  157.2100 O.co2     3 ASP3        0.0000 
     57 OD1       101.0000  108.8700  155.8100 O.co2     3 ASP3        0.0000 
     58 OD1       101.2800  109.3200  154.4100 O.co2     3 ASP3        0.0000 
     59 OD1       102.3000  106.9900  158.6800 O.co2     3 ASP3        0.0000 
     60 NZ         95.4800  107.7200  159.1300 N.4       4 LYS4        0.0000 
     61 NZ         95.7700  108.1700  157.7300 N.4       4 LYS4        0.0000 
     62 NZ         95.5700  110.0000  156.6700 N.4       4 LYS4        0.0000 
     63 NZ         96.7900  105.8400  162.0000 N.4       4 LYS4        0.0000 
     64 NZ         96.8700  108.1200  159.5400 N.4       4 LYS4        0.0000 
     65 NZ         97.1600  108.5700  158.1400 N.4       4 LYS4        0.0000 
     66 NZ         97.4400  109.0200  156.7300 N.4       4 LYS4        0.0000 
     67 NZ         97.7300  109.4700  155.3300 N.4       4 LYS4        0.0000 
     68 NZ         96.1000  109.0400  161.2800 N.4       4 LYS4        0.0000 
     69 NZ         96.3800  109.4900  159.8800 N.4       4 LYS4        0.0000 
     70 NZ         96.9600  110.3900  157.0800 N.4       4 LYS4        0.0000 
     71 NZ         97.2400  110.8400  155.6700 N.4       4 LYS4        0.0000 
     72 NZ         95.6100  110.4200  161.6200 N.4       4 LYS4        0.0000 
     73 NZ        100.4600  101.5900  164.6000 N.4       4 LYS4        0.0000 
     74 NZ         99.9700  102.9700  164.9400 N.4       4 LYS4        0.0000 
     75 NZ        102.1400  102.4300  163.6000 N.4       4 LYS4        0.0000 
     76 NZ        103.6900  107.3800  159.0900 N.4       4 LYS4        0.0000 
     77 CZ         99.1500  103.4800  161.7300 C.ar      5 PHE5        0.0000 
     78 CZ         98.6700  104.8500  162.0700 C.ar      5 PHE5        0.0000 
     79 CZ         98.4600  106.6800  161.0100 C.ar      5 PHE5        0.0000 
     80 CZ         98.7500  107.1300  159.6100 C.ar      5 PHE5        0.0000 
     81 CZ        100.8300  104.3200  160.7300 C.ar      5 PHE5        0.0000 
     82 CZ        101.1200  104.7700  159.3300 C.ar      5 PHE5        0.0000 
     83 CZ        100.3400  105.7000  161.0700 C.ar      5 PHE5        0.0000 
     84 CZ        100.6300  106.1500  159.6700 C.ar      5 PHE5        0.0000 
     85 CZ        100.1400  107.5200  160.0100 C.ar      5 PHE5        0.0000 
     86 CZ        100.5100  110.2500  156.1500 C.ar      5 PHE5        0.0000 
     87 CZ        100.8000  110.7000  154.7500 C.ar      5 PHE5        0.0000 
     88 CZ        101.8100  108.3600  159.0200 C.ar      5 PHE5        0.0000 
     89 CZ        102.1000  108.8100  157.6200 C.ar      5 PHE5        0.0000 
     90 CZ        101.6100  110.1900  157.9600 C.ar      5 PHE5        0.0000 
     91 CA         94.0200  111.8500  160.1600 C.3       6 GLY6        0.0000 
     92 CA         97.0700  106.2900  160.6000 C.3       6 GLY6        0.0000 
     93 CA         97.5300  111.2900  154.2700 C.3       6 GLY6        0.0000 
     94 CA         97.8100  111.7400  152.8700 C.3       6 GLY6        0.0000 
     95 CA         95.1200  111.7900  161.9700 C.3       6 GLY6        0.0000 
     96 CA         95.4100  112.2400  160.5700 C.3       6 GLY6        0.0000 
     97 CA         95.6900  112.7000  159.1600 C.3       6 GLY6        0.0000 
     98 CA         98.3500  110.7800  157.4900 C.3       6 GLY6        0.0000 
     99 CA         97.8600  112.1600  157.8300 C.3       6 GLY6        0.0000 
    100 CA        101.0300  102.4900  161.7900 C.3       6 GLY6        0.0000 
    101 CA        101.3200  102.9400  160.3900 C.3       6 GLY6        0.0000 
    102 CA        100.2600  103.4200  163.5400 C.3       6 GLY6        0.0000 
    103 CA        100.5400  103.8700  162.1300 C.3       6 GLY6        0.0000 
    104 CA         99.7300  111.1800  157.9000 C.3       6 GLY6        0.0000 
    105 CA        102.4200  102.8800  162.2000 C.3       6 GLY6        0.0000 
    106 CA        102.2200  104.7100  161.1400 C.3       6 GLY6        0.0000 
    107 CA        102.5100  105.1600  159.7400 C.3       6 GLY6        0.0000 
    108 CA        102.0200  106.5400  160.0800 C.3       6 GLY6        0.0000 
    109 DU         97.1900  102.1900  164.1200 H         7 CUB7        0.0000 
    110 DU         96.6700  109.9400  158.4800 H         7 CUB7        0.0000 
    111 DU         96.1800  111.3200  158.8200 H         7 CUB7        0.0000 
    112 DU         96.4700  111.7700  157.4200 H         7 CUB7        0.0000 
    113 DU         98.8300  109.4100  157.1400 H         7 CUB7        0.0000 
    114 DU         99.1200  109.8600  155.7400 H         7 CUB7        0.0000 
    115 DU        100.7500  102.0400  163.1900 H         7 CUB7        0.0000 
@<TRIPOS>BOND
@<TRIPOS>SUBSTRUCTURE
     1 SER1        1 GROUP   
     2 ALA2       21 GROUP   
     3 ASP3       40 GROUP   
     4 LYS4       60 GROUP   
     5 PHE5       77 GROUP   
     6 GLY6       91 GROUP   
     7 CUB7      109 GROUP   
@<TRIPOS>SET

