#    Name: 6hz5_5_GDP
#    Modification time : Fri May 22 19:37:07 2020

@<TRIPOS>MOLECULE
6hz5_5_GDP
   40    42     1     0     1
SMALL
NO_CHARGES


@<TRIPOS>ATOM
      1 PB         96.2220  110.9820  156.4820 P.3       1 GDP1001     0.0000 
      2 O1B        96.4770  109.7230  155.7530 O.co2     1 GDP1001     0.0000 
      3 O2B        97.0730  112.0570  155.9280 O.co2     1 GDP1001     0.0000 
      4 O3B        94.7960  111.3510  156.3500 O.co2     1 GDP1001     0.0000 
      5 O3A        96.5790  110.7820  158.0280 O.3       1 GDP1001     0.0000 
      6 PA         96.5090  112.0620  158.9820 P.3       1 GDP1001     0.0000 
      7 O1A        97.3140  113.1580  158.3980 O.co2     1 GDP1001     0.0000 
      8 O2A        95.1030  112.5080  159.0960 O.co2     1 GDP1001     0.0000 
      9 O5'        97.1060  111.6950  160.4560 O.3       1 GDP1001     0.0000 
     10 C5'        96.3590  111.0080  161.4750 C.3       1 GDP1001     0.0000 
     11 C4'        97.3490  110.3510  162.4670 C.3       1 GDP1001     0.0000 
     12 O4'        98.2700  111.3600  163.0560 O.3       1 GDP1001     0.0000 
     13 C3'        96.6900  109.7300  163.6890 C.3       1 GDP1001     0.0000 
     14 O3'        97.6000  108.7900  164.3130 O.3       1 GDP1001     0.0000 
     15 C2'        96.5090  110.9540  164.5490 C.3       1 GDP1001     0.0000 
     16 O2'        96.1470  110.6030  165.8940 O.3       1 GDP1001     0.0000 
     17 C1'        97.9110  111.5190  164.4830 C.3       1 GDP1001     0.0000 
     18 N9         97.9380  112.9030  164.9890 N.pl3     1 GDP1001     0.0000 
     19 C8         97.9460  114.0080  164.2620 C.2       1 GDP1001     0.0000 
     20 N7         97.9560  115.0450  165.0930 N.2       1 GDP1001     0.0000 
     21 C5         97.9370  114.5770  166.3370 C.2       1 GDP1001     0.0000 
     22 C6         97.9300  115.2000  167.5110 C.2       1 GDP1001     0.0000 
     23 O6         97.9480  116.4280  167.5700 O.2       1 GDP1001     0.0000 
     24 N1         97.9110  114.4500  168.6890 N.am      1 GDP1001     0.0000 
     25 C2         97.8950  113.0600  168.5950 C.2       1 GDP1001     0.0000 
     26 N2         97.8730  112.3030  169.6900 N.pl3     1 GDP1001     0.0000 
     27 N3         97.8980  112.4960  167.3820 N.2       1 GDP1001     0.0000 
     28 C4         97.9240  113.2470  166.2710 C.2       1 GDP1001     0.0000 
     29 H5'        95.7760  110.2190  161.0050 H         1 GDP1001     0.0000 
     30 H5''       95.6780  111.7140  161.9300 H         1 GDP1001     0.0000 
     31 H4'        97.8580  109.5840  161.8880 H         1 GDP1001     0.0000 
     32 H3'        95.7560  109.2250  163.4520 H         1 GDP1001     0.0000 
     33 HO3'       98.5570  109.0410  164.1650 H         1 GDP1001     0.0000 
     34 H2'        95.8060  111.6520  164.1300 H         1 GDP1001     0.0000 
     35 HO2'       96.8260  109.9640  166.2660 H         1 GDP1001     0.0000 
     36 H1'        98.5800  110.9200  165.0800 H         1 GDP1001     0.0000 
     37 H8         97.9650  114.0490  163.1780 H         1 GDP1001     0.0000 
     38 HN1        97.9080  114.8990  169.5820 H         1 GDP1001     0.0000 
     39 HN21       97.8600  112.7360  170.5910 H         1 GDP1001     0.0000 
     40 HN22       97.8660  111.3050  169.6150 H         1 GDP1001     0.0000 
@<TRIPOS>BOND
     1    1    2 ar   
     2    1    3 ar   
     3    1    4 ar   
     4    1    5 1    
     5    5    6 1    
     6    6    7 ar   
     7    6    8 ar   
     8    6    9 1    
     9    9   10 1    
    10   10   11 1    
    11   10   29 1    
    12   10   30 1    
    13   11   12 1    
    14   11   13 1    
    15   11   31 1    
    16   12   17 1    
    17   13   14 1    
    18   13   15 1    
    19   13   32 1    
    20   14   33 1    
    21   15   16 1    
    22   15   17 1    
    23   15   34 1    
    24   16   35 1    
    25   17   18 1    
    26   17   36 1    
    27   18   19 1    
    28   18   28 1    
    29   19   20 2    
    30   19   37 1    
    31   20   21 1    
    32   21   22 1    
    33   21   28 2    
    34   22   23 2    
    35   22   24 am   
    36   24   25 1    
    37   24   38 1    
    38   25   26 1    
    39   25   27 2    
    40   26   39 1    
    41   26   40 1    
    42   27   28 1    
@<TRIPOS>SUBSTRUCTURE
     1 GDP1001     1 GROUP   
@<TRIPOS>SET
ATOM$ORANGE STATIC     ATOMS   COLORGROUP SYSTEM 
20 10 10 11 11 13 13 15 15 17 17 19 19 21 21 22 22 25 \
25 28 28 

