#    Name: 6hz5_6_GDP
#    Modification time : Fri May 22 19:37:14 2020

@<TRIPOS>MOLECULE
6hz5_6_GDP
   40    42     1     0     1
SMALL
NO_CHARGES


@<TRIPOS>ATOM
      1 PB        105.1070   89.5210  133.8620 P.3       1 GDP1001     0.0000 
      2 O1B       105.4620   89.5390  132.4290 O.co2     1 GDP1001     0.0000 
      3 O2B       105.7450   90.6770  134.5270 O.co2     1 GDP1001     0.0000 
      4 O3B       103.6400   89.6150  134.0210 O.co2     1 GDP1001     0.0000 
      5 O3A       105.6100   88.1420  134.5020 O.3       1 GDP1001     0.0000 
      6 PA        106.1410   88.0870  136.0100 P.3       1 GDP1001     0.0000 
      7 O1A       107.0350   89.2340  136.2840 O.co2     1 GDP1001     0.0000 
      8 O2A       104.9780   88.1150  136.9140 O.co2     1 GDP1001     0.0000 
      9 O5'       106.9690   86.7300  136.2340 O.3       1 GDP1001     0.0000 
     10 C5'       107.2740   85.9220  135.1030 C.3       1 GDP1001     0.0000 
     11 C4'       107.9540   84.5840  135.4680 C.3       1 GDP1001     0.0000 
     12 O4'       109.3020   84.8940  135.9940 O.3       1 GDP1001     0.0000 
     13 C3'       107.2560   83.8280  136.6050 C.3       1 GDP1001     0.0000 
     14 O3'       107.4380   82.4130  136.4320 O.3       1 GDP1001     0.0000 
     15 C2'       108.0620   84.3070  137.7860 C.3       1 GDP1001     0.0000 
     16 O2'       107.8570   83.4680  138.9290 O.3       1 GDP1001     0.0000 
     17 C1'       109.4450   84.1260  137.2170 C.3       1 GDP1001     0.0000 
     18 N9        110.4640   84.6860  138.1130 N.pl3     1 GDP1001     0.0000 
     19 C8        110.6860   85.9920  138.1220 C.2       1 GDP1001     0.0000 
     20 N7        111.6380   86.2420  139.0090 N.2       1 GDP1001     0.0000 
     21 C5        111.9950   85.0880  139.5580 C.2       1 GDP1001     0.0000 
     22 C6        112.9010   84.8210  140.4890 C.2       1 GDP1001     0.0000 
     23 O6        113.5600   85.7230  140.9940 O.2       1 GDP1001     0.0000 
     24 N1        113.0940   83.5100  140.9070 N.am      1 GDP1001     0.0000 
     25 C2        112.3230   82.5080  140.3220 C.2       1 GDP1001     0.0000 
     26 N2        112.4800   81.2420  140.6970 N.pl3     1 GDP1001     0.0000 
     27 N3        111.4220   82.8390  139.3870 N.2       1 GDP1001     0.0000 
     28 C4        111.2690   84.1160  139.0050 C.2       1 GDP1001     0.0000 
     29 H5'       107.9260   86.4950  134.4590 H         1 GDP1001     0.0000 
     30 H5''      106.3440   85.7130  134.5750 H         1 GDP1001     0.0000 
     31 H4'       107.9510   83.9590  134.5770 H         1 GDP1001     0.0000 
     32 H3'       106.1900   84.0440  136.6760 H         1 GDP1001     0.0000 
     33 HO3'      106.9740   82.1170  135.5970 H         1 GDP1001     0.0000 
     34 H2'       107.8830   85.3560  137.9750 H         1 GDP1001     0.0000 
     35 HO2'      108.0500   82.5180  138.6870 H         1 GDP1001     0.0000 
     36 H1'       109.6530   83.0830  136.9920 H         1 GDP1001     0.0000 
     37 H8        110.1830   86.7260  137.4970 H         1 GDP1001     0.0000 
     38 HN1       113.7710   83.2960  141.6110 H         1 GDP1001     0.0000 
     39 HN21      113.1540   81.0090  141.3990 H         1 GDP1001     0.0000 
     40 HN22      111.9250   80.5250  140.2760 H         1 GDP1001     0.0000 
@<TRIPOS>BOND
     1    1    2 ar   
     2    1    3 ar   
     3    1    4 ar   
     4    1    5 1    
     5    5    6 1    
     6    6    7 ar   
     7    6    8 ar   
     8    6    9 1    
     9    9   10 1    
    10   10   11 1    
    11   10   29 1    
    12   10   30 1    
    13   11   12 1    
    14   11   13 1    
    15   11   31 1    
    16   12   17 1    
    17   13   14 1    
    18   13   15 1    
    19   13   32 1    
    20   14   33 1    
    21   15   16 1    
    22   15   17 1    
    23   15   34 1    
    24   16   35 1    
    25   17   18 1    
    26   17   36 1    
    27   18   19 1    
    28   18   28 1    
    29   19   20 2    
    30   19   37 1    
    31   20   21 1    
    32   21   22 1    
    33   21   28 2    
    34   22   23 2    
    35   22   24 am   
    36   24   25 1    
    37   24   38 1    
    38   25   26 1    
    39   25   27 2    
    40   26   39 1    
    41   26   40 1    
    42   27   28 1    
@<TRIPOS>SUBSTRUCTURE
     1 GDP1001     1 GROUP   
@<TRIPOS>SET
ATOM$ORANGE STATIC     ATOMS   COLORGROUP SYSTEM 
20 10 10 11 11 13 13 15 15 17 17 19 19 21 21 22 22 25 \
25 28 28 

