#    Name: 6hz5_4_GDP_CAVITY_N1_4
#    Modification time : Fri May 22 19:37:00 2020

@<TRIPOS>MOLECULE
6hz5_4_GDP_CAVITY_N1_4
  120     0     7     0     0
SMALL
NO_CHARGES


@<TRIPOS>ATOM
      1 OG         74.6800  135.8400  147.8600 O.3       1 SER1        0.0000 
      2 OG         73.9100  136.7600  149.6000 O.3       1 SER1        0.0000 
      3 OG         74.1900  137.2100  148.2000 O.3       1 SER1        0.0000 
      4 OG         74.4800  137.6600  146.8000 O.3       1 SER1        0.0000 
      5 OG         73.4200  138.1400  149.9500 O.3       1 SER1        0.0000 
      6 OG         73.7100  138.5900  148.5400 O.3       1 SER1        0.0000 
      7 OG         74.5200  138.0800  151.7600 O.3       1 SER1        0.0000 
      8 OG         73.7500  139.0100  153.5000 O.3       1 SER1        0.0000 
      9 OG         74.0300  139.4600  152.1000 O.3       1 SER1        0.0000 
     10 OG         72.9700  139.9300  155.2500 O.3       1 SER1        0.0000 
     11 OG         72.7700  141.7600  154.1900 O.3       1 SER1        0.0000 
     12 OG         73.0600  142.2100  152.7800 O.3       1 SER1        0.0000 
     13 OG         72.5700  143.5900  153.1300 O.3       1 SER1        0.0000 
     14 OG         72.8500  144.0400  151.7200 O.3       1 SER1        0.0000 
     15 OG         72.0800  144.9600  153.4700 O.3       1 SER1        0.0000 
     16 OG         72.3700  145.4100  152.0700 O.3       1 SER1        0.0000 
     17 OG         72.6500  145.8600  150.6600 O.3       1 SER1        0.0000 
     18 OG         76.6000  135.2700  152.8800 O.3       1 SER1        0.0000 
     19 OG         75.6300  138.0200  153.5700 O.3       1 SER1        0.0000 
     20 OG         75.9100  138.4700  152.1700 O.3       1 SER1        0.0000 
     21 OG         73.9600  143.9800  153.5400 O.3       1 SER1        0.0000 
     22 OG         73.4700  145.3500  153.8800 O.3       1 SER1        0.0000 
     23 OG         77.0100  138.4100  153.9800 O.3       1 SER1        0.0000 
     24 O          71.2600  138.6800  151.2800 O.2       2 ALA2        0.0000 
     25 N          70.8100  140.4700  156.5800 N.am      2 ALA2        0.0000 
     26 N          70.3200  141.8500  156.9200 N.am      2 ALA2        0.0000 
     27 N          70.6100  142.3000  155.5200 N.am      2 ALA2        0.0000 
     28 N          69.8300  143.2200  157.2600 N.am      2 ALA2        0.0000 
     29 N          71.2600  145.4700  150.2600 N.am      2 ALA2        0.0000 
     30 N          69.6300  145.0500  156.2100 N.am      2 ALA2        0.0000 
     31 N          69.9200  145.5000  154.8000 N.am      2 ALA2        0.0000 
     32 N          70.2000  145.9500  153.4000 N.am      2 ALA2        0.0000 
     33 O          70.4900  146.4000  152.0000 O.2       2 ALA2        0.0000 
     34 O          75.5800  137.6100  148.6100 O.2       2 ALA2        0.0000 
     35 O          75.8700  138.0600  147.2100 O.2       2 ALA2        0.0000 
     36 N          73.6600  136.7300  155.9600 N.am      2 ALA2        0.0000 
     37 O          75.1000  138.9800  148.9500 O.2       2 ALA2        0.0000 
     38 N          73.1800  138.1100  156.3100 N.am      2 ALA2        0.0000 
     39 N          73.4600  138.5600  154.9000 N.am      2 ALA2        0.0000 
     40 O          74.3200  139.9100  150.7000 O.2       2 ALA2        0.0000 
     41 N          72.4800  141.3100  155.5900 N.am      2 ALA2        0.0000 
     42 N          72.2800  143.1400  154.5300 N.am      2 ALA2        0.0000 
     43 N          71.5100  144.0600  156.2700 N.am      2 ALA2        0.0000 
     44 N          71.7900  144.5100  154.8700 N.am      2 ALA2        0.0000 
     45 N          71.3000  145.8900  155.2100 N.am      2 ALA2        0.0000 
     46 O          77.4600  136.6200  148.6800 O.2       2 ALA2        0.0000 
     47 O          76.6900  137.5500  150.4200 O.2       2 ALA2        0.0000 
     48 O          76.9700  138.0000  149.0200 O.2       2 ALA2        0.0000 
     49 N          75.3400  137.5700  154.9700 N.am      2 ALA2        0.0000 
     50 OD1        75.1700  134.4600  147.5200 O.co2     3 ASP3        0.0000 
     51 OD1        74.4000  135.3900  149.2600 O.co2     3 ASP3        0.0000 
     52 OD1        76.5600  134.8500  147.9300 O.co2     3 ASP3        0.0000 
     53 OD1        76.8500  135.3000  146.5300 O.co2     3 ASP3        0.0000 
     54 OD1        76.6400  137.1300  145.4700 O.co2     3 ASP3        0.0000 
     55 OD1        77.9500  135.2400  148.3400 O.co2     3 ASP3        0.0000 
     56 NZ         69.5800  137.8300  152.2700 N.4       4 LYS4        0.0000 
     57 NZ         71.7400  137.3000  150.9400 N.4       4 LYS4        0.0000 
     58 NZ         70.6800  137.7800  154.0900 N.4       4 LYS4        0.0000 
     59 NZ         70.9700  138.2300  152.6800 N.4       4 LYS4        0.0000 
     60 NZ         75.4600  134.9100  146.1200 N.4       4 LYS4        0.0000 
     61 NZ         74.9700  136.2900  146.4600 N.4       4 LYS4        0.0000 
     62 NZ         73.6200  136.3100  151.0100 N.4       4 LYS4        0.0000 
     63 NZ         73.1300  137.6900  151.3500 N.4       4 LYS4        0.0000 
     64 NZ         72.0700  138.1700  154.4900 N.4       4 LYS4        0.0000 
     65 NZ         72.3600  138.6200  153.0900 N.4       4 LYS4        0.0000 
     66 NZ         75.5000  135.3300  151.0700 N.4       4 LYS4        0.0000 
     67 NZ         75.7900  135.7800  149.6700 N.4       4 LYS4        0.0000 
     68 NZ         74.7300  136.2600  152.8200 N.4       4 LYS4        0.0000 
     69 NZ         73.9500  137.1800  154.5600 N.4       4 LYS4        0.0000 
     70 NZ         74.2400  137.6300  153.1600 N.4       4 LYS4        0.0000 
     71 NZ         76.8900  135.7200  151.4800 N.4       4 LYS4        0.0000 
     72 NZ         77.1800  136.1700  150.0800 N.4       4 LYS4        0.0000 
     73 CZ         68.8100  138.7600  154.0200 C.ar      5 PHE5        0.0000 
     74 CZ         70.1900  139.1500  154.4300 C.ar      5 PHE5        0.0000 
     75 CZ         69.4200  140.0800  156.1700 C.ar      5 PHE5        0.0000 
     76 CZ         69.7100  140.5300  154.7700 C.ar      5 PHE5        0.0000 
     77 CZ         68.9300  141.4500  156.5100 C.ar      5 PHE5        0.0000 
     78 CZ         69.2200  141.9000  155.1100 C.ar      5 PHE5        0.0000 
     79 CZ         70.8900  142.7500  154.1200 C.ar      5 PHE5        0.0000 
     80 CZ         71.1800  143.2000  152.7200 C.ar      5 PHE5        0.0000 
     81 CZ         70.1200  143.6700  155.8600 C.ar      5 PHE5        0.0000 
     82 CZ         70.4000  144.1200  154.4600 C.ar      5 PHE5        0.0000 
     83 CZ         70.6900  144.5700  153.0600 C.ar      5 PHE5        0.0000 
     84 CZ         70.9800  145.0200  151.6600 C.ar      5 PHE5        0.0000 
     85 CZ         71.0200  145.4400  156.6100 C.ar      5 PHE5        0.0000 
     86 CZ         71.5900  146.3400  153.8100 C.ar      5 PHE5        0.0000 
     87 CZ         71.8800  146.7900  152.4100 C.ar      5 PHE5        0.0000 
     88 CZ         75.8300  136.2000  154.6300 C.ar      5 PHE5        0.0000 
     89 CZ         73.1800  144.9000  155.2800 C.ar      5 PHE5        0.0000 
     90 CA         70.4800  139.6000  153.0300 C.3       6 GLY6        0.0000 
     91 CA         75.2600  136.7400  145.0600 C.3       6 GLY6        0.0000 
     92 CA         72.6500  139.0700  151.6900 C.3       6 GLY6        0.0000 
     93 CA         72.9300  139.5200  150.2900 C.3       6 GLY6        0.0000 
     94 CA         71.8700  139.9900  153.4300 C.3       6 GLY6        0.0000 
     95 CA         72.1600  140.4400  152.0300 C.3       6 GLY6        0.0000 
     96 CA         71.3800  141.3700  153.7800 C.3       6 GLY6        0.0000 
     97 CA         71.6700  141.8200  152.3700 C.3       6 GLY6        0.0000 
     98 CA         71.4700  143.6500  151.3200 C.3       6 GLY6        0.0000 
     99 CA         75.2100  134.8800  152.4800 C.3       6 GLY6        0.0000 
    100 CA         74.4400  135.8100  154.2200 C.3       6 GLY6        0.0000 
    101 CA         78.2400  135.6900  146.9300 C.3       6 GLY6        0.0000 
    102 CA         77.7500  137.0700  147.2800 C.3       6 GLY6        0.0000 
    103 CA         76.2000  138.9200  150.7600 C.3       6 GLY6        0.0000 
    104 CA         73.6700  143.5300  154.9400 C.3       6 GLY6        0.0000 
    105 CA         78.8500  137.0100  149.0900 C.3       6 GLY6        0.0000 
    106 CA         78.0800  137.9400  150.8300 C.3       6 GLY6        0.0000 
    107 CA         77.3000  138.8600  152.5800 C.3       6 GLY6        0.0000 
    108 CA         77.5900  139.3100  151.1700 C.3       6 GLY6        0.0000 
    109 DU         71.3000  139.0900  156.2400 H         7 CUB7        0.0000 
    110 DU         71.5800  139.5400  154.8400 H         7 CUB7        0.0000 
    111 DU         71.1000  140.9200  155.1800 H         7 CUB7        0.0000 
    112 DU         76.0700  136.2300  148.2700 H         7 CUB7        0.0000 
    113 DU         76.3600  136.6800  146.8700 H         7 CUB7        0.0000 
    114 DU         75.0100  136.7100  151.4200 H         7 CUB7        0.0000 
    115 DU         75.3000  137.1600  150.0100 H         7 CUB7        0.0000 
    116 DU         74.8100  138.5300  150.3600 H         7 CUB7        0.0000 
    117 DU         76.1100  136.6500  153.2300 H         7 CUB7        0.0000 
    118 DU         76.4000  137.1000  151.8200 H         7 CUB7        0.0000 
    119 DU         77.5000  137.0400  153.6400 H         7 CUB7        0.0000 
    120 DU         77.7900  137.4900  152.2300 H         7 CUB7        0.0000 
@<TRIPOS>BOND
@<TRIPOS>SUBSTRUCTURE
     1 SER1        1 GROUP   
     2 ALA2       24 GROUP   
     3 ASP3       50 GROUP   
     4 LYS4       56 GROUP   
     5 PHE5       73 GROUP   
     6 GLY6       90 GROUP   
     7 CUB7      109 GROUP   
@<TRIPOS>SET

