#    Name: 6hz5_12_GDP
#    Modification time : Fri May 22 19:37:41 2020

@<TRIPOS>MOLECULE
6hz5_12_GDP
   40    42     1     0     1
SMALL
NO_CHARGES


@<TRIPOS>ATOM
      1 PB        146.9650  162.4400  133.8210 P.3       1 GDP1001     0.0000 
      2 O1B       146.6110  162.4140  132.3870 O.co2     1 GDP1001     0.0000 
      3 O2B       146.3090  161.2990  134.4950 O.co2     1 GDP1001     0.0000 
      4 O3B       148.4290  162.3260  133.9830 O.co2     1 GDP1001     0.0000 
      5 O3A       146.4810  163.8320  134.4470 O.3       1 GDP1001     0.0000 
      6 PA        145.9480  163.9080  135.9530 P.3       1 GDP1001     0.0000 
      7 O1A       145.0360  162.7780  136.2370 O.co2     1 GDP1001     0.0000 
      8 O2A       147.1090  163.8710  136.8600 O.co2     1 GDP1001     0.0000 
      9 O5'       145.1400  165.2790  136.1650 O.3       1 GDP1001     0.0000 
     10 C5'       144.8490  166.0820  135.0250 C.3       1 GDP1001     0.0000 
     11 C4'       144.1890  167.4330  135.3770 C.3       1 GDP1001     0.0000 
     12 O4'       142.8350  167.1480  135.9030 O.3       1 GDP1001     0.0000 
     13 C3'       144.8950  168.1890  136.5090 C.3       1 GDP1001     0.0000 
     14 O3'       144.7350  169.6040  136.3240 O.3       1 GDP1001     0.0000 
     15 C2'       144.0810  167.7310  137.6930 C.3       1 GDP1001     0.0000 
     16 O2'       144.2950  168.5770  138.8280 O.3       1 GDP1001     0.0000 
     17 C1'       142.7010  167.9290  137.1200 C.3       1 GDP1001     0.0000 
     18 N9        141.6720  167.3910  138.0190 N.pl3     1 GDP1001     0.0000 
     19 C8        141.4310  166.0890  138.0390 C.2       1 GDP1001     0.0000 
     20 N7        140.4740  165.8610  138.9260 N.2       1 GDP1001     0.0000 
     21 C5        140.1330  167.0250  139.4640 C.2       1 GDP1001     0.0000 
     22 C6        139.2300  167.3140  140.3910 C.2       1 GDP1001     0.0000 
     23 O6        138.5560  166.4260  140.9030 O.2       1 GDP1001     0.0000 
     24 N1        139.0550  168.6310  140.7970 N.am      1 GDP1001     0.0000 
     25 C2        139.8420  169.6160  140.2040 C.2       1 GDP1001     0.0000 
     26 N2        139.7040  170.8880  140.5680 N.pl3     1 GDP1001     0.0000 
     27 N3        140.7400  169.2640  139.2740 N.2       1 GDP1001     0.0000 
     28 C4        140.8740  167.9810  138.9040 C.2       1 GDP1001     0.0000 
     29 H5'       144.1900  165.5120  134.3860 H         1 GDP1001     0.0000 
     30 H5''      145.7830  166.2720  134.4970 H         1 GDP1001     0.0000 
     31 H4'       144.2010  168.0500  134.4810 H         1 GDP1001     0.0000 
     32 H3'       145.9580  167.9580  136.5840 H         1 GDP1001     0.0000 
     33 HO3'      145.2040  169.8860  135.4860 H         1 GDP1001     0.0000 
     34 H2'       144.2440  166.6820  137.8920 H         1 GDP1001     0.0000 
     35 HO2'      144.1180  169.5290  138.5790 H         1 GDP1001     0.0000 
     36 H1'       142.5090  168.9720  136.8850 H         1 GDP1001     0.0000 
     37 H8        141.9240  165.3420  137.4210 H         1 GDP1001     0.0000 
     38 HN1       138.3790  168.8600  141.4980 H         1 GDP1001     0.0000 
     39 HN21      139.0300  171.1280  141.2680 H         1 GDP1001     0.0000 
     40 HN22      140.2650  171.6000  140.1470 H         1 GDP1001     0.0000 
@<TRIPOS>BOND
     1    1    2 ar   
     2    1    3 ar   
     3    1    4 ar   
     4    1    5 1    
     5    5    6 1    
     6    6    7 ar   
     7    6    8 ar   
     8    6    9 1    
     9    9   10 1    
    10   10   11 1    
    11   10   29 1    
    12   10   30 1    
    13   11   12 1    
    14   11   13 1    
    15   11   31 1    
    16   12   17 1    
    17   13   14 1    
    18   13   15 1    
    19   13   32 1    
    20   14   33 1    
    21   15   16 1    
    22   15   17 1    
    23   15   34 1    
    24   16   35 1    
    25   17   18 1    
    26   17   36 1    
    27   18   19 1    
    28   18   28 1    
    29   19   20 2    
    30   19   37 1    
    31   20   21 1    
    32   21   22 1    
    33   21   28 2    
    34   22   23 2    
    35   22   24 am   
    36   24   25 1    
    37   24   38 1    
    38   25   26 1    
    39   25   27 2    
    40   26   39 1    
    41   26   40 1    
    42   27   28 1    
@<TRIPOS>SUBSTRUCTURE
     1 GDP1001     1 GROUP   
@<TRIPOS>SET
ATOM$ORANGE STATIC     ATOMS   COLORGROUP SYSTEM 
20 10 10 11 11 13 13 15 15 17 17 19 19 21 21 22 22 25 \
25 28 28 

