#    Name: 6hz5_12_GDP_CAVITY_N1_4
#    Modification time : Fri May 22 19:37:42 2020

@<TRIPOS>MOLECULE
6hz5_12_GDP_CAVITY_N1_4
  107     0     7     0     0
SMALL
NO_CHARGES


@<TRIPOS>ATOM
      1 OG        144.0600  164.2500  132.6300 O.3       1 SER1        0.0000 
      2 OG        143.8600  166.0800  131.5700 O.3       1 SER1        0.0000 
      3 OG        146.5100  164.1700  129.8900 O.3       1 SER1        0.0000 
      4 OG        145.1600  164.2000  134.4400 O.3       1 SER1        0.0000 
      5 OG        144.6700  165.5700  134.7800 O.3       1 SER1        0.0000 
      6 OG        144.9600  166.0200  133.3800 O.3       1 SER1        0.0000 
      7 OG        143.9000  166.5000  136.5300 O.3       1 SER1        0.0000 
      8 OG        144.1800  166.9500  135.1300 O.3       1 SER1        0.0000 
      9 OG        148.3400  161.3300  137.3800 O.3       1 SER1        0.0000 
     10 OG        148.6300  161.7800  135.9800 O.3       1 SER1        0.0000 
     11 OG        148.1400  163.1500  136.3200 O.3       1 SER1        0.0000 
     12 OG        150.0200  162.1700  136.3900 O.3       1 SER1        0.0000 
     13 OG        149.5300  163.5400  136.7300 O.3       1 SER1        0.0000 
     14 N         146.1000  161.0300  128.8000 N.am      2 ALA2        0.0000 
     15 O         145.0400  161.5000  131.9500 O.2       2 ALA2        0.0000 
     16 N         147.4900  161.4200  129.2100 N.am      2 ALA2        0.0000 
     17 O         145.8500  160.9900  135.1600 O.2       2 ALA2        0.0000 
     18 O         145.0800  161.9200  136.9000 O.2       2 ALA2        0.0000 
     19 O         145.3600  162.3700  135.5000 O.2       2 ALA2        0.0000 
     20 O         145.6500  162.8200  134.1000 O.2       2 ALA2        0.0000 
     21 O         144.8700  163.7500  135.8400 O.2       2 ALA2        0.0000 
     22 N         143.7000  168.3200  135.4700 N.am      2 ALA2        0.0000 
     23 O         146.4700  162.3100  137.3100 O.2       2 ALA2        0.0000 
     24 N         145.0800  168.7200  135.8800 N.am      2 ALA2        0.0000 
     25 N         145.3700  169.1700  134.4800 N.am      2 ALA2        0.0000 
     26 OD1       145.8100  160.5800  130.2000 O.co2     3 ASP3        0.0000 
     27 OD1       145.3200  161.9500  130.5400 O.co2     3 ASP3        0.0000 
     28 OD1       146.1400  161.4400  133.7600 O.co2     3 ASP3        0.0000 
     29 OD1       146.4200  161.8900  132.3600 O.co2     3 ASP3        0.0000 
     30 OD1       146.7100  162.3400  130.9500 O.co2     3 ASP3        0.0000 
     31 OD1       147.0000  162.7900  129.5500 O.co2     3 ASP3        0.0000 
     32 OD1       147.7300  160.0100  135.2300 O.co2     3 ASP3        0.0000 
     33 OD1       148.8700  161.8100  129.6200 O.co2     3 ASP3        0.0000 
     34 OD1       146.9500  160.9300  136.9700 O.co2     3 ASP3        0.0000 
     35 OD1       147.2400  161.3800  135.5700 O.co2     3 ASP3        0.0000 
     36 OD1       147.5300  161.8300  134.1700 O.co2     3 ASP3        0.0000 
     37 OD1       148.1000  162.7300  131.3600 O.co2     3 ASP3        0.0000 
     38 OD1       147.3200  163.6600  133.1100 O.co2     3 ASP3        0.0000 
     39 OD1       146.5500  164.5900  134.8500 O.co2     3 ASP3        0.0000 
     40 OD1       149.4000  160.8500  134.2300 O.co2     3 ASP3        0.0000 
     41 OD1       148.9200  162.2300  134.5800 O.co2     3 ASP3        0.0000 
     42 OD1       149.2000  162.6800  133.1700 O.co2     3 ASP3        0.0000 
     43 OD1       148.4300  163.6000  134.9200 O.co2     3 ASP3        0.0000 
     44 OD1       147.9400  164.9800  135.2600 O.co2     3 ASP3        0.0000 
     45 OD1       147.4500  166.3500  135.6000 O.co2     3 ASP3        0.0000 
     46 OD1       150.3100  162.6200  134.9900 O.co2     3 ASP3        0.0000 
     47 OD1       151.6900  163.0100  135.3900 O.co2     3 ASP3        0.0000 
     48 OD1       151.9800  163.4600  133.9900 O.co2     3 ASP3        0.0000 
     49 NZ        145.4500  164.6500  133.0400 N.4       4 LYS4        0.0000 
     50 NZ        145.7300  165.1000  131.6400 N.4       4 LYS4        0.0000 
     51 NZ        146.0200  165.5500  130.2400 N.4       4 LYS4        0.0000 
     52 NZ        145.2400  166.4700  131.9800 N.4       4 LYS4        0.0000 
     53 NZ        148.3900  163.1800  129.9600 N.4       4 LYS4        0.0000 
     54 NZ        147.6100  164.1100  131.7100 N.4       4 LYS4        0.0000 
     55 NZ        147.9000  164.5600  130.3000 N.4       4 LYS4        0.0000 
     56 NZ        146.8400  165.0400  133.4500 N.4       4 LYS4        0.0000 
     57 NZ        146.0600  165.9600  135.1900 N.4       4 LYS4        0.0000 
     58 NZ        146.3500  166.4100  133.7900 N.4       4 LYS4        0.0000 
     59 NZ        145.8600  167.7900  134.1300 N.4       4 LYS4        0.0000 
     60 NZ        149.1200  160.4000  135.6400 N.4       4 LYS4        0.0000 
     61 NZ        147.2500  168.1800  134.5400 N.4       4 LYS4        0.0000 
     62 NZ        150.7900  161.2400  134.6400 N.4       4 LYS4        0.0000 
     63 NZ        151.0800  161.6900  133.2400 N.4       4 LYS4        0.0000 
     64 NZ        150.5900  163.0700  133.5800 N.4       4 LYS4        0.0000 
     65 CZ        143.9300  161.5600  130.1400 C.ar      5 PHE5        0.0000 
     66 CZ        143.4400  162.9400  130.4800 C.ar      5 PHE5        0.0000 
     67 CZ        145.4100  169.5800  139.4300 C.ar      5 PHE5        0.0000 
     68 CZ        148.3500  168.1200  136.3500 C.ar      5 PHE5        0.0000 
     69 CZ        147.5800  169.0500  138.1000 C.ar      5 PHE5        0.0000 
     70 CZ        147.8600  169.5000  136.7000 C.ar      5 PHE5        0.0000 
     71 CZ        147.3700  170.8700  137.0400 C.ar      5 PHE5        0.0000 
     72 CA        144.5500  162.8800  132.2900 C.3       6 GLY6        0.0000 
     73 CA        143.7700  163.8000  134.0300 C.3       6 GLY6        0.0000 
     74 CA        144.3900  165.1200  136.1900 C.3       6 GLY6        0.0000 
     75 CA        145.9800  163.6900  137.6500 C.3       6 GLY6        0.0000 
     76 CA        146.2600  164.1400  136.2500 C.3       6 GLY6        0.0000 
     77 CA        145.4900  165.0600  138.0000 C.3       6 GLY6        0.0000 
     78 CA        145.7800  165.5100  136.6000 C.3       6 GLY6        0.0000 
     79 CA        145.0000  166.4400  138.3400 C.3       6 GLY6        0.0000 
     80 CA        144.5100  167.8200  138.6800 C.3       6 GLY6        0.0000 
     81 CA        147.8600  162.7000  137.7200 C.3       6 GLY6        0.0000 
     82 CA        147.6500  164.5300  136.6600 C.3       6 GLY6        0.0000 
     83 CA        147.1600  165.9000  137.0000 C.3       6 GLY6        0.0000 
     84 CA        146.3900  166.8300  138.7500 C.3       6 GLY6        0.0000 
     85 CA        145.9000  168.2100  139.0900 C.3       6 GLY6        0.0000 
     86 CA        149.0400  164.9200  137.0700 C.3       6 GLY6        0.0000 
     87 CA        148.5500  166.3000  137.4100 C.3       6 GLY6        0.0000 
     88 CA        147.7800  167.2200  139.1600 C.3       6 GLY6        0.0000 
     89 CA        148.0600  167.6700  137.7600 C.3       6 GLY6        0.0000 
     90 CA        147.2900  168.6000  139.5000 C.3       6 GLY6        0.0000 
     91 DU        145.6100  162.4000  129.1400 H         7 CUB7        0.0000 
     92 DU        144.8300  163.3300  130.8900 H         7 CUB7        0.0000 
     93 DU        145.1200  163.7800  129.4800 H         7 CUB7        0.0000 
     94 DU        144.3400  164.7000  131.2300 H         7 CUB7        0.0000 
     95 DU        145.9400  163.2700  132.7000 H         7 CUB7        0.0000 
     96 DU        146.2200  163.7200  131.3000 H         7 CUB7        0.0000 
     97 DU        146.7500  162.7600  135.9100 H         7 CUB7        0.0000 
     98 DU        147.0400  163.2100  134.5100 H         7 CUB7        0.0000 
     99 DU        145.2900  166.8900  136.9400 H         7 CUB7        0.0000 
    100 DU        145.5700  167.3400  135.5400 H         7 CUB7        0.0000 
    101 DU        144.8000  168.2700  137.2800 H         7 CUB7        0.0000 
    102 DU        146.6800  167.2800  137.3500 H         7 CUB7        0.0000 
    103 DU        146.9600  167.7300  135.9400 H         7 CUB7        0.0000 
    104 DU        146.1900  168.6600  137.6900 H         7 CUB7        0.0000 
    105 DU        146.4700  169.1100  136.2900 H         7 CUB7        0.0000 
    106 DU        145.7000  170.0300  138.0300 H         7 CUB7        0.0000 
    107 DU        147.0900  170.4200  138.4400 H         7 CUB7        0.0000 
@<TRIPOS>BOND
@<TRIPOS>SUBSTRUCTURE
     1 SER1        1 GROUP   
     2 ALA2       14 GROUP   
     3 ASP3       26 GROUP   
     4 LYS4       49 GROUP   
     5 PHE5       65 GROUP   
     6 GLY6       72 GROUP   
     7 CUB7       91 GROUP   
@<TRIPOS>SET

