#    Name: 6hz5_1_GNP_CAVITY_N1_ALL
#    Modification time : Fri May 22 19:36:52 2020

@<TRIPOS>MOLECULE
6hz5_1_GNP_CAVITY_N1_ALL
   90     0     7     0     0
SMALL
NO_CHARGES


@<TRIPOS>ATOM
      1 OG         93.4600   92.8400   97.7600 O.3       1 SER1        0.0000 
      2 OG         95.0500   91.4000   99.2300 O.3       1 SER1        0.0000 
      3 OG         95.3400   91.8500   97.8300 O.3       1 SER1        0.0000 
      4 OG         94.5600   92.7800   99.5700 O.3       1 SER1        0.0000 
      5 OG         96.7300   92.2400   98.2400 O.3       1 SER1        0.0000 
      6 OG         95.9500   93.1700   99.9800 O.3       1 SER1        0.0000 
      7 OG         98.3200   90.8100   99.7100 O.3       1 SER1        0.0000 
      8 OG         98.6100   91.2600   98.3100 O.3       1 SER1        0.0000 
      9 OG        100.2000   89.8200   99.7800 O.3       1 SER1        0.0000 
     10 N          91.7500   91.5800   93.8000 N.am      2 ALA2        0.0000 
     11 N          93.8300   88.7700   94.9300 N.am      2 ALA2        0.0000 
     12 N          94.1100   89.2200   93.5200 N.am      2 ALA2        0.0000 
     13 N          93.3400   90.1400   95.2700 N.am      2 ALA2        0.0000 
     14 N          92.8500   91.5200   95.6100 N.am      2 ALA2        0.0000 
     15 N          93.1300   91.9700   94.2100 N.am      2 ALA2        0.0000 
     16 N          95.9900   88.2300   93.5900 N.am      2 ALA2        0.0000 
     17 N          95.2100   89.1600   95.3400 N.am      2 ALA2        0.0000 
     18 N          94.4400   90.0800   97.0800 N.am      2 ALA2        0.0000 
     19 N          94.2400   91.9100   96.0200 N.am      2 ALA2        0.0000 
     20 N          97.3800   88.6200   94.0000 N.am      2 ALA2        0.0000 
     21 N          96.6000   89.5500   95.7400 N.am      2 ALA2        0.0000 
     22 N          95.8300   90.4700   97.4900 N.am      2 ALA2        0.0000 
     23 N          95.6300   92.3000   96.4300 N.am      2 ALA2        0.0000 
     24 N          97.5000   91.3200   96.5000 N.am      2 ALA2        0.0000 
     25 O          94.8900   93.6400  103.1300 O.2       2 ALA2        0.0000 
     26 O          95.1800   94.0900  101.7300 O.2       2 ALA2        0.0000 
     27 O          94.4000   95.0200  103.4700 O.2       2 ALA2        0.0000 
     28 O          94.6900   95.4700  102.0700 O.2       2 ALA2        0.0000 
     29 OD1        93.3800   90.5600  100.2300 O.co2     3 ASP3        0.0000 
     30 OD1        92.4000   93.3100  100.9100 O.co2     3 ASP3        0.0000 
     31 OD1        93.9900   91.8800  102.3800 O.co2     3 ASP3        0.0000 
     32 OD1        94.2800   92.3300  100.9800 O.co2     3 ASP3        0.0000 
     33 OD1        93.5000   93.2500  102.7200 O.co2     3 ASP3        0.0000 
     34 OD1        93.7900   93.7000  101.3200 O.co2     3 ASP3        0.0000 
     35 OD1        93.0100   94.6300  103.0600 O.co2     3 ASP3        0.0000 
     36 OD1        93.3000   95.0800  101.6600 O.co2     3 ASP3        0.0000 
     37 NZ         91.0500   87.9800   94.1100 N.4       4 LYS4        0.0000 
     38 NZ         90.5600   89.3600   94.4500 N.4       4 LYS4        0.0000 
     39 NZ         90.3600   91.1900   93.3900 N.4       4 LYS4        0.0000 
     40 NZ         92.7200   88.8200   93.1100 N.4       4 LYS4        0.0000 
     41 NZ         92.2300   90.2000   93.4600 N.4       4 LYS4        0.0000 
     42 NZ         92.5200   90.6500   92.0600 N.4       4 LYS4        0.0000 
     43 NZ         92.2800   90.6200   98.4100 N.4       4 LYS4        0.0000 
     44 NZ         92.5600   91.0700   97.0100 N.4       4 LYS4        0.0000 
     45 NZ         96.1900   86.4000   94.6500 N.4       4 LYS4        0.0000 
     46 NZ         96.4800   86.8500   93.2500 N.4       4 LYS4        0.0000 
     47 NZ         93.6600   91.0100   98.8200 N.4       4 LYS4        0.0000 
     48 NZ         93.9500   91.4600   97.4200 N.4       4 LYS4        0.0000 
     49 NZ         93.1800   92.3900   99.1700 N.4       4 LYS4        0.0000 
     50 NZ         97.0900   88.1700   95.4000 N.4       4 LYS4        0.0000 
     51 CZ         91.8600   87.4700   97.3200 C.ar      5 PHE5        0.0000 
     52 CZ         94.5200   85.5600   95.6400 C.ar      5 PHE5        0.0000 
     53 CZ         94.0300   86.9400   95.9900 C.ar      5 PHE5        0.0000 
     54 CZ         93.2500   87.8700   97.7300 C.ar      5 PHE5        0.0000 
     55 CZ         93.5400   88.3200   96.3300 C.ar      5 PHE5        0.0000 
     56 CZ         92.4800   88.7900   99.4700 C.ar      5 PHE5        0.0000 
     57 CZ         92.7600   89.2400   98.0700 C.ar      5 PHE5        0.0000 
     58 CZ         95.4200   87.3300   96.4000 C.ar      5 PHE5        0.0000 
     59 CZ         94.6400   88.2600   98.1400 C.ar      5 PHE5        0.0000 
     60 CZ         94.9300   88.7100   96.7400 C.ar      5 PHE5        0.0000 
     61 CZ         94.1500   89.6300   98.4800 C.ar      5 PHE5        0.0000 
     62 CZ         96.3200   89.1000   97.1500 C.ar      5 PHE5        0.0000 
     63 CZ         95.5400   90.0200   98.8900 C.ar      5 PHE5        0.0000 
     64 CZ         98.4800   88.5600   95.8100 C.ar      5 PHE5        0.0000 
     65 CZ         97.7100   89.4900   97.5600 C.ar      5 PHE5        0.0000 
     66 CZ         97.9900   89.9400   96.1500 C.ar      5 PHE5        0.0000 
     67 CZ         96.9300   90.4200   99.3000 C.ar      5 PHE5        0.0000 
     68 CZ         97.2200   90.8700   97.9000 C.ar      5 PHE5        0.0000 
     69 CZ         99.3000   88.0500   99.0200 C.ar      5 PHE5        0.0000 
     70 CZ         99.5800   88.5000   97.6200 C.ar      5 PHE5        0.0000 
     71 CZ         98.8100   89.4300   99.3700 C.ar      5 PHE5        0.0000 
     72 CZ         99.0900   89.8800   97.9700 C.ar      5 PHE5        0.0000 
     73 CZ         99.3800   90.3300   96.5600 C.ar      5 PHE5        0.0000 
     74 CZ         98.8900   91.7100   96.9100 C.ar      5 PHE5        0.0000 
     75 CZ        100.4800   90.2700   98.3700 C.ar      5 PHE5        0.0000 
     76 CA         90.2700   88.9100   95.8500 C.3       6 GLY6        0.0000 
     77 CA         91.3700   88.8500   97.6600 C.3       6 GLY6        0.0000 
     78 CA         91.6600   89.3000   96.2600 C.3       6 GLY6        0.0000 
     79 CA         91.9500   89.7500   94.8600 C.3       6 GLY6        0.0000 
     80 CA         91.4600   91.1300   95.2000 C.3       6 GLY6        0.0000 
     81 CA         94.7700   90.9500  100.6300 C.3       6 GLY6        0.0000 
     82 CA         96.4400   91.7900   99.6400 C.3       6 GLY6        0.0000 
     83 CA         97.0100   92.6900   96.8400 C.3       6 GLY6        0.0000 
     84 CA         97.8300   92.1800  100.0500 C.3       6 GLY6        0.0000 
     85 DU         92.1500   87.9200   95.9200 H         7 CUB7        0.0000 
     86 DU         92.4400   88.3700   94.5200 H         7 CUB7        0.0000 
     87 DU         94.3100   87.3900   94.5800 H         7 CUB7        0.0000 
     88 DU         94.6000   87.8400   93.1800 H         7 CUB7        0.0000 
     89 DU         93.0500   89.6900   96.6700 H         7 CUB7        0.0000 
     90 DU         95.7000   87.7800   94.9900 H         7 CUB7        0.0000 
@<TRIPOS>BOND
@<TRIPOS>SUBSTRUCTURE
     1 SER1        1 GROUP   
     2 ALA2       10 GROUP   
     3 ASP3       29 GROUP   
     4 LYS4       37 GROUP   
     5 PHE5       51 GROUP   
     6 GLY6       76 GROUP   
     7 CUB7       85 GROUP   
@<TRIPOS>SET

