#    Name: 6hz5_11_GDP_CAVITY_N1_ALL
#    Modification time : Fri May 22 19:37:35 2020

@<TRIPOS>MOLECULE
6hz5_11_GDP_CAVITY_N1_ALL
  122     0     7     0     0
SMALL
NO_CHARGES


@<TRIPOS>ATOM
      1 OG        152.8200  141.5300  157.6200 O.3       1 SER1        0.0000 
      2 OG        154.4400  133.7200  165.0700 O.3       1 SER1        0.0000 
      3 OG        153.9500  135.1000  165.4100 O.3       1 SER1        0.0000 
      4 OG        154.2400  135.5500  164.0100 O.3       1 SER1        0.0000 
      5 OG        153.7500  136.9200  164.3500 O.3       1 SER1        0.0000 
      6 OG        153.5500  138.7500  163.2900 O.3       1 SER1        0.0000 
      7 OG        154.4100  140.1000  159.0900 O.3       1 SER1        0.0000 
      8 OG        153.0600  140.1200  163.6300 O.3       1 SER1        0.0000 
      9 OG        153.9200  141.4800  159.4300 O.3       1 SER1        0.0000 
     10 OG        154.2100  141.9300  158.0300 O.3       1 SER1        0.0000 
     11 OG        153.4300  142.8500  159.7700 O.3       1 SER1        0.0000 
     12 OG        156.5700  139.5600  157.7500 O.3       1 SER1        0.0000 
     13 OG        154.7400  140.9700  162.6400 O.3       1 SER1        0.0000 
     14 OG        155.0200  141.4200  161.2400 O.3       1 SER1        0.0000 
     15 OG        155.3100  141.8700  159.8400 O.3       1 SER1        0.0000 
     16 OG        154.5300  142.7900  161.5800 O.3       1 SER1        0.0000 
     17 OG        157.9600  139.9600  158.1600 O.3       1 SER1        0.0000 
     18 O         152.4900  140.6700  154.0600 O.2       2 ALA2        0.0000 
     19 O         154.3700  139.6800  154.1300 O.2       2 ALA2        0.0000 
     20 O         153.5900  140.6100  155.8700 O.2       2 ALA2        0.0000 
     21 N         153.8800  141.0600  154.4700 N.am      2 ALA2        0.0000 
     22 N         153.3900  142.4300  154.8100 N.am      2 ALA2        0.0000 
     23 O         153.6700  134.6500  166.8100 O.2       2 ALA2        0.0000 
     24 O         155.6700  137.8000  157.0000 O.2       2 ALA2        0.0000 
     25 O         155.1800  139.1700  157.3400 O.2       2 ALA2        0.0000 
     26 O         155.4700  139.6200  155.9400 O.2       2 ALA2        0.0000 
     27 N         152.4900  139.2200  166.4400 N.am      2 ALA2        0.0000 
     28 O         157.0600  138.1900  157.4100 O.2       2 ALA2        0.0000 
     29 N         153.0200  138.2700  171.0500 N.am      2 ALA2        0.0000 
     30 N         153.8800  139.6200  166.8500 N.am      2 ALA2        0.0000 
     31 N         154.1600  140.0700  165.4500 N.am      2 ALA2        0.0000 
     32 N         153.1000  140.5400  168.5900 N.am      2 ALA2        0.0000 
     33 N         153.6800  141.4400  165.7900 N.am      2 ALA2        0.0000 
     34 N         153.9600  141.8900  164.3900 N.am      2 ALA2        0.0000 
     35 N         154.2500  142.3400  162.9800 N.am      2 ALA2        0.0000 
     36 N         152.6100  141.9200  168.9300 N.am      2 ALA2        0.0000 
     37 N         154.0500  144.1700  161.9200 N.am      2 ALA2        0.0000 
     38 O         157.6700  139.5100  159.5600 O.2       2 ALA2        0.0000 
     39 N         155.1800  137.7300  169.7200 N.am      2 ALA2        0.0000 
     40 N         154.7800  141.3800  167.6000 N.am      2 ALA2        0.0000 
     41 N         155.0600  141.8300  166.2000 N.am      2 ALA2        0.0000 
     42 N         154.0000  142.3100  169.3400 N.am      2 ALA2        0.0000 
     43 N         154.2900  142.7600  167.9400 N.am      2 ALA2        0.0000 
     44 N         154.8600  143.6600  165.1400 N.am      2 ALA2        0.0000 
     45 OD1       152.6100  143.3600  156.5600 O.co2     3 ASP3        0.0000 
     46 OD1       155.9600  138.2500  155.6000 O.co2     3 ASP3        0.0000 
     47 OD1       155.7600  140.0700  154.5400 O.co2     3 ASP3        0.0000 
     48 OD1       157.8400  137.2600  155.6700 O.co2     3 ASP3        0.0000 
     49 OD1       157.3500  138.6400  156.0100 O.co2     3 ASP3        0.0000 
     50 OD1       156.8600  140.0100  156.3500 O.co2     3 ASP3        0.0000 
     51 OD1       156.0800  140.9400  158.0900 O.co2     3 ASP3        0.0000 
     52 OD1       156.3700  141.3900  156.6900 O.co2     3 ASP3        0.0000 
     53 OD1       155.5900  142.3200  158.4400 O.co2     3 ASP3        0.0000 
     54 OD1       157.1900  140.8800  159.9000 O.co2     3 ASP3        0.0000 
     55 OD1       158.5800  141.2700  160.3100 O.co2     3 ASP3        0.0000 
     56 OD1       156.0800  139.5000  170.4700 O.co2     3 ASP3        0.0000 
     57 OD1       155.8800  141.3200  169.4100 O.co2     3 ASP3        0.0000 
     58 NZ        155.2700  141.4500  154.8800 N.4       4 LYS4        0.0000 
     59 NZ        154.4900  142.3800  156.6200 N.4       4 LYS4        0.0000 
     60 NZ        154.0000  143.7500  156.9700 N.4       4 LYS4        0.0000 
     61 NZ        155.8800  142.7700  157.0300 N.4       4 LYS4        0.0000 
     62 NZ        154.8200  143.2400  160.1800 N.4       4 LYS4        0.0000 
     63 NZ        155.1100  143.6900  158.7800 N.4       4 LYS4        0.0000 
     64 NZ        154.3300  144.6200  160.5200 N.4       4 LYS4        0.0000 
     65 NZ        156.4100  141.8100  161.6500 N.4       4 LYS4        0.0000 
     66 NZ        156.7000  142.2600  160.2500 N.4       4 LYS4        0.0000 
     67 NZ        153.6300  139.5800  173.2100 N.4       4 LYS4        0.0000 
     68 NZ        155.6400  142.7300  163.3900 N.4       4 LYS4        0.0000 
     69 NZ        155.1500  144.1100  163.7400 N.4       4 LYS4        0.0000 
     70 NZ        155.8000  139.0500  171.8700 N.4       4 LYS4        0.0000 
     71 NZ        157.8000  142.2000  162.0600 N.4       4 LYS4        0.0000 
     72 NZ        157.0300  143.1300  163.8000 N.4       4 LYS4        0.0000 
     73 NZ        156.5400  144.5000  164.1400 N.4       4 LYS4        0.0000 
     74 CZ        153.1800  136.0200  167.1600 C.ar      5 PHE5        0.0000 
     75 CZ        153.4700  136.4700  165.7500 C.ar      5 PHE5        0.0000 
     76 CZ        152.9800  137.8500  166.1000 C.ar      5 PHE5        0.0000 
     77 CZ        152.2000  138.7700  167.8400 C.ar      5 PHE5        0.0000 
     78 CZ        155.3400  135.4900  165.8200 C.ar      5 PHE5        0.0000 
     79 CZ        154.5700  136.4100  167.5700 C.ar      5 PHE5        0.0000 
     80 CZ        154.0800  137.7900  167.9100 C.ar      5 PHE5        0.0000 
     81 CZ        154.3700  138.2400  166.5100 C.ar      5 PHE5        0.0000 
     82 CZ        154.6500  138.6900  165.1000 C.ar      5 PHE5        0.0000 
     83 CZ        153.3100  138.7200  169.6500 C.ar      5 PHE5        0.0000 
     84 CZ        153.5900  139.1700  168.2500 C.ar      5 PHE5        0.0000 
     85 CZ        152.5300  139.6400  171.4000 C.ar      5 PHE5        0.0000 
     86 CZ        152.8200  140.0900  169.9900 C.ar      5 PHE5        0.0000 
     87 CZ        152.3300  141.4700  170.3400 C.ar      5 PHE5        0.0000 
     88 CZ        154.6900  139.1100  170.0600 C.ar      5 PHE5        0.0000 
     89 CZ        154.9800  139.5600  168.6600 C.ar      5 PHE5        0.0000 
     90 CZ        155.2700  140.0100  167.2600 C.ar      5 PHE5        0.0000 
     91 CZ        155.5500  140.4600  165.8500 C.ar      5 PHE5        0.0000 
     92 CZ        155.8400  140.9100  164.4500 C.ar      5 PHE5        0.0000 
     93 CZ        153.9200  140.0300  171.8000 C.ar      5 PHE5        0.0000 
     94 CZ        157.2300  141.3000  164.8600 C.ar      5 PHE5        0.0000 
     95 CZ        156.7400  142.6800  165.2000 C.ar      5 PHE5        0.0000 
     96 CA        152.2000  140.2200  155.4600 C.3       6 GLY6        0.0000 
     97 CA        151.7100  141.5900  155.8100 C.3       6 GLY6        0.0000 
     98 CA        153.3100  140.1600  157.2800 C.3       6 GLY6        0.0000 
     99 CA        154.0400  137.3700  162.9500 C.3       6 GLY6        0.0000 
    100 CA        154.6900  140.5500  157.6800 C.3       6 GLY6        0.0000 
    101 CA        152.7700  139.6700  165.0400 C.3       6 GLY6        0.0000 
    102 CA        152.5700  141.5000  163.9800 C.3       6 GLY6        0.0000 
    103 CA        156.2900  139.1100  159.1500 C.3       6 GLY6        0.0000 
    104 CA        154.9400  139.1400  163.7000 C.3       6 GLY6        0.0000 
    105 CA        155.2200  139.5900  162.3000 C.3       6 GLY6        0.0000 
    106 CA        155.5100  140.0400  160.9000 C.3       6 GLY6        0.0000 
    107 CA        155.8000  140.4900  159.5000 C.3       6 GLY6        0.0000 
    108 CA        156.9000  140.4300  161.3100 C.3       6 GLY6        0.0000 
    109 CA        154.4100  138.6600  171.4600 C.3       6 GLY6        0.0000 
    110 CA        156.1300  141.3600  163.0500 C.3       6 GLY6        0.0000 
    111 CA        158.2900  140.8200  161.7200 C.3       6 GLY6        0.0000 
    112 CA        157.5100  141.7500  163.4600 C.3       6 GLY6        0.0000 
    113 DU        153.1000  141.9800  156.2200 H         7 CUB7        0.0000 
    114 DU        153.2600  138.3000  164.6900 H         7 CUB7        0.0000 
    115 DU        154.9800  141.0000  156.2800 H         7 CUB7        0.0000 
    116 DU        153.7200  143.3000  158.3700 H         7 CUB7        0.0000 
    117 DU        154.4500  140.5200  164.0400 H         7 CUB7        0.0000 
    118 DU        154.2100  140.4800  170.4000 H         7 CUB7        0.0000 
    119 DU        154.4900  140.9300  169.0000 H         7 CUB7        0.0000 
    120 DU        155.3500  142.2800  164.8000 H         7 CUB7        0.0000 
    121 DU        153.7200  141.8600  170.7400 H         7 CUB7        0.0000 
    122 DU        153.5100  143.6900  169.6900 H         7 CUB7        0.0000 
@<TRIPOS>BOND
@<TRIPOS>SUBSTRUCTURE
     1 SER1        1 GROUP   
     2 ALA2       18 GROUP   
     3 ASP3       45 GROUP   
     4 LYS4       58 GROUP   
     5 PHE5       74 GROUP   
     6 GLY6       96 GROUP   
     7 CUB7      113 GROUP   
@<TRIPOS>SET

