#    Name: 6hz5_6_GDP_CAVITY_N1_4
#    Modification time : Fri May 22 19:37:15 2020

@<TRIPOS>MOLECULE
6hz5_6_GDP_CAVITY_N1_4
  114     0     7     0     0
SMALL
NO_CHARGES


@<TRIPOS>ATOM
      1 OG        105.1800   87.6000  128.9700 O.3       1 SER1        0.0000 
      2 OG        102.7700   88.1100  136.6600 O.3       1 SER1        0.0000 
      3 OG        103.6700   89.8700  137.4200 O.3       1 SER1        0.0000 
      4 OG        103.9600   90.3200  136.0100 O.3       1 SER1        0.0000 
      5 OG        103.1800   91.2500  137.7600 O.3       1 SER1        0.0000 
      6 OG        108.3600   84.7300  131.9100 O.3       1 SER1        0.0000 
      7 OG        107.3000   85.2100  135.0500 O.3       1 SER1        0.0000 
      8 OG        107.5900   85.6600  133.6500 O.3       1 SER1        0.0000 
      9 OG        107.8700   86.1100  132.2500 O.3       1 SER1        0.0000 
     10 OG        106.8100   86.5900  135.4000 O.3       1 SER1        0.0000 
     11 OG        107.1000   87.0400  133.9900 O.3       1 SER1        0.0000 
     12 OG        107.3900   87.4900  132.5900 O.3       1 SER1        0.0000 
     13 OG        108.4000   85.1500  136.8700 O.3       1 SER1        0.0000 
     14 N         107.3800   80.6900  133.6200 N.am      2 ALA2        0.0000 
     15 N         106.6000   81.6200  135.3600 N.am      2 ALA2        0.0000 
     16 N         106.8900   82.0700  133.9600 N.am      2 ALA2        0.0000 
     17 N         107.1800   82.5200  132.5600 N.am      2 ALA2        0.0000 
     18 N         107.5000   83.3800  136.1100 N.am      2 ALA2        0.0000 
     19 N         107.7900   83.8300  134.7100 N.am      2 ALA2        0.0000 
     20 N         108.0800   84.2800  133.3100 N.am      2 ALA2        0.0000 
     21 O         105.7500   87.0600  138.5400 O.2       2 ALA2        0.0000 
     22 O         105.5500   88.8900  137.4800 O.2       2 ALA2        0.0000 
     23 O         106.1200   89.7900  134.6800 O.2       2 ALA2        0.0000 
     24 O         106.4100   90.2400  133.2800 O.2       2 ALA2        0.0000 
     25 O         106.6900   90.6900  131.8700 O.2       2 ALA2        0.0000 
     26 O         105.0600   90.2600  137.8200 O.2       2 ALA2        0.0000 
     27 O         105.6300   91.1600  135.0200 O.2       2 ALA2        0.0000 
     28 O         107.7100   88.3500  136.1500 O.2       2 ALA2        0.0000 
     29 O         107.2200   89.7300  136.4900 O.2       2 ALA2        0.0000 
     30 OD1       101.9600   88.6100  133.4500 O.co2     3 ASP3        0.0000 
     31 OD1       103.7500   85.3500  135.9800 O.co2     3 ASP3        0.0000 
     32 OD1       103.8300   87.6300  133.5200 O.co2     3 ASP3        0.0000 
     33 OD1       103.0600   88.5600  135.2600 O.co2     3 ASP3        0.0000 
     34 OD1       103.3400   89.0100  133.8600 O.co2     3 ASP3        0.0000 
     35 OD1       103.6300   89.4600  132.4600 O.co2     3 ASP3        0.0000 
     36 OD1       104.2000   90.3600  129.6500 O.co2     3 ASP3        0.0000 
     37 OD1       102.8600   90.3800  134.2000 O.co2     3 ASP3        0.0000 
     38 OD1       102.3700   91.7600  134.5400 O.co2     3 ASP3        0.0000 
     39 OD1       105.1400   85.7400  136.3900 O.co2     3 ASP3        0.0000 
     40 OD1       104.9400   87.5700  135.3300 O.co2     3 ASP3        0.0000 
     41 OD1       105.2200   88.0200  133.9300 O.co2     3 ASP3        0.0000 
     42 OD1       105.7900   88.9200  131.1200 O.co2     3 ASP3        0.0000 
     43 OD1       104.4500   88.9500  135.6700 O.co2     3 ASP3        0.0000 
     44 OD1       104.7300   89.4000  134.2700 O.co2     3 ASP3        0.0000 
     45 OD1       105.0200   89.8500  132.8700 O.co2     3 ASP3        0.0000 
     46 OD1       105.5900   90.7500  130.0600 O.co2     3 ASP3        0.0000 
     47 OD1       104.2400   90.7700  134.6100 O.co2     3 ASP3        0.0000 
     48 OD1       103.4700   91.7000  136.3600 O.co2     3 ASP3        0.0000 
     49 OD1       103.7600   92.1500  134.9500 O.co2     3 ASP3        0.0000 
     50 OD1       105.3500   90.7100  136.4200 O.co2     3 ASP3        0.0000 
     51 OD1       105.9200   91.6100  133.6200 O.co2     3 ASP3        0.0000 
     52 NZ        101.1800   89.5400  135.1900 N.4       4 LYS4        0.0000 
     53 NZ        101.4700   89.9900  133.7900 N.4       4 LYS4        0.0000 
     54 NZ        104.7300   82.6000  135.3000 N.4       4 LYS4        0.0000 
     55 NZ        105.0100   83.0500  133.8900 N.4       4 LYS4        0.0000 
     56 NZ        104.2400   83.9800  135.6400 N.4       4 LYS4        0.0000 
     57 NZ        104.8900   87.1500  130.3700 N.4       4 LYS4        0.0000 
     58 NZ        104.1200   88.0800  132.1200 N.4       4 LYS4        0.0000 
     59 NZ        104.4100   88.5300  130.7100 N.4       4 LYS4        0.0000 
     60 NZ        102.5700   89.9300  135.6000 N.4       4 LYS4        0.0000 
     61 NZ        102.0800   91.3100  135.9500 N.4       4 LYS4        0.0000 
     62 NZ        106.4000   83.4400  134.3000 N.4       4 LYS4        0.0000 
     63 NZ        106.6900   83.8900  132.9000 N.4       4 LYS4        0.0000 
     64 NZ        106.9700   84.3400  131.5000 N.4       4 LYS4        0.0000 
     65 NZ        105.9100   84.8200  134.6400 N.4       4 LYS4        0.0000 
     66 NZ        106.2000   85.2700  133.2400 N.4       4 LYS4        0.0000 
     67 NZ        106.4900   85.7200  131.8400 N.4       4 LYS4        0.0000 
     68 NZ        105.4200   86.1900  134.9900 N.4       4 LYS4        0.0000 
     69 NZ        105.7100   86.6400  133.5800 N.4       4 LYS4        0.0000 
     70 NZ        106.0000   87.0900  132.1800 N.4       4 LYS4        0.0000 
     71 NZ        106.2800   87.5400  130.7800 N.4       4 LYS4        0.0000 
     72 CZ        104.9300   80.7700  136.3500 C.ar      5 PHE5        0.0000 
     73 CZ        104.4400   82.1500  136.7000 C.ar      5 PHE5        0.0000 
     74 CZ        107.9600   88.3900  129.7900 C.ar      5 PHE5        0.0000 
     75 CZ        107.4700   89.7600  130.1300 C.ar      5 PHE5        0.0000 
     76 CZ        108.8600   90.1500  130.5400 C.ar      5 PHE5        0.0000 
     77 CA        105.5000   81.6700  133.5500 C.3       6 GLY6        0.0000 
     78 CA        103.4600   84.9000  137.3800 C.3       6 GLY6        0.0000 
     79 CA        104.5700   84.8400  139.1900 C.3       6 GLY6        0.0000 
     80 CA        104.8500   85.2900  137.7900 C.3       6 GLY6        0.0000 
     81 CA        104.3600   86.6700  138.1300 C.3       6 GLY6        0.0000 
     82 CA        104.6500   87.1200  136.7300 C.3       6 GLY6        0.0000 
     83 CA        104.1600   88.5000  137.0700 C.3       6 GLY6        0.0000 
     84 CA        106.4400   83.8600  139.2600 C.3       6 GLY6        0.0000 
     85 CA        106.7300   84.3100  137.8600 C.3       6 GLY6        0.0000 
     86 CA        106.2400   85.6900  138.2000 C.3       6 GLY6        0.0000 
     87 CA        106.5300   86.1400  136.8000 C.3       6 GLY6        0.0000 
     88 CA        106.0400   87.5100  137.1400 C.3       6 GLY6        0.0000 
     89 CA        106.3200   87.9600  135.7400 C.3       6 GLY6        0.0000 
     90 CA        106.6100   88.4100  134.3400 C.3       6 GLY6        0.0000 
     91 CA        106.9000   88.8600  132.9300 C.3       6 GLY6        0.0000 
     92 CA        107.1800   89.3100  131.5300 C.3       6 GLY6        0.0000 
     93 CA        105.8400   89.3400  136.0800 C.3       6 GLY6        0.0000 
     94 CA        106.9800   91.1400  130.4700 C.3       6 GLY6        0.0000 
     95 CA        108.1200   84.7000  138.2700 C.3       6 GLY6        0.0000 
     96 CA        107.9200   86.5300  137.2100 C.3       6 GLY6        0.0000 
     97 CA        108.0000   88.8000  134.7500 C.3       6 GLY6        0.0000 
     98 CA        108.3700   91.5300  130.8800 C.3       6 GLY6        0.0000 
     99 DU        105.2100   81.2200  134.9500 H         7 CUB7        0.0000 
    100 DU        104.6900   88.9800  129.3100 H         7 CUB7        0.0000 
    101 DU        106.3200   81.1600  136.7600 H         7 CUB7        0.0000 
    102 DU        105.5400   82.0900  138.5100 H         7 CUB7        0.0000 
    103 DU        105.8300   82.5400  137.1100 H         7 CUB7        0.0000 
    104 DU        106.1200   82.9900  135.7000 H         7 CUB7        0.0000 
    105 DU        105.0500   83.4700  138.8500 H         7 CUB7        0.0000 
    106 DU        105.3400   83.9200  137.4500 H         7 CUB7        0.0000 
    107 DU        105.6300   84.3700  136.0500 H         7 CUB7        0.0000 
    108 DU        106.5700   87.9900  129.3800 H         7 CUB7        0.0000 
    109 DU        105.5100   88.4700  132.5200 H         7 CUB7        0.0000 
    110 DU        106.0800   89.3700  129.7200 H         7 CUB7        0.0000 
    111 DU        107.7100   81.5600  137.1700 H         7 CUB7        0.0000 
    112 DU        107.2200   82.9300  137.5200 H         7 CUB7        0.0000 
    113 DU        107.0200   84.7600  136.4600 H         7 CUB7        0.0000 
    114 DU        107.6700   87.9400  131.1900 H         7 CUB7        0.0000 
@<TRIPOS>BOND
@<TRIPOS>SUBSTRUCTURE
     1 SER1        1 GROUP   
     2 ALA2       14 GROUP   
     3 ASP3       30 GROUP   
     4 LYS4       52 GROUP   
     5 PHE5       72 GROUP   
     6 GLY6       77 GROUP   
     7 CUB7       99 GROUP   
@<TRIPOS>SET

