#    Name: 6hz5_7_GNP_CAVITY_N1_4
#    Modification time : Fri May 22 19:37:21 2020

@<TRIPOS>MOLECULE
6hz5_7_GNP_CAVITY_N1_4
   82     0     7     0     0
SMALL
NO_CHARGES


@<TRIPOS>ATOM
      1 OG        151.2000  161.9100   99.6300 O.3       1 SER1        0.0000 
      2 OG        153.8500  160.0000   97.9600 O.3       1 SER1        0.0000 
      3 OG        153.0800  160.9300   99.7000 O.3       1 SER1        0.0000 
      4 OG        153.3600  161.3800   98.3000 O.3       1 SER1        0.0000 
      5 OG        155.4400  158.5700   99.4300 O.3       1 SER1        0.0000 
      6 OG        155.2400  160.3900   98.3700 O.3       1 SER1        0.0000 
      7 OG        156.8300  158.9600   99.8400 O.3       1 SER1        0.0000 
      8 OG        157.1200  159.4100   98.4300 O.3       1 SER1        0.0000 
      9 OG        157.4100  159.8600   97.0300 O.3       1 SER1        0.0000 
     10 O         150.7100  163.2900   99.9800 O.2       2 ALA2        0.0000 
     11 N         154.2200  162.7300   94.0900 N.am      2 ALA2        0.0000 
     12 N         152.3000  161.8600  101.4500 N.am      2 ALA2        0.0000 
     13 N         153.4500  163.6600   95.8400 N.am      2 ALA2        0.0000 
     14 N         156.0200  159.4700   96.6200 N.am      2 ALA2        0.0000 
     15 N         155.5300  160.8400   96.9600 N.am      2 ALA2        0.0000 
     16 N         155.3300  162.6700   95.9000 N.am      2 ALA2        0.0000 
     17 N         155.6100  163.1200   94.5000 N.am      2 ALA2        0.0000 
     18 N         155.9000  163.5700   93.1000 N.am      2 ALA2        0.0000 
     19 O         156.5500  158.5100  101.2400 O.2       2 ALA2        0.0000 
     20 N         156.9200  161.2400   97.3700 N.am      2 ALA2        0.0000 
     21 N         157.2000  161.6900   95.9700 N.am      2 ALA2        0.0000 
     22 N         157.7800  162.5900   93.1700 N.am      2 ALA2        0.0000 
     23 N         157.0000  163.5100   94.9100 N.am      2 ALA2        0.0000 
     24 N         157.2900  163.9600   93.5100 N.am      2 ALA2        0.0000 
     25 N         159.8600  159.7700   94.2900 N.am      2 ALA2        0.0000 
     26 N         159.3700  161.1500   94.6400 N.am      2 ALA2        0.0000 
     27 N         158.5900  162.0800   96.3800 N.am      2 ALA2        0.0000 
     28 N         158.8800  162.5300   94.9800 N.am      2 ALA2        0.0000 
     29 OD1       158.2200  159.3500  100.2400 O.co2     3 ASP3        0.0000 
     30 OD1       159.4100  161.5700   99.5900 O.co2     3 ASP3        0.0000 
     31 OD1       160.3100  163.3400  100.3500 O.co2     3 ASP3        0.0000 
     32 NZ        153.7300  164.1100   94.4400 N.4       4 LYS4        0.0000 
     33 NZ        155.1200  164.5000   94.8400 N.4       4 LYS4        0.0000 
     34 NZ        155.4100  164.9500   93.4400 N.4       4 LYS4        0.0000 
     35 NZ        156.0200  166.2600   95.6000 N.4       4 LYS4        0.0000 
     36 NZ        158.5100  159.8000   98.8400 N.4       4 LYS4        0.0000 
     37 NZ        158.7900  160.2500   97.4400 N.4       4 LYS4        0.0000 
     38 NZ        159.0800  160.7000   96.0400 N.4       4 LYS4        0.0000 
     39 NZ        160.4700  161.0900   96.4500 N.4       4 LYS4        0.0000 
     40 NZ        159.6900  162.0200   98.1900 N.4       4 LYS4        0.0000 
     41 CZ        151.4900  162.3600   98.2300 C.ar      5 PHE5        0.0000 
     42 CZ        151.7700  162.8100   96.8300 C.ar      5 PHE5        0.0000 
     43 CZ        154.1400  160.4500   96.5600 C.ar      5 PHE5        0.0000 
     44 CZ        153.6500  161.8300   96.9000 C.ar      5 PHE5        0.0000 
     45 CZ        153.9400  162.2800   95.5000 C.ar      5 PHE5        0.0000 
     46 CZ        152.5900  162.3100  100.0400 C.ar      5 PHE5        0.0000 
     47 CZ        152.8800  162.7600   98.6400 C.ar      5 PHE5        0.0000 
     48 CZ        153.1600  163.2100   97.2400 C.ar      5 PHE5        0.0000 
     49 CZ        152.6700  164.5800   97.5800 C.ar      5 PHE5        0.0000 
     50 CZ        154.4700  161.3200  100.1100 C.ar      5 PHE5        0.0000 
     51 CZ        154.7500  161.7700   98.7100 C.ar      5 PHE5        0.0000 
     52 CZ        155.0400  162.2200   97.3100 C.ar      5 PHE5        0.0000 
     53 CZ        154.8400  164.0500   96.2500 C.ar      5 PHE5        0.0000 
     54 CZ        154.3500  165.4200   96.5900 C.ar      5 PHE5        0.0000 
     55 CZ        156.6300  160.7900   98.7800 C.ar      5 PHE5        0.0000 
     56 CZ        156.4300  162.6100   97.7200 C.ar      5 PHE5        0.0000 
     57 CZ        156.7100  163.0600   96.3100 C.ar      5 PHE5        0.0000 
     58 CZ        156.5100  164.8900   95.2500 C.ar      5 PHE5        0.0000 
     59 CZ        158.0200  161.1800   99.1800 C.ar      5 PHE5        0.0000 
     60 CZ        157.8200  163.0000   98.1300 C.ar      5 PHE5        0.0000 
     61 CZ        158.1000  163.4500   96.7200 C.ar      5 PHE5        0.0000 
     62 CZ        157.9000  165.2800   95.6600 C.ar      5 PHE5        0.0000 
     63 CZ        158.9200  162.9400   99.9400 C.ar      5 PHE5        0.0000 
     64 CZ        159.2100  163.3900   98.5300 C.ar      5 PHE5        0.0000 
     65 CZ        159.4900  163.8400   97.1300 C.ar      5 PHE5        0.0000 
     66 CZ        159.0000  165.2200   97.4700 C.ar      5 PHE5        0.0000 
     67 CZ        160.6000  163.7900   98.9400 C.ar      5 PHE5        0.0000 
     68 CZ        160.1100  165.1600   99.2900 C.ar      5 PHE5        0.0000 
     69 CA        152.1000  163.6800  100.3900 C.3       6 GLY6        0.0000 
     70 CA        152.3900  164.1300   98.9800 C.3       6 GLY6        0.0000 
     71 CA        156.3400  160.3400  100.1800 C.3       6 GLY6        0.0000 
     72 CA        157.7300  160.7300  100.5900 C.3       6 GLY6        0.0000 
     73 CA        161.2400  160.1700   94.7000 C.3       6 GLY6        0.0000 
     74 CA        160.7600  161.5400   95.0500 C.3       6 GLY6        0.0000 
     75 CA        159.9800  162.4700   96.7900 C.3       6 GLY6        0.0000 
     76 CA        160.2700  162.9200   95.3900 C.3       6 GLY6        0.0000 
     77 CA        161.0800  162.4100   98.6000 C.3       6 GLY6        0.0000 
     78 CA        161.6600  163.3100   95.8000 C.3       6 GLY6        0.0000 
     79 CA        160.8800  164.2400   97.5400 C.3       6 GLY6        0.0000 
     80 DU        158.3100  161.6300   97.7800 H         7 CUB7        0.0000 
     81 DU        158.3900  163.9000   95.3200 H         7 CUB7        0.0000 
     82 DU        159.7800  164.3000   95.7300 H         7 CUB7        0.0000 
@<TRIPOS>BOND
@<TRIPOS>SUBSTRUCTURE
     1 SER1        1 GROUP   
     2 ALA2       10 GROUP   
     3 ASP3       29 GROUP   
     4 LYS4       32 GROUP   
     5 PHE5       41 GROUP   
     6 GLY6       69 GROUP   
     7 CUB7       80 GROUP   
@<TRIPOS>SET

