#    Name: 6hz5_7_GNP
#    Modification time : Fri May 22 19:37:20 2020

@<TRIPOS>MOLECULE
6hz5_7_GNP
   45    47     1     0     1
SMALL
NO_CHARGES


@<TRIPOS>ATOM
      1 PG        159.1350  155.0850  105.9140 P.3       1 GNP1001     0.0000 
      2 O1G       159.8150  153.8850  105.3950 O.co2     1 GNP1001     0.0000 
      3 O2G       157.9670  154.6870  106.7180 O.co2     1 GNP1001     0.0000 
      4 O3G       160.0540  155.8820  106.7510 O.co2     1 GNP1001     0.0000 
      5 N3B       158.6840  155.9390  104.7120 N.3       1 GNP1001     0.0000 
      6 PB        157.8310  157.1790  104.9430 P.3       1 GNP1001     0.0000 
      7 O1B       158.6530  158.2350  105.5680 O.co2     1 GNP1001     0.0000 
      8 O2B       156.6530  156.8770  105.7740 O.co2     1 GNP1001     0.0000 
      9 O3A       157.4130  157.5810  103.4590 O.3       1 GNP1001     0.0000 
     10 PA        157.9990  158.9730  102.9680 P.3       1 GNP1001     0.0000 
     11 O1A       159.4590  158.9720  103.1780 O.co2     1 GNP1001     0.0000 
     12 O2A       157.4030  160.0520  103.7770 O.co2     1 GNP1001     0.0000 
     13 O5'       157.7060  159.2100  101.4120 O.3       1 GNP1001     0.0000 
     14 C5'       158.5810  158.5810  100.4780 C.3       1 GNP1001     0.0000 
     15 C4'       158.3830  159.0580   99.0350 C.3       1 GNP1001     0.0000 
     16 O4'       156.9280  159.0610   98.8340 O.3       1 GNP1001     0.0000 
     17 C3'       158.8290  160.4840   98.7940 C.3       1 GNP1001     0.0000 
     18 O3'       159.2010  160.6500   97.4210 O.3       1 GNP1001     0.0000 
     19 C2'       157.5530  161.2190   99.0600 C.3       1 GNP1001     0.0000 
     20 O2'       157.5940  162.5400   98.5120 O.3       1 GNP1001     0.0000 
     21 C1'       156.6130  160.3480   98.2740 C.3       1 GNP1001     0.0000 
     22 N9        155.2330  160.7650   98.5150 N.pl3     1 GNP1001     0.0000 
     23 C8        154.4310  160.3610   99.4870 C.2       1 GNP1001     0.0000 
     24 N7        153.2720  160.9950   99.3500 N.2       1 GNP1001     0.0000 
     25 C5        153.3730  161.8050   98.3020 C.2       1 GNP1001     0.0000 
     26 C6        152.5030  162.6470   97.7570 C.2       1 GNP1001     0.0000 
     27 O6        151.3760  162.7810   98.2310 O.2       1 GNP1001     0.0000 
     28 N1        152.8810  163.3860   96.6380 N.am      1 GNP1001     0.0000 
     29 C2        154.1630  163.2120   96.1300 C.2       1 GNP1001     0.0000 
     30 N2        154.5680  163.8890   95.0700 N.pl3     1 GNP1001     0.0000 
     31 N3        154.9920  162.3530   96.7200 N.2       1 GNP1001     0.0000 
     32 C4        154.5920  161.6610   97.7890 C.2       1 GNP1001     0.0000 
     33 HNB3      158.9970  155.7180  103.7930 H         1 GNP1001     0.0000 
     34 H5'2      158.3760  157.5180  100.5350 H         1 GNP1001     0.0000 
     35 H5'1      159.6060  158.7660  100.7430 H         1 GNP1001     0.0000 
     36 H4'       158.9490  158.4100   98.3740 H         1 GNP1001     0.0000 
     37 H3'       159.6520  160.7850   99.4310 H         1 GNP1001     0.0000 
     38 HO3'      159.4090  161.6090   97.2500 H         1 GNP1001     0.0000 
     39 H2'       157.3060  161.1820  100.0960 H         1 GNP1001     0.0000 
     40 HO2'      158.2900  163.0710   98.9910 H         1 GNP1001     0.0000 
     41 H1'       156.8410  160.3650   97.2150 H         1 GNP1001     0.0000 
     42 H8        154.6730  159.6240  100.2460 H         1 GNP1001     0.0000 
     43 HN1       152.2460  164.0260   96.2090 H         1 GNP1001     0.0000 
     44 HN21      153.9460  164.5330   94.6290 H         1 GNP1001     0.0000 
     45 HN22      155.4950  163.7500   94.7200 H         1 GNP1001     0.0000 
@<TRIPOS>BOND
     1    1    2 ar   
     2    1    3 ar   
     3    1    4 ar   
     4    1    5 1    
     5    5    6 1    
     6    5   33 1    
     7    6    7 ar   
     8    6    8 ar   
     9    6    9 1    
    10    9   10 1    
    11   10   11 ar   
    12   10   12 ar   
    13   10   13 1    
    14   13   14 1    
    15   14   15 1    
    16   14   34 1    
    17   14   35 1    
    18   15   16 1    
    19   15   17 1    
    20   15   36 1    
    21   16   21 1    
    22   17   18 1    
    23   17   19 1    
    24   17   37 1    
    25   18   38 1    
    26   19   20 1    
    27   19   21 1    
    28   19   39 1    
    29   20   40 1    
    30   21   22 1    
    31   21   41 1    
    32   22   23 1    
    33   22   32 1    
    34   23   24 2    
    35   23   42 1    
    36   24   25 1    
    37   25   26 1    
    38   25   32 2    
    39   26   27 2    
    40   26   28 am   
    41   28   29 1    
    42   28   43 1    
    43   29   30 1    
    44   29   31 2    
    45   30   44 1    
    46   30   45 1    
    47   31   32 1    
@<TRIPOS>SUBSTRUCTURE
     1 GNP1001     1 GROUP   
@<TRIPOS>SET
ATOM$ORANGE STATIC     ATOMS   COLORGROUP SYSTEM 
20 14 14 15 15 17 17 19 19 21 21 23 23 25 25 26 26 29 \
29 32 32 

