#    Name: 6hz5_10_GDP_CAVITY_N1_6
#    Modification time : Fri May 22 19:37:28 2020

@<TRIPOS>MOLECULE
6hz5_10_GDP_CAVITY_N1_6
   96     0     7     0     0
SMALL
NO_CHARGES


@<TRIPOS>ATOM
      1 OG        175.4500  113.4600  151.6200 O.3       1 SER1        0.0000 
      2 OG        174.6800  114.3900  153.3600 O.3       1 SER1        0.0000 
      3 OG        173.9000  115.3100  155.1100 O.3       1 SER1        0.0000 
      4 OG        174.1900  115.7600  153.7100 O.3       1 SER1        0.0000 
      5 OG        173.9900  117.5900  152.6500 O.3       1 SER1        0.0000 
      6 OG        173.5000  118.9700  152.9900 O.3       1 SER1        0.0000 
      7 OG        177.3300  112.4800  151.6900 O.3       1 SER1        0.0000 
      8 OG        178.1900  113.8300  147.4800 O.3       1 SER1        0.0000 
      9 OG        178.4800  114.2800  146.0800 O.3       1 SER1        0.0000 
     10 OG        176.8400  113.8500  152.0300 O.3       1 SER1        0.0000 
     11 OG        177.4100  114.7500  149.2300 O.3       1 SER1        0.0000 
     12 OG        177.7000  115.2000  147.8200 O.3       1 SER1        0.0000 
     13 OG        177.9900  115.6500  146.4200 O.3       1 SER1        0.0000 
     14 OG        176.0700  114.7800  153.7700 O.3       1 SER1        0.0000 
     15 OG        175.8700  116.6000  152.7100 O.3       1 SER1        0.0000 
     16 OG        175.3800  117.9800  153.0600 O.3       1 SER1        0.0000 
     17 OG        179.2900  113.7700  149.2900 O.3       1 SER1        0.0000 
     18 OG        177.9500  113.7900  153.8400 O.3       1 SER1        0.0000 
     19 OG        178.8000  115.1400  149.6300 O.3       1 SER1        0.0000 
     20 O         172.4700  114.5000  149.7400 O.2       2 ALA2        0.0000 
     21 N         171.7800  117.7100  149.0200 N.am      2 ALA2        0.0000 
     22 O         174.3500  113.5200  149.8100 O.2       2 ALA2        0.0000 
     23 O         174.6400  113.9700  148.4100 O.2       2 ALA2        0.0000 
     24 O         173.8600  114.9000  150.1500 O.2       2 ALA2        0.0000 
     25 O         174.1500  115.3500  148.7500 O.2       2 ALA2        0.0000 
     26 N         172.6000  117.2000  152.2400 N.am      2 ALA2        0.0000 
     27 N         172.8800  117.6500  150.8400 N.am      2 ALA2        0.0000 
     28 O         176.5100  112.9800  148.4700 O.2       2 ALA2        0.0000 
     29 O         175.7400  113.9100  150.2200 O.2       2 ALA2        0.0000 
     30 O         176.0300  114.3600  148.8200 O.2       2 ALA2        0.0000 
     31 N         174.3900  113.9400  154.7700 N.am      2 ALA2        0.0000 
     32 N         173.6200  114.8600  156.5100 N.am      2 ALA2        0.0000 
     33 O         177.9000  113.3800  148.8800 O.2       2 ALA2        0.0000 
     34 N         177.1700  114.7200  155.5800 N.am      2 ALA2        0.0000 
     35 O         180.4000  113.7100  151.1000 O.2       2 ALA2        0.0000 
     36 OD1       175.4100  113.0400  146.6600 O.co2     3 ASP3        0.0000 
     37 OD1       175.2100  114.8700  145.6000 O.co2     3 ASP3        0.0000 
     38 OD1       173.9500  117.1700  147.6900 O.co2     3 ASP3        0.0000 
     39 OD1       176.8000  113.4300  147.0700 O.co2     3 ASP3        0.0000 
     40 OD1       175.8200  116.1900  147.7600 O.co2     3 ASP3        0.0000 
     41 OD1       176.1100  116.6400  146.3500 O.co2     3 ASP3        0.0000 
     42 OD1       176.6400  115.6800  150.9700 O.co2     3 ASP3        0.0000 
     43 OD1       176.9300  116.1300  149.5700 O.co2     3 ASP3        0.0000 
     44 OD1       177.2100  116.5800  148.1700 O.co2     3 ASP3        0.0000 
     45 OD1       177.5400  117.4500  151.7200 O.co2     3 ASP3        0.0000 
     46 NZ        175.5000  115.3200  144.2000 N.4       4 LYS4        0.0000 
     47 NZ        173.3700  116.2700  150.4900 N.4       4 LYS4        0.0000 
     48 NZ        173.6600  116.7200  149.0900 N.4       4 LYS4        0.0000 
     49 NZ        173.1700  118.1000  149.4300 N.4       4 LYS4        0.0000 
     50 NZ        176.6000  115.2600  146.0100 N.4       4 LYS4        0.0000 
     51 NZ        176.8800  115.7100  144.6100 N.4       4 LYS4        0.0000 
     52 NZ        175.5400  115.7400  149.1600 N.4       4 LYS4        0.0000 
     53 NZ        174.7600  116.6600  150.9000 N.4       4 LYS4        0.0000 
     54 NZ        177.5000  117.0300  146.7600 N.4       4 LYS4        0.0000 
     55 NZ        176.1500  117.0500  151.3100 N.4       4 LYS4        0.0000 
     56 NZ        178.2300  114.2400  152.4400 N.4       4 LYS4        0.0000 
     57 NZ        178.5200  114.6900  151.0400 N.4       4 LYS4        0.0000 
     58 NZ        177.7400  115.6200  152.7800 N.4       4 LYS4        0.0000 
     59 NZ        178.0300  116.0700  151.3800 N.4       4 LYS4        0.0000 
     60 CZ        170.6000  115.4900  149.6700 C.ar      5 PHE5        0.0000 
     61 CZ        172.1900  114.0500  151.1400 C.ar      5 PHE5        0.0000 
     62 CZ        171.7000  115.4300  151.4900 C.ar      5 PHE5        0.0000 
     63 CZ        173.2900  114.0000  152.9500 C.ar      5 PHE5        0.0000 
     64 CZ        172.5100  114.9200  154.7000 C.ar      5 PHE5        0.0000 
     65 CZ        175.2900  115.7000  155.5200 C.ar      5 PHE5        0.0000 
     66 CZ        175.5800  116.1500  154.1200 C.ar      5 PHE5        0.0000 
     67 CZ        176.9700  116.5500  154.5200 C.ar      5 PHE5        0.0000 
     68 CA        170.8800  115.9400  148.2700 C.3       6 GLY6        0.0000 
     69 CA        171.1700  116.3900  146.8700 C.3       6 GLY6        0.0000 
     70 CA        172.7600  114.9500  148.3400 C.3       6 GLY6        0.0000 
     71 CA        173.3300  115.8500  145.5400 C.3       6 GLY6        0.0000 
     72 CA        172.2700  116.3300  148.6800 C.3       6 GLY6        0.0000 
     73 CA        172.5600  116.7800  147.2800 C.3       6 GLY6        0.0000 
     74 CA        174.0600  113.0700  151.2100 C.3       6 GLY6        0.0000 
     75 CA        174.9200  114.4200  147.0100 C.3       6 GLY6        0.0000 
     76 CA        172.7200  113.0900  155.7600 C.3       6 GLY6        0.0000 
     77 CA        173.0000  113.5500  154.3600 C.3       6 GLY6        0.0000 
     78 CA        174.4300  115.8000  147.3500 C.3       6 GLY6        0.0000 
     79 CA        174.7200  116.2500  145.9500 C.3       6 GLY6        0.0000 
     80 CA        176.2300  112.5300  149.8800 C.3       6 GLY6        0.0000 
     81 CA        177.0900  113.8800  145.6700 C.3       6 GLY6        0.0000 
     82 CA        177.6200  112.9300  150.2900 C.3       6 GLY6        0.0000 
     83 CA        179.0100  113.3200  150.6900 C.3       6 GLY6        0.0000 
     84 CA        177.4600  115.1700  154.1800 C.3       6 GLY6        0.0000 
     85 CA        177.2500  117.0000  153.1200 C.3       6 GLY6        0.0000 
     86 CA        176.7700  118.3700  153.4700 C.3       6 GLY6        0.0000 
     87 DU        171.9800  115.8800  150.0800 H         7 CUB7        0.0000 
     88 DU        173.5800  114.4500  151.5500 H         7 CUB7        0.0000 
     89 DU        172.8000  115.3700  153.3000 H         7 CUB7        0.0000 
     90 DU        173.0900  115.8200  151.9000 H         7 CUB7        0.0000 
     91 DU        176.3100  114.8100  147.4100 H         7 CUB7        0.0000 
     92 DU        174.9600  114.8400  151.9600 H         7 CUB7        0.0000 
     93 DU        175.2500  115.2900  150.5600 H         7 CUB7        0.0000 
     94 DU        174.4800  116.2100  152.3000 H         7 CUB7        0.0000 
     95 DU        177.1300  114.3000  150.6300 H         7 CUB7        0.0000 
     96 DU        176.3500  115.2300  152.3700 H         7 CUB7        0.0000 
@<TRIPOS>BOND
@<TRIPOS>SUBSTRUCTURE
     1 SER1        1 GROUP   
     2 ALA2       20 GROUP   
     3 ASP3       36 GROUP   
     4 LYS4       46 GROUP   
     5 PHE5       60 GROUP   
     6 GLY6       68 GROUP   
     7 CUB7       87 GROUP   
@<TRIPOS>SET

