#    Name: 6hz5_10_GDP
#    Modification time : Fri May 22 19:37:27 2020

@<TRIPOS>MOLECULE
6hz5_10_GDP
   40    42     1     0     1
SMALL
NO_CHARGES


@<TRIPOS>ATOM
      1 PB        176.8130  113.0290  148.1870 P.3       1 GDP1001     0.0000 
      2 O1B       177.6730  114.0960  147.6340 O.co2     1 GDP1001     0.0000 
      3 O2B       175.4410  113.2180  147.6780 O.co2     1 GDP1001     0.0000 
      4 O3B       177.3240  111.7060  147.7790 O.co2     1 GDP1001     0.0000 
      5 O3A       176.7980  113.1160  149.7790 O.3       1 GDP1001     0.0000 
      6 PA        177.9940  113.8330  150.5670 P.3       1 GDP1001     0.0000 
      7 O1A       179.2230  113.8240  149.7530 O.co2     1 GDP1001     0.0000 
      8 O2A       177.5910  115.2290  150.8350 O.co2     1 GDP1001     0.0000 
      9 O5'       178.2750  113.0440  151.9430 O.3       1 GDP1001     0.0000 
     10 C5'       177.7440  113.5670  153.1600 C.3       1 GDP1001     0.0000 
     11 C4'       178.2650  112.8940  154.4440 C.3       1 GDP1001     0.0000 
     12 O4'       177.9460  111.4510  154.3060 O.3       1 GDP1001     0.0000 
     13 C3'       179.7760  112.9510  154.6580 C.3       1 GDP1001     0.0000 
     14 O3'       180.0430  112.9090  156.0740 O.3       1 GDP1001     0.0000 
     15 C2'       180.1820  111.6810  153.9980 C.3       1 GDP1001     0.0000 
     16 O2'       181.5030  111.2940  154.3560 O.3       1 GDP1001     0.0000 
     17 C1'       179.1700  110.7400  154.6200 C.3       1 GDP1001     0.0000 
     18 N9        179.2580  109.4310  153.9620 N.pl3     1 GDP1001     0.0000 
     19 C8        178.8050  109.3200  152.7290 C.2       1 GDP1001     0.0000 
     20 N7        178.9950  108.0820  152.3110 N.2       1 GDP1001     0.0000 
     21 C5        179.5810  107.4230  153.2910 C.2       1 GDP1001     0.0000 
     22 C6        179.9710  106.1630  153.3430 C.2       1 GDP1001     0.0000 
     23 O6        179.7960  105.4080  152.3900 O.2       1 GDP1001     0.0000 
     24 N1        180.5600  105.6860  154.4970 N.am      1 GDP1001     0.0000 
     25 C2        180.7350  106.5600  155.5640 C.2       1 GDP1001     0.0000 
     26 N2        181.2970  106.1160  156.6760 N.pl3     1 GDP1001     0.0000 
     27 N3        180.3280  107.8310  155.4540 N.2       1 GDP1001     0.0000 
     28 C4        179.7490  108.2510  154.3220 C.2       1 GDP1001     0.0000 
     29 H5'       176.6680  113.4230  153.1100 H         1 GDP1001     0.0000 
     30 H5''      177.9670  114.6320  153.2220 H         1 GDP1001     0.0000 
     31 H4'       177.8090  113.4000  155.2760 H         1 GDP1001     0.0000 
     32 H3'       180.2440  113.8350  154.2250 H         1 GDP1001     0.0000 
     33 HO3'      181.0290  112.8720  156.2370 H         1 GDP1001     0.0000 
     34 H2'       180.0330  111.7610  152.9360 H         1 GDP1001     0.0000 
     35 HO2'      181.5940  111.2240  155.3470 H         1 GDP1001     0.0000 
     36 H1'       179.3020  110.6700  155.6950 H         1 GDP1001     0.0000 
     37 H8        178.3510  110.1270  152.1620 H         1 GDP1001     0.0000 
     38 HN1       180.8580  104.7360  154.5550 H         1 GDP1001     0.0000 
     39 HN21      181.5650  105.1550  156.7050 H         1 GDP1001     0.0000 
     40 HN22      181.4430  106.7090  157.4680 H         1 GDP1001     0.0000 
@<TRIPOS>BOND
     1    1    2 ar   
     2    1    3 ar   
     3    1    4 ar   
     4    1    5 1    
     5    5    6 1    
     6    6    7 ar   
     7    6    8 ar   
     8    6    9 1    
     9    9   10 1    
    10   10   11 1    
    11   10   29 1    
    12   10   30 1    
    13   11   12 1    
    14   11   13 1    
    15   11   31 1    
    16   12   17 1    
    17   13   14 1    
    18   13   15 1    
    19   13   32 1    
    20   14   33 1    
    21   15   16 1    
    22   15   17 1    
    23   15   34 1    
    24   16   35 1    
    25   17   18 1    
    26   17   36 1    
    27   18   19 1    
    28   18   28 1    
    29   19   20 2    
    30   19   37 1    
    31   20   21 1    
    32   21   22 1    
    33   21   28 2    
    34   22   23 2    
    35   22   24 am   
    36   24   25 1    
    37   24   38 1    
    38   25   26 1    
    39   25   27 2    
    40   26   39 1    
    41   26   40 1    
    42   27   28 1    
@<TRIPOS>SUBSTRUCTURE
     1 GDP1001     1 GROUP   
@<TRIPOS>SET
ATOM$ORANGE STATIC     ATOMS   COLORGROUP SYSTEM 
20 10 10 11 11 13 13 15 15 17 17 19 19 21 21 22 22 25 \
25 28 28 

