#    Name: 6eu9_1_REA
#    Modification time : Fri May 22 19:26:46 2020

@<TRIPOS>MOLECULE
6eu9_1_REA
   22    22     1     0     0
SMALL
NO_CHARGES


@<TRIPOS>ATOM
      1 C1         39.9640   22.8220  -21.8610 C.3       1 REA601      0.0000 
      2 C2         39.9210   21.5830  -22.7820 C.3       1 REA601      0.0000 
      3 C3         39.9270   21.8630  -24.3020 C.3       1 REA601      0.0000 
      4 C4         41.0350   22.8250  -24.7700 C.3       1 REA601      0.0000 
      5 C5         41.6970   23.6170  -23.6270 C.2       1 REA601      0.0000 
      6 C6         41.0270   23.8440  -22.4310 C.2       1 REA601      0.0000 
      7 C7         41.3440   25.1330  -21.7030 C.2       1 REA601      0.0000 
      8 C8         41.1930   26.4180  -22.1410 C.2       1 REA601      0.0000 
      9 C9         41.5580   27.5580  -21.2520 C.2       1 REA601      0.0000 
     10 C10        41.4890   28.8160  -21.7590 C.2       1 REA601      0.0000 
     11 C11        41.6800   30.1480  -21.1950 C.2       1 REA601      0.0000 
     12 C12        41.9850   30.8150  -22.3420 C.2       1 REA601      0.0000 
     13 C13        42.2610   32.1910  -22.7180 C.2       1 REA601      0.0000 
     14 C14        42.1380   32.3860  -24.0830 C.2       1 REA601      0.0000 
     15 C15        42.2590   33.5410  -24.9830 C.2       1 REA601      0.0000 
     16 C16        40.2560   22.3800  -20.4120 C.3       1 REA601      0.0000 
     17 C17        38.5630   23.4630  -21.7140 C.3       1 REA601      0.0000 
     18 C18        43.0770   24.1590  -23.8400 C.3       1 REA601      0.0000 
     19 C19        41.9850   27.2830  -19.8230 C.3       1 REA601      0.0000 
     20 C20        42.5670   33.1650  -21.6500 C.3       1 REA601      0.0000 
     21 O1         41.4470   33.5670  -25.9490 O.co2     1 REA601      0.0000 
     22 O2         43.1280   34.4260  -24.7890 O.co2     1 REA601      0.0000 
@<TRIPOS>BOND
     1    1    2 1    
     2    1    6 1    
     3    1   16 1    
     4    1   17 1    
     5    2    3 1    
     6    3    4 1    
     7    4    5 1    
     8    5    6 2    
     9    5   18 1    
    10    6    7 1    
    11    7    8 2    
    12    8    9 1    
    13    9   10 2    
    14    9   19 1    
    15   10   11 1    
    16   11   12 2    
    17   12   13 1    
    18   13   14 2    
    19   13   20 1    
    20   14   15 1    
    21   15   21 ar   
    22   15   22 ar   
@<TRIPOS>SUBSTRUCTURE
     1 REA601      1 GROUP   
@<TRIPOS>SET

