#    Name: 6eu9_2_REA
#    Modification time : Fri May 22 19:26:50 2020

@<TRIPOS>MOLECULE
6eu9_2_REA
   22    22     1     0     0
SMALL
NO_CHARGES


@<TRIPOS>ATOM
      1 C1         29.2470  -26.3040   24.2690 C.3       1 REA601      0.0000 
      2 C2         29.0780  -24.7810   24.3160 C.3       1 REA601      0.0000 
      3 C3         28.8620  -24.2210   25.7330 C.3       1 REA601      0.0000 
      4 C4         29.8850  -24.7030   26.7760 C.3       1 REA601      0.0000 
      5 C5         30.6680  -25.9400   26.3470 C.2       1 REA601      0.0000 
      6 C6         30.1230  -26.8080   25.4430 C.2       1 REA601      0.0000 
      7 C7         30.3400  -28.2800   25.5910 C.2       1 REA601      0.0000 
      8 C8         30.2560  -28.9430   26.7580 C.2       1 REA601      0.0000 
      9 C9         30.4570  -30.4050   26.9070 C.2       1 REA601      0.0000 
     10 C10        30.3480  -30.8820   28.1660 C.2       1 REA601      0.0000 
     11 C11        30.4810  -32.2460   28.7180 C.2       1 REA601      0.0000 
     12 C12        30.7090  -32.1870   30.0400 C.2       1 REA601      0.0000 
     13 C13        30.8900  -33.2410   31.0780 C.2       1 REA601      0.0000 
     14 C14        30.8030  -32.7930   32.3880 C.2       1 REA601      0.0000 
     15 C15        30.9130  -33.5320   33.6770 C.2       1 REA601      0.0000 
     16 C16        29.8380  -26.7170   22.9100 C.3       1 REA601      0.0000 
     17 C17        27.8290  -26.8890   24.3560 C.3       1 REA601      0.0000 
     18 C18        32.0360  -26.1190   26.9670 C.3       1 REA601      0.0000 
     19 C19        30.7500  -31.2910   25.7300 C.3       1 REA601      0.0000 
     20 C20        31.1500  -34.6760   30.6800 C.3       1 REA601      0.0000 
     21 O1         31.7390  -33.1670   34.5530 O.co2     1 REA601      0.0000 
     22 O2         30.1470  -34.4990   33.8690 O.co2     1 REA601      0.0000 
@<TRIPOS>BOND
     1    1    2 1    
     2    1    6 1    
     3    1   16 1    
     4    1   17 1    
     5    2    3 1    
     6    3    4 1    
     7    4    5 1    
     8    5    6 2    
     9    5   18 1    
    10    6    7 1    
    11    7    8 2    
    12    8    9 1    
    13    9   10 2    
    14    9   19 1    
    15   10   11 1    
    16   11   12 2    
    17   12   13 1    
    18   13   14 2    
    19   13   20 1    
    20   14   15 1    
    21   15   21 ar   
    22   15   22 ar   
@<TRIPOS>SUBSTRUCTURE
     1 REA601      1 GROUP   
@<TRIPOS>SET

