#    Name: 6uby_3_ADP
#    Modification time : Fri May 22 19:27:50 2020

@<TRIPOS>MOLECULE
6uby_3_ADP
   27    29     1     0     1
SMALL
NO_CHARGES


@<TRIPOS>ATOM
      1 PB        138.1020  161.7890  114.5540 P.3       1 ADP802      0.0000 
      2 O1B       138.4010  162.6160  113.3270 O.co2     1 ADP802      0.0000 
      3 O2B       137.1040  162.4120  115.5000 O.co2     1 ADP802      0.0000 
      4 O3B       139.3230  161.2110  115.2270 O.co2     1 ADP802      0.0000 
      5 PA        135.9270  160.6420  113.2060 P.3       1 ADP802      0.0000 
      6 O1A       136.0420  161.7590  112.1960 O.co2     1 ADP802      0.0000 
      7 O2A       134.8210  160.6550  114.2350 O.co2     1 ADP802      0.0000 
      8 O3A       137.3370  160.5000  113.9710 O.3       1 ADP802      0.0000 
      9 O5'       135.8590  159.2540  112.4000 O.3       1 ADP802      0.0000 
     10 C5'       135.3580  159.2140  111.0660 C.3       1 ADP802      0.0000 
     11 C4'       135.1740  157.7620  110.6570 C.3       1 ADP802      0.0000 
     12 O4'       133.8760  157.3130  111.0540 O.3       1 ADP802      0.0000 
     13 C3'       135.2670  157.5750  109.1520 C.3       1 ADP802      0.0000 
     14 O3'       136.5180  156.9750  108.8060 O.3       1 ADP802      0.0000 
     15 C2'       134.1230  156.6540  108.7820 C.3       1 ADP802      0.0000 
     16 O2'       134.6360  155.3850  108.3680 O.3       1 ADP802      0.0000 
     17 C1'       133.2920  156.4910  110.0420 C.3       1 ADP802      0.0000 
     18 N9        131.9030  156.9420  109.7750 N.pl3     1 ADP802      0.0000 
     19 C8        131.5350  158.2000  109.4710 C.2       1 ADP802      0.0000 
     20 N7        130.1930  158.2870  109.2790 N.2       1 ADP802      0.0000 
     21 C5        129.6810  157.0570  109.4630 C.ar      1 ADP802      0.0000 
     22 C6        128.3320  156.4460  109.4110 C.ar      1 ADP802      0.0000 
     23 N6        127.2360  157.1870  109.1190 N.pl3     1 ADP802      0.0000 
     24 N1        128.2340  155.1230  109.6660 N.ar      1 ADP802      0.0000 
     25 C2        129.3140  154.3770  109.9560 C.ar      1 ADP802      0.0000 
     26 N3        130.5660  154.8630  110.0210 N.ar      1 ADP802      0.0000 
     27 C4        130.8120  156.1730  109.7850 C.ar      1 ADP802      0.0000 
@<TRIPOS>BOND
     1    1    2 ar   
     2    1    3 ar   
     3    1    4 ar   
     4    1    8 1    
     5    5    6 ar   
     6    5    7 ar   
     7    5    8 1    
     8    5    9 1    
     9    9   10 1    
    10   10   11 1    
    11   11   12 1    
    12   11   13 1    
    13   12   17 1    
    14   13   14 1    
    15   13   15 1    
    16   15   16 1    
    17   15   17 1    
    18   17   18 1    
    19   18   19 1    
    20   18   27 1    
    21   19   20 2    
    22   20   21 1    
    23   21   22 ar   
    24   21   27 ar   
    25   22   23 1    
    26   22   24 ar   
    27   24   25 ar   
    28   25   26 ar   
    29   26   27 ar   
@<TRIPOS>SUBSTRUCTURE
     1 ADP802      1 GROUP   
@<TRIPOS>SET
ATOM$ORANGE STATIC     ATOMS   COLORGROUP SYSTEM 
20 10 10 11 11 13 13 15 15 17 17 19 19 21 21 22 22 25 \
25 27 27 

