#    Name: 6uby_5_ADP
#    Modification time : Fri May 22 19:27:58 2020

@<TRIPOS>MOLECULE
6uby_5_ADP
   27    29     1     0     1
SMALL
NO_CHARGES


@<TRIPOS>ATOM
      1 PB        131.7710  156.0090  169.5050 P.3       1 ADP802      0.0000 
      2 O1B       131.6190  156.8720  168.2750 O.co2     1 ADP802      0.0000 
      3 O2B       130.6010  156.0670  170.4580 O.co2     1 ADP802      0.0000 
      4 O3B       133.1230  156.1050  170.1680 O.co2     1 ADP802      0.0000 
      5 PA        130.4270  153.9400  168.1730 P.3       1 ADP802      0.0000 
      6 O1A       129.9740  154.9660  167.1620 O.co2     1 ADP802      0.0000 
      7 O2A       129.4620  153.4130  169.2100 O.co2     1 ADP802      0.0000 
      8 O3A       131.7310  154.5080  168.9270 O.3       1 ADP802      0.0000 
      9 O5'       131.0410  152.6930  167.3670 O.3       1 ADP802      0.0000 
     10 C5'       130.6150  152.4080  166.0380 C.3       1 ADP802      0.0000 
     11 C4'       131.1630  151.0500  165.6300 C.3       1 ADP802      0.0000 
     12 O4'       130.2530  150.0250  166.0370 O.3       1 ADP802      0.0000 
     13 C3'       131.3250  150.9270  164.1240 C.3       1 ADP802      0.0000 
     14 O3'       132.7080  151.0150  163.7680 O.3       1 ADP802      0.0000 
     15 C2'       130.7760  149.5630  163.7630 C.3       1 ADP802      0.0000 
     16 O2'       131.8420  148.7050  163.3450 O.3       1 ADP802      0.0000 
     17 C1'       130.1390  149.0180  165.0290 C.3       1 ADP802      0.0000 
     18 N9        128.7060  148.7310  164.7720 N.pl3     1 ADP802      0.0000 
     19 C8        127.7670  149.6470  164.4710 C.2       1 ADP802      0.0000 
     20 N7        126.5540  149.0650  164.2900 N.2       1 ADP802      0.0000 
     21 C5        126.7100  147.7420  164.4770 C.ar      1 ADP802      0.0000 
     22 C6        125.8320  146.5500  164.4350 C.ar      1 ADP802      0.0000 
     23 N6        124.5120  146.6580  164.1510 N.pl3     1 ADP802      0.0000 
     24 N1        126.3960  145.3490  164.6910 N.ar      1 ADP802      0.0000 
     25 C2        127.7050  145.2280  164.9730 C.ar      1 ADP802      0.0000 
     26 N3        128.5580  146.2650  165.0280 N.ar      1 ADP802      0.0000 
     27 C4        128.1310  147.5260  164.7910 C.ar      1 ADP802      0.0000 
@<TRIPOS>BOND
     1    1    2 ar   
     2    1    3 ar   
     3    1    4 ar   
     4    1    8 1    
     5    5    6 ar   
     6    5    7 ar   
     7    5    8 1    
     8    5    9 1    
     9    9   10 1    
    10   10   11 1    
    11   11   12 1    
    12   11   13 1    
    13   12   17 1    
    14   13   14 1    
    15   13   15 1    
    16   15   16 1    
    17   15   17 1    
    18   17   18 1    
    19   18   19 1    
    20   18   27 1    
    21   19   20 2    
    22   20   21 1    
    23   21   22 ar   
    24   21   27 ar   
    25   22   23 1    
    26   22   24 ar   
    27   24   25 ar   
    28   25   26 ar   
    29   26   27 ar   
@<TRIPOS>SUBSTRUCTURE
     1 ADP802      1 GROUP   
@<TRIPOS>SET
ATOM$ORANGE STATIC     ATOMS   COLORGROUP SYSTEM 
20 10 10 11 11 13 13 15 15 17 17 19 19 21 21 22 22 25 \
25 27 27 

