#    Name: 6uby_1_ADP
#    Modification time : Fri May 22 19:27:42 2020

@<TRIPOS>MOLECULE
6uby_1_ADP
   27    29     1     0     1
SMALL
NO_CHARGES


@<TRIPOS>ATOM
      1 PB        163.4480  140.7200  196.9530 P.3       1 ADP802      0.0000 
      2 O1B       163.8030  139.9190  195.7230 O.co2     1 ADP802      0.0000 
      3 O2B       164.6000  140.9580  197.8980 O.co2     1 ADP802      0.0000 
      4 O3B       162.1660  140.2920  197.6240 O.co2     1 ADP802      0.0000 
      5 PA        164.2240  143.0550  195.6090 P.3       1 ADP802      0.0000 
      6 O1A       164.9130  142.1710  194.5960 O.co2     1 ADP802      0.0000 
      7 O2A       165.0330  143.8090  196.6380 O.co2     1 ADP802      0.0000 
      8 O3A       163.1080  142.1810  196.3720 O.3       1 ADP802      0.0000 
      9 O5'       163.3140  144.1060  194.8050 O.3       1 ADP802      0.0000 
     10 C5'       163.6470  144.4850  193.4720 C.3       1 ADP802      0.0000 
     11 C4'       162.7750  145.6620  193.0660 C.3       1 ADP802      0.0000 
     12 O4'       163.4030  146.8830  193.4650 O.3       1 ADP802      0.0000 
     13 C3'       162.5780  145.7360  191.5600 C.3       1 ADP802      0.0000 
     14 O3'       161.2600  145.3040  191.2140 O.3       1 ADP802      0.0000 
     15 C2'       162.7670  147.1920  191.1930 C.3       1 ADP802      0.0000 
     16 O2'       161.5190  147.7550  190.7810 O.3       1 ADP802      0.0000 
     17 C1'       163.2560  147.8830  192.4550 C.3       1 ADP802      0.0000 
     18 N9        164.5700  148.5180  192.1880 N.pl3     1 ADP802      0.0000 
     19 C8        165.7060  147.8640  191.8830 C.2       1 ADP802      0.0000 
     20 N7        166.7350  148.7300  191.6920 N.2       1 ADP802      0.0000 
     21 C5        166.2540  149.9730  191.8780 C.ar      1 ADP802      0.0000 
     22 C6        166.8060  151.3470  191.8290 C.ar      1 ADP802      0.0000 
     23 N6        168.1100  151.5700  191.5370 N.pl3     1 ADP802      0.0000 
     24 N1        165.9620  152.3690  192.0870 N.ar      1 ADP802      0.0000 
     25 C2        164.6660  152.1610  192.3770 C.ar      1 ADP802      0.0000 
     26 N3        164.0990  150.9440  192.4390 N.ar      1 ADP802      0.0000 
     27 C4        164.8260  149.8280  192.2010 C.ar      1 ADP802      0.0000 
@<TRIPOS>BOND
     1    1    2 ar   
     2    1    3 ar   
     3    1    4 ar   
     4    1    8 1    
     5    5    6 ar   
     6    5    7 ar   
     7    5    8 1    
     8    5    9 1    
     9    9   10 1    
    10   10   11 1    
    11   11   12 1    
    12   11   13 1    
    13   12   17 1    
    14   13   14 1    
    15   13   15 1    
    16   15   16 1    
    17   15   17 1    
    18   17   18 1    
    19   18   19 1    
    20   18   27 1    
    21   19   20 2    
    22   20   21 1    
    23   21   22 ar   
    24   21   27 ar   
    25   22   23 1    
    26   22   24 ar   
    27   24   25 ar   
    28   25   26 ar   
    29   26   27 ar   
@<TRIPOS>SUBSTRUCTURE
     1 ADP802      1 GROUP   
@<TRIPOS>SET
ATOM$ORANGE STATIC     ATOMS   COLORGROUP SYSTEM 
20 10 10 11 11 13 13 15 15 17 17 19 19 21 21 22 22 25 \
25 27 27 

