#    Name: 6uby_6_ADP
#    Modification time : Fri May 22 19:28:02 2020

@<TRIPOS>MOLECULE
6uby_6_ADP
   27    29     1     0     1
SMALL
NO_CHARGES


@<TRIPOS>ATOM
      1 PB        129.5410  148.3120  224.5790 P.3       1 ADP802      0.0000 
      2 O1B       129.0100  149.0030  223.3460 O.co2     1 ADP802      0.0000 
      3 O2B       128.4760  147.8400  225.5400 O.co2     1 ADP802      0.0000 
      4 O3B       130.7060  149.0140  225.2320 O.co2     1 ADP802      0.0000 
      5 PA        129.2760  145.8480  223.2660 P.3       1 ADP802      0.0000 
      6 O1A       128.4030  146.5510  222.2530 O.co2     1 ADP802      0.0000 
      7 O2A       128.6590  144.9490  224.3110 O.co2     1 ADP802      0.0000 
      8 O3A       130.1830  146.9510  224.0080 O.3       1 ADP802      0.0000 
      9 O5'       130.3850  145.0100  222.4610 O.3       1 ADP802      0.0000 
     10 C5'       130.1290  144.5530  221.1360 C.3       1 ADP802      0.0000 
     11 C4'       131.2310  143.5870  220.7300 C.3       1 ADP802      0.0000 
     12 O4'       130.8860  142.2650  221.1480 O.3       1 ADP802      0.0000 
     13 C3'       131.4260  143.5410  219.2240 C.3       1 ADP802      0.0000 
     14 O3'       132.6170  144.2440  218.8590 O.3       1 ADP802      0.0000 
     15 C2'       131.5530  142.0740  218.8720 C.3       1 ADP802      0.0000 
     16 O2'       132.8900  141.7890  218.4510 O.3       1 ADP802      0.0000 
     17 C1'       131.2370  141.3090  220.1460 C.3       1 ADP802      0.0000 
     18 N9        130.0880  140.4010  219.9000 N.pl3     1 ADP802      0.0000 
     19 C8        128.8350  140.7910  219.6010 C.2       1 ADP802      0.0000 
     20 N7        128.0160  139.7210  219.4300 N.2       1 ADP802      0.0000 
     21 C5        128.7560  138.6130  219.6220 C.ar      1 ADP802      0.0000 
     22 C6        128.5140  137.1520  219.5910 C.ar      1 ADP802      0.0000 
     23 N6        127.2870  136.6490  219.3160 N.pl3     1 ADP802      0.0000 
     24 N1        129.5610  136.3400  219.8490 N.ar      1 ADP802      0.0000 
     25 C2        130.7840  136.8260  220.1230 C.ar      1 ADP802      0.0000 
     26 N3        131.0750  138.1380  220.1670 N.ar      1 ADP802      0.0000 
     27 C4        130.1220  139.0670  219.9270 C.ar      1 ADP802      0.0000 
@<TRIPOS>BOND
     1    1    2 ar   
     2    1    3 ar   
     3    1    4 ar   
     4    1    8 1    
     5    5    6 ar   
     6    5    7 ar   
     7    5    8 1    
     8    5    9 1    
     9    9   10 1    
    10   10   11 1    
    11   11   12 1    
    12   11   13 1    
    13   12   17 1    
    14   13   14 1    
    15   13   15 1    
    16   15   16 1    
    17   15   17 1    
    18   17   18 1    
    19   18   19 1    
    20   18   27 1    
    21   19   20 2    
    22   20   21 1    
    23   21   22 ar   
    24   21   27 ar   
    25   22   23 1    
    26   22   24 ar   
    27   24   25 ar   
    28   25   26 ar   
    29   26   27 ar   
@<TRIPOS>SUBSTRUCTURE
     1 ADP802      1 GROUP   
@<TRIPOS>SET
ATOM$ORANGE STATIC     ATOMS   COLORGROUP SYSTEM 
20 10 10 11 11 13 13 15 15 17 17 19 19 21 21 22 22 25 \
25 27 27 

