#    Name: 6uby_2_ADP
#    Modification time : Fri May 22 19:27:46 2020

@<TRIPOS>MOLECULE
6uby_2_ADP
   27    29     1     0     1
SMALL
NO_CHARGES


@<TRIPOS>ATOM
      1 PB        164.1160  148.5410  251.8760 P.3       1 ADP802      0.0000 
      2 O1B       164.7850  148.0010  250.6340 O.co2     1 ADP802      0.0000 
      3 O2B       165.0510  149.2260  252.8430 O.co2     1 ADP802      0.0000 
      4 O3B       163.1390  147.5880  252.5190 O.co2     1 ADP802      0.0000 
      5 PA        163.8230  151.0180  250.5950 P.3       1 ADP802      0.0000 
      6 O1A       164.8280  150.5410  249.5730 O.co2     1 ADP802      0.0000 
      7 O2A       164.2260  152.0190  251.6520 O.co2     1 ADP802      0.0000 
      8 O3A       163.1850  149.7310  251.3220 O.3       1 ADP802      0.0000 
      9 O5'       162.5520  151.5990  249.8000 O.3       1 ADP802      0.0000 
     10 C5'       162.6980  152.1180  248.4810 C.3       1 ADP802      0.0000 
     11 C4'       161.4070  152.8190  248.0880 C.3       1 ADP802      0.0000 
     12 O4'       161.4490  154.1790  248.5230 O.3       1 ADP802      0.0000 
     13 C3'       161.2030  152.8400  246.5810 C.3       1 ADP802      0.0000 
     14 O3'       160.1980  151.8940  246.2060 O.3       1 ADP802      0.0000 
     15 C2'       160.7510  154.2460  246.2490 C.3       1 ADP802      0.0000 
     16 O2'       159.3840  154.2310  245.8310 O.3       1 ADP802      0.0000 
     17 C1'       160.8920  155.0460  247.5320 C.3       1 ADP802      0.0000 
     18 N9        161.8080  156.1900  247.2990 N.pl3     1 ADP802      0.0000 
     19 C8        163.1160  156.0940  246.9960 C.2       1 ADP802      0.0000 
     20 N7        163.6750  157.3210  246.8400 N.2       1 ADP802      0.0000 
     21 C5        162.7080  158.2330  247.0460 C.ar      1 ADP802      0.0000 
     22 C6        162.6180  159.7120  247.0350 C.ar      1 ADP802      0.0000 
     23 N6        163.7010  160.4800  246.7670 N.pl3     1 ADP802      0.0000 
     24 N1        161.4160  160.2670  247.3020 N.ar      1 ADP802      0.0000 
     25 C2        160.3330  159.5160  247.5690 C.ar      1 ADP802      0.0000 
     26 N3        160.3420  158.1720  247.5960 N.ar      1 ADP802      0.0000 
     27 C4        161.4780  157.4830  247.3440 C.ar      1 ADP802      0.0000 
@<TRIPOS>BOND
     1    1    2 ar   
     2    1    3 ar   
     3    1    4 ar   
     4    1    8 1    
     5    5    6 ar   
     6    5    7 ar   
     7    5    8 1    
     8    5    9 1    
     9    9   10 1    
    10   10   11 1    
    11   11   12 1    
    12   11   13 1    
    13   12   17 1    
    14   13   14 1    
    15   13   15 1    
    16   15   16 1    
    17   15   17 1    
    18   17   18 1    
    19   18   19 1    
    20   18   27 1    
    21   19   20 2    
    22   20   21 1    
    23   21   22 ar   
    24   21   27 ar   
    25   22   23 1    
    26   22   24 ar   
    27   24   25 ar   
    28   25   26 ar   
    29   26   27 ar   
@<TRIPOS>SUBSTRUCTURE
     1 ADP802      1 GROUP   
@<TRIPOS>SET
ATOM$ORANGE STATIC     ATOMS   COLORGROUP SYSTEM 
20 10 10 11 11 13 13 15 15 17 17 19 19 21 21 22 22 25 \
25 27 27 

