#    Name: 6uby_7_ADP
#    Modification time : Fri May 22 19:28:06 2020

@<TRIPOS>MOLECULE
6uby_7_ADP
   27    29     1     0     1
SMALL
NO_CHARGES


@<TRIPOS>ATOM
      1 PB        158.1610  133.1740  141.9140 P.3       1 ADP802      0.0000 
      2 O1B       158.0470  132.2810  140.7010 O.co2     1 ADP802      0.0000 
      3 O2B       159.2800  132.8050  142.8590 O.co2     1 ADP802      0.0000 
      4 O3B       156.8460  133.4750  142.5890 O.co2     1 ADP802      0.0000 
      5 PA        160.0160  134.7560  140.5280 P.3       1 ADP802      0.0000 
      6 O1A       160.1480  133.6250  139.5350 O.co2     1 ADP802      0.0000 
      7 O2A       161.1040  135.0070  141.5460 O.co2     1 ADP802      0.0000 
      8 O3A       158.6150  134.5920  141.3040 O.3       1 ADP802      0.0000 
      9 O5'       159.7670  136.1100  139.7010 O.3       1 ADP802      0.0000 
     10 C5'       160.2390  136.2390  138.3620 C.3       1 ADP802      0.0000 
     11 C4'       160.0910  137.6890  137.9300 C.3       1 ADP802      0.0000 
     12 O4'       161.2570  138.4230  138.3080 O.3       1 ADP802      0.0000 
     13 C3'       159.9490  137.8260  136.4230 C.3       1 ADP802      0.0000 
     14 O3'       158.5930  138.1250  136.0800 O.3       1 ADP802      0.0000 
     15 C2'       160.8550  138.9730  136.0280 C.3       1 ADP802      0.0000 
     16 O2'       160.0690  140.0890  135.6010 O.3       1 ADP802      0.0000 
     17 C1'       161.6370  139.3380  137.2780 C.3       1 ADP802      0.0000 
     18 N9        163.0900  139.2050  137.0040 N.pl3     1 ADP802      0.0000 
     19 C8        163.7280  138.0560  136.7150 C.2       1 ADP802      0.0000 
     20 N7        165.0540  138.2690  136.5120 N.2       1 ADP802      0.0000 
     21 C5        165.2790  139.5850  136.6720 C.ar      1 ADP802      0.0000 
     22 C6        166.4570  140.4810  136.5980 C.ar      1 ADP802      0.0000 
     23 N6        167.6890  139.9990  136.3070 N.pl3     1 ADP802      0.0000 
     24 N1        166.2580  141.7960  136.8340 N.ar      1 ADP802      0.0000 
     25 C2        165.0400  142.2870  137.1230 C.ar      1 ADP802      0.0000 
     26 N3        163.9300  141.5340  137.2060 N.ar      1 ADP802      0.0000 
     27 C4        163.9810  140.1990  136.9930 C.ar      1 ADP802      0.0000 
@<TRIPOS>BOND
     1    1    2 ar   
     2    1    3 ar   
     3    1    4 ar   
     4    1    8 1    
     5    5    6 ar   
     6    5    7 ar   
     7    5    8 1    
     8    5    9 1    
     9    9   10 1    
    10   10   11 1    
    11   11   12 1    
    12   11   13 1    
    13   12   17 1    
    14   13   14 1    
    15   13   15 1    
    16   15   16 1    
    17   15   17 1    
    18   17   18 1    
    19   18   19 1    
    20   18   27 1    
    21   19   20 2    
    22   20   21 1    
    23   21   22 ar   
    24   21   27 ar   
    25   22   23 1    
    26   22   24 ar   
    27   24   25 ar   
    28   25   26 ar   
    29   26   27 ar   
@<TRIPOS>SUBSTRUCTURE
     1 ADP802      1 GROUP   
@<TRIPOS>SET
ATOM$ORANGE STATIC     ATOMS   COLORGROUP SYSTEM 
20 10 10 11 11 13 13 15 15 17 17 19 19 21 21 22 22 25 \
25 27 27 

