#    Name: 6uby_4_ADP
#    Modification time : Fri May 22 19:27:54 2020

@<TRIPOS>MOLECULE
6uby_4_ADP
   27    29     1     0     1
SMALL
NO_CHARGES


@<TRIPOS>ATOM
      1 PB        150.8010  128.9200   87.0960 P.3       1 ADP802      0.0000 
      2 O1B       150.3140  128.1960   85.8640 O.co2     1 ADP802      0.0000 
      3 O2B       151.6260  128.0720   88.0350 O.co2     1 ADP802      0.0000 
      4 O3B       149.7520  129.7650   87.7760 O.co2     1 ADP802      0.0000 
      5 PA        153.1830  129.5320   85.7500 P.3       1 ADP802      0.0000 
      6 O1A       152.8070  128.4810   84.7320 O.co2     1 ADP802      0.0000 
      7 O2A       154.2570  129.2520   86.7750 O.co2     1 ADP802      0.0000 
      8 O3A       151.8480  129.9970   86.5190 O.3       1 ADP802      0.0000 
      9 O5'       153.5760  130.8700   84.9520 O.3       1 ADP802      0.0000 
     10 C5'       154.0710  130.8010   83.6180 C.3       1 ADP802      0.0000 
     11 C4'       154.5920  132.1720   83.2180 C.3       1 ADP802      0.0000 
     12 O4'       155.9590  132.3000   83.6140 O.3       1 ADP802      0.0000 
     13 C3'       154.5430  132.3870   81.7140 C.3       1 ADP802      0.0000 
     14 O3'       153.4680  133.2660   81.3750 O.3       1 ADP802      0.0000 
     15 C2'       155.8710  133.0140   81.3470 C.3       1 ADP802      0.0000 
     16 O2'       155.6710  134.3720   80.9430 O.3       1 ADP802      0.0000 
     17 C1'       156.7190  132.9680   82.6060 C.3       1 ADP802      0.0000 
     18 N9        157.9620  132.2040   82.3320 N.pl3     1 ADP802      0.0000 
     19 C8        158.0230  130.8970   82.0180 C.2       1 ADP802      0.0000 
     20 N7        159.3060  130.4980   81.8220 N.2       1 ADP802      0.0000 
     21 C5        160.0940  131.5720   82.0120 C.ar      1 ADP802      0.0000 
     22 C6        161.5490  131.8480   81.9610 C.ar      1 ADP802      0.0000 
     23 N6        162.4390  130.8720   81.6600 N.pl3     1 ADP802      0.0000 
     24 N1        161.9560  133.1080   82.2250 N.ar      1 ADP802      0.0000 
     25 C2        161.0830  134.0860   82.5230 C.ar      1 ADP802      0.0000 
     26 N3        159.7520  133.9080   82.5870 N.ar      1 ADP802      0.0000 
     27 C4        159.2040  132.6950   82.3440 C.ar      1 ADP802      0.0000 
@<TRIPOS>BOND
     1    1    2 ar   
     2    1    3 ar   
     3    1    4 ar   
     4    1    8 1    
     5    5    6 ar   
     6    5    7 ar   
     7    5    8 1    
     8    5    9 1    
     9    9   10 1    
    10   10   11 1    
    11   11   12 1    
    12   11   13 1    
    13   12   17 1    
    14   13   14 1    
    15   13   15 1    
    16   15   16 1    
    17   15   17 1    
    18   17   18 1    
    19   18   19 1    
    20   18   27 1    
    21   19   20 2    
    22   20   21 1    
    23   21   22 ar   
    24   21   27 ar   
    25   22   23 1    
    26   22   24 ar   
    27   24   25 ar   
    28   25   26 ar   
    29   26   27 ar   
@<TRIPOS>SUBSTRUCTURE
     1 ADP802      1 GROUP   
@<TRIPOS>SET
ATOM$ORANGE STATIC     ATOMS   COLORGROUP SYSTEM 
20 10 10 11 11 13 13 15 15 17 17 19 19 21 21 22 22 25 \
25 27 27 

