#    Name: 6hfv_4_FAD
#    Modification time : Fri May 22 19:37:32 2020

@<TRIPOS>MOLECULE
6hfv_4_FAD
   53    58     1     0     1
SMALL
NO_CHARGES


@<TRIPOS>ATOM
      1 PA        -12.4880  -21.2210   -4.2730 P.3       1 FAD501      0.0000 
      2 O1A       -13.5150  -22.3010   -4.3070 O.co2     1 FAD501      0.0000 
      3 O2A       -11.0480  -21.5630   -4.4940 O.co2     1 FAD501      0.0000 
      4 O5B       -12.8500  -20.0930   -5.3320 O.3       1 FAD501      0.0000 
      5 C5B       -14.2090  -19.6710   -5.4670 C.3       1 FAD501      0.0000 
      6 C4B       -14.2650  -18.3170   -6.1410 C.3       1 FAD501      0.0000 
      7 O4B       -13.5650  -17.3690   -5.3380 O.3       1 FAD501      0.0000 
      8 C3B       -13.5990  -18.3390   -7.5090 C.3       1 FAD501      0.0000 
      9 O3B       -14.3800  -17.6170   -8.4570 O.3       1 FAD501      0.0000 
     10 C2B       -12.2770  -17.6320   -7.2740 C.3       1 FAD501      0.0000 
     11 O2B       -11.7810  -16.9710   -8.4470 O.3       1 FAD501      0.0000 
     12 C1B       -12.6380  -16.6630   -6.1540 C.3       1 FAD501      0.0000 
     13 N9A       -11.4470  -16.2210   -5.3910 N.pl3     1 FAD501      0.0000 
     14 C8A       -10.7770  -16.9290   -4.4620 C.2       1 FAD501      0.0000 
     15 N7A        -9.7370  -16.2180   -3.9770 N.2       1 FAD501      0.0000 
     16 C5A        -9.7310  -15.0320   -4.6000 C.ar      1 FAD501      0.0000 
     17 C6A        -8.8980  -13.8080   -4.5690 C.ar      1 FAD501      0.0000 
     18 N6A        -7.8390  -13.7210   -3.7300 N.pl3     1 FAD501      0.0000 
     19 N1A        -9.2410  -12.7880   -5.3930 N.ar      1 FAD501      0.0000 
     20 C2A       -10.2990  -12.8660   -6.2360 C.ar      1 FAD501      0.0000 
     21 N3A       -11.0890  -13.9490   -6.3160 N.ar      1 FAD501      0.0000 
     22 C4A       -10.8620  -15.0380   -5.5390 C.ar      1 FAD501      0.0000 
     23 N1        -21.1880  -21.0380    0.9590 N.2       1 FAD501      0.0000 
     24 C2        -22.0320  -20.1970    1.5940 C.2       1 FAD501      0.0000 
     25 O2        -22.2180  -19.0680    1.0850 O.2       1 FAD501      0.0000 
     26 N3        -22.6610  -20.5440    2.7360 N.am      1 FAD501      0.0000 
     27 C4        -22.4750  -21.7440    3.3230 C.2       1 FAD501      0.0000 
     28 O4        -23.0540  -22.0470    4.3860 O.2       1 FAD501      0.0000 
     29 C4X       -21.5720  -22.7150    2.6770 C.2       1 FAD501      0.0000 
     30 N5        -21.3340  -23.9390    3.1840 N.2       1 FAD501      0.0000 
     31 C5X       -20.4740  -24.7800    2.5620 C.ar      1 FAD501      0.0000 
     32 C6        -20.2390  -26.0330    3.1110 C.ar      1 FAD501      0.0000 
     33 C7        -19.3720  -26.9410    2.5090 C.ar      1 FAD501      0.0000 
     34 C7M       -19.1510  -28.3020    3.1360 C.3       1 FAD501      0.0000 
     35 C8        -18.6770  -26.5520    1.2530 C.ar      1 FAD501      0.0000 
     36 C8M       -17.7260  -27.4970    0.5610 C.3       1 FAD501      0.0000 
     37 C9        -18.9040  -25.2990    0.6990 C.ar      1 FAD501      0.0000 
     38 C9A       -19.7770  -24.3890    1.3010 C.ar      1 FAD501      0.0000 
     39 N10       -20.0260  -23.1070    0.7560 N.pl3     1 FAD501      0.0000 
     40 C10       -20.9190  -22.2640    1.4300 C.2       1 FAD501      0.0000 
     41 C1'       -19.3900  -22.6080   -0.4660 C.3       1 FAD501      0.0000 
     42 C2'       -18.0770  -21.8940   -0.0990 C.3       1 FAD501      0.0000 
     43 O2'       -18.2070  -21.1250    1.1060 O.3       1 FAD501      0.0000 
     44 C3'       -17.6380  -20.9680   -1.2270 C.3       1 FAD501      0.0000 
     45 O3'       -17.5930  -21.7360   -2.4330 O.3       1 FAD501      0.0000 
     46 C4'       -16.2930  -20.2740   -0.9880 C.3       1 FAD501      0.0000 
     47 O4'       -16.1230  -19.2670   -1.9890 O.3       1 FAD501      0.0000 
     48 C5'       -15.0940  -21.2200   -1.0410 C.3       1 FAD501      0.0000 
     49 O5'       -13.9060  -20.4990   -0.7200 O.3       1 FAD501      0.0000 
     50 P         -12.4940  -20.8940   -1.3950 P.3       1 FAD501      0.0000 
     51 O1P       -11.4280  -20.0770   -0.7150 O.co2     1 FAD501      0.0000 
     52 O2P       -12.3550  -22.3930   -1.4150 O.co2     1 FAD501      0.0000 
     53 O3P       -12.6590  -20.3510   -2.9100 O.3       1 FAD501      0.0000 
@<TRIPOS>BOND
     1    1    2 ar   
     2    1    3 ar   
     3    1    4 1    
     4    1   53 1    
     5    4    5 1    
     6    5    6 1    
     7    6    7 1    
     8    6    8 1    
     9    7   12 1    
    10    8    9 1    
    11    8   10 1    
    12   10   11 1    
    13   10   12 1    
    14   12   13 1    
    15   13   14 1    
    16   13   22 1    
    17   14   15 2    
    18   15   16 1    
    19   16   17 ar   
    20   16   22 ar   
    21   17   18 1    
    22   17   19 ar   
    23   19   20 ar   
    24   20   21 ar   
    25   21   22 ar   
    26   23   24 1    
    27   23   40 2    
    28   24   25 2    
    29   24   26 am   
    30   26   27 am   
    31   27   28 2    
    32   27   29 1    
    33   29   30 2    
    34   29   40 1    
    35   30   31 1    
    36   31   32 ar   
    37   31   38 ar   
    38   32   33 ar   
    39   33   34 1    
    40   33   35 ar   
    41   35   36 1    
    42   35   37 ar   
    43   37   38 ar   
    44   38   39 1    
    45   39   40 1    
    46   39   41 1    
    47   41   42 1    
    48   42   43 1    
    49   42   44 1    
    50   44   45 1    
    51   44   46 1    
    52   46   47 1    
    53   46   48 1    
    54   48   49 1    
    55   49   50 1    
    56   50   51 ar   
    57   50   52 ar   
    58   50   53 1    
@<TRIPOS>SUBSTRUCTURE
     1 FAD501      1 GROUP   
@<TRIPOS>SET
ATOM$ORANGE STATIC     ATOMS   COLORGROUP SYSTEM 
54 5 5 6 6 8 8 10 10 12 12 14 14 16 16 17 17 20 \
20 22 22 24 24 27 27 29 29 31 31 32 32 33 33 34 34 35 \
35 36 36 37 37 38 38 40 40 41 41 42 42 44 44 46 46 48 \
48 

