#    Name: 6cin_2_TPP
#    Modification time : Fri May 22 19:37:01 2020

@<TRIPOS>MOLECULE
6cin_2_TPP
   26    27     1     0     1
SMALL
NO_CHARGES


@<TRIPOS>ATOM
      1 N1'       -10.4220  -53.5620   61.3550 N.ar      1 TPP1204     0.0000 
      2 C2'       -11.3020  -54.1660   62.1350 C.ar      1 TPP1204     0.0000 
      3 CM2       -12.7240  -54.4180   61.6010 C.3       1 TPP1204     0.0000 
      4 N3'       -10.9940  -54.5590   63.3630 N.ar      1 TPP1204     0.0000 
      5 C4'        -9.7630  -54.3550   63.8740 C.ar      1 TPP1204     0.0000 
      6 N4'        -9.4590  -54.7920   65.2040 N.pl3     1 TPP1204     0.0000 
      7 C5'        -8.7950  -53.7220   63.0780 C.ar      1 TPP1204     0.0000 
      8 C6'        -9.1770  -53.3220   61.7690 C.ar      1 TPP1204     0.0000 
      9 C7'        -7.3350  -53.4570   63.6020 C.3       1 TPP1204     0.0000 
     10 N3         -7.2680  -52.3230   64.4550 N.pl3     1 TPP1204     0.0000 
     11 C2         -7.6400  -52.2540   65.7980 C.2       1 TPP1204     0.0000 
     12 S1         -7.4420  -50.8190   66.5550 S.3       1 TPP1204     0.0000 
     13 C5         -6.8510  -50.2240   65.1560 C.2       1 TPP1204     0.0000 
     14 C4         -6.7910  -51.1160   64.0820 C.2       1 TPP1204     0.0000 
     15 CM4        -6.2720  -50.7770   62.6890 C.3       1 TPP1204     0.0000 
     16 C6         -6.3880  -48.7790   65.0890 C.3       1 TPP1204     0.0000 
     17 C7         -6.6230  -48.0030   66.4210 C.3       1 TPP1204     0.0000 
     18 O7         -6.5440  -46.6050   66.1040 O.3       1 TPP1204     0.0000 
     19 PA         -7.2650  -45.5670   67.0430 P.3       1 TPP1204     0.0000 
     20 O1A        -6.8070  -44.1790   66.7110 O.co2     1 TPP1204     0.0000 
     21 O2A        -8.7590  -45.6740   66.8570 O.co2     1 TPP1204     0.0000 
     22 O3A        -6.9270  -45.8980   68.5590 O.3       1 TPP1204     0.0000 
     23 PB         -5.4850  -45.7700   69.2280 P.3       1 TPP1204     0.0000 
     24 O1B        -4.5960  -44.8740   68.3990 O.co2     1 TPP1204     0.0000 
     25 O2B        -4.8690  -47.1490   69.3450 O.co2     1 TPP1204     0.0000 
     26 O3B        -5.6540  -45.2080   70.6160 O.co2     1 TPP1204     0.0000 
@<TRIPOS>BOND
     1    1    2 ar   
     2    1    8 ar   
     3    2    3 1    
     4    2    4 ar   
     5    4    5 ar   
     6    5    6 1    
     7    5    7 ar   
     8    7    8 ar   
     9    7    9 1    
    10    9   10 1    
    11   10   11 2    
    12   10   14 1    
    13   11   12 1    
    14   12   13 1    
    15   13   14 2    
    16   13   16 1    
    17   14   15 1    
    18   16   17 1    
    19   17   18 1    
    20   18   19 1    
    21   19   20 ar   
    22   19   21 ar   
    23   19   22 1    
    24   22   23 1    
    25   23   24 ar   
    26   23   25 ar   
    27   23   26 ar   
@<TRIPOS>SUBSTRUCTURE
     1 TPP1204     1 GROUP   
@<TRIPOS>SET
ATOM$ORANGE STATIC     ATOMS   COLORGROUP SYSTEM 
24 2 2 3 3 5 5 7 7 8 8 9 9 11 11 13 13 14 \
14 15 15 16 16 17 17 

