#    Name: 6bbn_3_GTP_CAVITY_N1_ALL
#    Modification time : Fri May 22 19:28:09 2020

@<TRIPOS>MOLECULE
6bbn_3_GTP_CAVITY_N1_ALL
   76     0     6     0     0
SMALL
NO_CHARGES


@<TRIPOS>ATOM
      1 OG         17.8000    9.2700   42.5100 O.3       1 SER1        0.0000 
      2 OG         18.7300    9.5600   43.6500 O.3       1 SER1        0.0000 
      3 N          16.4600    7.0700   42.2000 N.am      2 ALA2        0.0000 
      4 N          21.6200    6.2600   40.1500 N.am      2 ALA2        0.0000 
      5 N          23.5600    7.0900   40.3200 N.am      2 ALA2        0.0000 
      6 N          23.1500    5.1800   41.1500 N.am      2 ALA2        0.0000 
      7 N          22.5500    6.5500   41.2900 N.am      2 ALA2        0.0000 
      8 N          21.5400    6.0000   42.2600 N.am      2 ALA2        0.0000 
      9 N          19.9300    6.8300   43.3600 N.am      2 ALA2        0.0000 
     10 N          19.5200    4.9100   44.1900 N.am      2 ALA2        0.0000 
     11 O          25.5000    7.9300   40.4900 O.2       2 ALA2        0.0000 
     12 O          25.0900    6.0100   41.3200 O.2       2 ALA2        0.0000 
     13 N          24.4900    7.3800   41.4600 N.am      2 ALA2        0.0000 
     14 N          23.4800    6.8400   42.4300 N.am      2 ALA2        0.0000 
     15 N          22.4700    6.2900   43.3900 N.am      2 ALA2        0.0000 
     16 N          21.8700    7.6600   43.5400 N.am      2 ALA2        0.0000 
     17 N          20.8600    7.1200   44.5000 N.am      2 ALA2        0.0000 
     18 O          19.8500    6.5700   45.4700 O.2       2 ALA2        0.0000 
     19 O          27.0400    6.8500   41.4900 O.2       2 ALA2        0.0000 
     20 O          26.4400    8.2200   41.6300 O.2       2 ALA2        0.0000 
     21 N          26.0300    6.3100   42.4600 N.am      2 ALA2        0.0000 
     22 O          25.0200    5.7600   43.4200 O.2       2 ALA2        0.0000 
     23 O          23.4100    6.5800   44.5300 O.2       2 ALA2        0.0000 
     24 O          22.8100    7.9500   44.6700 O.2       2 ALA2        0.0000 
     25 N          28.5700    5.7700   42.4900 N.am      2 ALA2        0.0000 
     26 O          27.9700    7.1400   42.6300 O.2       2 ALA2        0.0000 
     27 O          27.3700    8.5100   42.7700 O.2       2 ALA2        0.0000 
     28 N          26.9600    6.6000   43.5900 N.am      2 ALA2        0.0000 
     29 N          25.9500    6.0500   44.5600 N.am      2 ALA2        0.0000 
     30 O          24.3400    6.8800   45.6700 O.2       2 ALA2        0.0000 
     31 N          29.5000    6.0600   43.6200 N.am      2 ALA2        0.0000 
     32 OD1        17.3900    7.3600   43.3400 O.co2     3 ASP3        0.0000 
     33 OD1        16.7900    8.7200   43.4800 O.co2     3 ASP3        0.0000 
     34 OD1        18.9200    6.2800   44.3300 O.co2     3 ASP3        0.0000 
     35 OD1        17.7200    9.0200   44.6200 O.co2     3 ASP3        0.0000 
     36 NZ         17.4700    7.6100   41.2300 N.4       4 LYS4        0.0000 
     37 NZ         18.4000    7.9000   42.3700 N.4       4 LYS4        0.0000 
     38 NZ         21.9500    7.9100   41.4300 N.4       4 LYS4        0.0000 
     39 NZ         20.9400    7.3700   42.4000 N.4       4 LYS4        0.0000 
     40 NZ         20.3400    8.7400   42.5400 N.4       4 LYS4        0.0000 
     41 NZ         19.3300    8.1900   43.5100 N.4       4 LYS4        0.0000 
     42 NZ         25.8400    9.5800   41.7800 N.4       4 LYS4        0.0000 
     43 NZ         24.8300    9.0400   42.7400 N.4       4 LYS4        0.0000 
     44 NZ         24.2300   10.4100   42.8800 N.4       4 LYS4        0.0000 
     45 NZ         23.5500   11.5200   45.1300 N.4       4 LYS4        0.0000 
     46 CA         20.6100    5.7100   41.1200 C.3       5 GLY6        0.0000 
     47 CA         19.0000    6.5300   42.2300 C.3       5 GLY6        0.0000 
     48 CA         17.9900    5.9900   43.1900 C.3       5 GLY6        0.0000 
     49 CA         22.9600    8.4600   40.4700 C.3       5 GLY6        0.0000 
     50 CA         21.3500    9.2800   41.5700 C.3       5 GLY6        0.0000 
     51 CA         18.3200    7.6500   44.4700 C.3       5 GLY6        0.0000 
     52 CA         24.9000    9.2900   40.6400 C.3       5 GLY6        0.0000 
     53 CA         23.8900    8.7500   41.6000 C.3       5 GLY6        0.0000 
     54 CA         23.2900   10.1200   41.7500 C.3       5 GLY6        0.0000 
     55 CA         24.0800    5.4700   42.2800 C.3       5 GLY6        0.0000 
     56 CA         22.2800    9.5700   42.7100 C.3       5 GLY6        0.0000 
     57 CA         21.2700    9.0300   43.6800 C.3       5 GLY6        0.0000 
     58 CA         20.2600    8.4800   44.6500 C.3       5 GLY6        0.0000 
     59 CA         19.6600    9.8500   44.7900 C.3       5 GLY6        0.0000 
     60 CA         24.4200    7.1300   43.5700 C.3       5 GLY6        0.0000 
     61 CA         23.2200    9.8600   43.8500 C.3       5 GLY6        0.0000 
     62 CA         22.2100    9.3200   44.8200 C.3       5 GLY6        0.0000 
     63 CA         21.6100   10.6900   44.9600 C.3       5 GLY6        0.0000 
     64 CA         21.2000    8.7700   45.7800 C.3       5 GLY6        0.0000 
     65 CA         23.7400    8.2400   45.8100 C.3       5 GLY6        0.0000 
     66 CA         23.1400    9.6100   45.9600 C.3       5 GLY6        0.0000 
     67 DU         22.8800    8.2000   42.5700 H         6 CUB7        0.0000 
     68 DU         25.4300    7.6700   42.6000 H         6 CUB7        0.0000 
     69 DU         23.8200    8.5000   43.7100 H         6 CUB7        0.0000 
     70 DU         26.3600    7.9600   43.7400 H         6 CUB7        0.0000 
     71 DU         25.7600    9.3300   43.8800 H         6 CUB7        0.0000 
     72 DU         25.3500    7.4200   44.7000 H         6 CUB7        0.0000 
     73 DU         24.7500    8.7900   44.8500 H         6 CUB7        0.0000 
     74 DU         24.1500   10.1500   44.9900 H         6 CUB7        0.0000 
     75 DU         28.9000    7.4300   43.7700 H         6 CUB7        0.0000 
     76 DU         26.2800    7.7100   45.8400 H         6 CUB7        0.0000 
@<TRIPOS>BOND
@<TRIPOS>SUBSTRUCTURE
     1 SER1        1 GROUP   
     2 ALA2        3 GROUP   
     3 ASP3       32 GROUP   
     4 LYS4       36 GROUP   
     5 GLY6       46 GROUP   
     6 CUB7       67 GROUP   
@<TRIPOS>SET

