#    Name: 6bbn_5_ANP
#    Modification time : Fri May 22 19:28:22 2020

@<TRIPOS>MOLECULE
6bbn_5_ANP
   31    33     1     0     1
SMALL
NO_CHARGES


@<TRIPOS>ATOM
      1 PG         -1.3090   -8.1200   12.1270 P.3       1 ANP601      0.0000 
      2 O1G        -2.5470   -7.3020   11.9510 O.co2     1 ANP601      0.0000 
      3 O2G        -1.7550   -9.5930   12.4630 O.co2     1 ANP601      0.0000 
      4 O3G        -0.4470   -7.5630   13.3260 O.co2     1 ANP601      0.0000 
      5 PB         -1.1380   -9.1940    9.6190 P.3       1 ANP601      0.0000 
      6 O1B        -0.2230  -10.4410    9.4150 O.co2     1 ANP601      0.0000 
      7 O2B        -2.4520   -9.6290   10.1690 O.co2     1 ANP601      0.0000 
      8 N3B        -0.4210   -8.1110   10.6840 N.3       1 ANP601      0.0000 
      9 PA         -2.7950   -8.8700    7.5910 P.3       1 ANP601      0.0000 
     10 O1A        -3.0220  -10.3530    7.8920 O.co2     1 ANP601      0.0000 
     11 O2A        -3.8410   -7.9610    8.1090 O.co2     1 ANP601      0.0000 
     12 O3A        -1.4010   -8.5220    8.2410 O.3       1 ANP601      0.0000 
     13 O5'        -2.6410   -8.6380    6.0410 O.3       1 ANP601      0.0000 
     14 C5'        -1.7150   -7.6720    5.5350 C.3       1 ANP601      0.0000 
     15 C4'        -1.7830   -7.6870    4.0300 C.3       1 ANP601      0.0000 
     16 O4'        -1.2830   -8.9340    3.5220 O.3       1 ANP601      0.0000 
     17 C3'        -3.1830   -7.5890    3.4410 C.3       1 ANP601      0.0000 
     18 O3'        -3.5750   -6.2240    3.3540 O.3       1 ANP601      0.0000 
     19 C2'        -3.0230   -8.2430    2.0580 C.3       1 ANP601      0.0000 
     20 O2'        -2.8640   -7.2700    1.0330 O.3       1 ANP601      0.0000 
     21 C1'        -1.7210   -9.0500    2.1840 C.3       1 ANP601      0.0000 
     22 N9         -1.8560  -10.4630    1.8400 N.pl3     1 ANP601      0.0000 
     23 C8         -2.0680  -11.5160    2.6900 C.2       1 ANP601      0.0000 
     24 N7         -2.1550  -12.6830    2.0950 N.2       1 ANP601      0.0000 
     25 C5         -1.9950  -12.3720    0.7510 C.ar      1 ANP601      0.0000 
     26 C6         -1.9870  -13.1720   -0.4090 C.ar      1 ANP601      0.0000 
     27 N6         -2.1500  -14.4940   -0.4040 N.pl3     1 ANP601      0.0000 
     28 N1         -1.8010  -12.5490   -1.5970 N.ar      1 ANP601      0.0000 
     29 C2         -1.6350  -11.2220   -1.6100 C.ar      1 ANP601      0.0000 
     30 N3         -1.6240  -10.3690   -0.5810 N.ar      1 ANP601      0.0000 
     31 C4         -1.8110  -11.0130    0.5800 C.ar      1 ANP601      0.0000 
@<TRIPOS>BOND
     1    1    2 ar   
     2    1    3 ar   
     3    1    4 ar   
     4    1    8 1    
     5    5    6 ar   
     6    5    7 ar   
     7    5    8 1    
     8    5   12 1    
     9    9   10 ar   
    10    9   11 ar   
    11    9   12 1    
    12    9   13 1    
    13   13   14 1    
    14   14   15 1    
    15   15   16 1    
    16   15   17 1    
    17   16   21 1    
    18   17   18 1    
    19   17   19 1    
    20   19   20 1    
    21   19   21 1    
    22   21   22 1    
    23   22   23 1    
    24   22   31 1    
    25   23   24 2    
    26   24   25 1    
    27   25   26 ar   
    28   25   31 ar   
    29   26   27 1    
    30   26   28 ar   
    31   28   29 ar   
    32   29   30 ar   
    33   30   31 ar   
@<TRIPOS>SUBSTRUCTURE
     1 ANP601      1 GROUP   
@<TRIPOS>SET
ATOM$ORANGE STATIC     ATOMS   COLORGROUP SYSTEM 
20 14 14 15 15 17 17 19 19 21 21 23 23 25 25 26 26 29 \
29 31 31 

