#    Name: 6bbn_5_ANP_CAVITY_N1_6
#    Modification time : Fri May 22 19:28:24 2020

@<TRIPOS>MOLECULE
6bbn_5_ANP_CAVITY_N1_6
   59     0     6     0     0
SMALL
NO_CHARGES


@<TRIPOS>ATOM
      1 OG         -2.0900   -7.3600    7.7100 O.3       1 SER1        0.0000 
      2 OG         -2.6900   -5.9900    7.8500 O.3       1 SER1        0.0000 
      3 OG         -2.5000   -9.2700    8.5300 O.3       1 SER1        0.0000 
      4 OG         -3.1000   -7.9000    8.6800 O.3       1 SER1        0.0000 
      5 OG         -3.7000   -6.5400    8.8200 O.3       1 SER1        0.0000 
      6 OG         -1.1600   -7.0700    8.8500 O.3       1 SER1        0.0000 
      7 OG         -2.1700   -7.6100    9.8200 O.3       1 SER1        0.0000 
      8 OG         -1.2400   -7.3200   10.9500 O.3       1 SER1        0.0000 
      9 N          -9.0500   -6.8800    5.3800 N.am      2 ALA2        0.0000 
     10 N          -9.4500   -8.7900    6.2000 N.am      2 ALA2        0.0000 
     11 O          -4.9700   -8.4800    6.4000 O.2       2 ALA2        0.0000 
     12 N          -5.2400   -5.4600    7.8200 N.am      2 ALA2        0.0000 
     13 N          -6.2500   -6.0000    8.7900 N.am      2 ALA2        0.0000 
     14 N          -6.8500   -4.6400    8.9300 N.am      2 ALA2        0.0000 
     15 O          -1.4900   -8.7300    7.5700 O.2       2 ALA2        0.0000 
     16 N          -3.3000   -4.6200    8.0000 N.am      2 ALA2        0.0000 
     17 O          -4.7100   -7.0800    9.7900 O.2       2 ALA2        0.0000 
     18 O          -5.3100   -5.7100    9.9300 O.2       2 ALA2        0.0000 
     19 O          -6.9300   -4.8900   11.0400 O.2       2 ALA2        0.0000 
     20 O          -0.5600   -8.4300    8.7100 O.2       2 ALA2        0.0000 
     21 OD1        -1.5700   -8.9800    9.6700 O.co2     3 ASP3        0.0000 
     22 OD1        -0.6400   -8.6900   10.8100 O.co2     3 ASP3        0.0000 
     23 CZ         -7.7800   -4.9300    7.7900 C.ar      4 PHE5        0.0000 
     24 CA         -3.2800   -9.0500    3.1900 C.3       5 GLY6        0.0000 
     25 CA         -4.8900   -8.2300    4.3000 C.3       5 GLY6        0.0000 
     26 CA         -7.5100   -7.9500    6.3700 C.3       5 GLY6        0.0000 
     27 CA         -8.5200   -8.5000    7.3400 C.3       5 GLY6        0.0000 
     28 CA         -9.1200   -7.1300    7.4800 C.3       5 GLY6        0.0000 
     29 CA         -9.5300   -9.0400    8.3000 C.3       5 GLY6        0.0000 
     30 CA         -2.3500   -8.7600    4.3300 C.3       5 GLY6        0.0000 
     31 CA         -3.3600   -9.3100    5.2900 C.3       5 GLY6        0.0000 
     32 CA         -3.9600   -7.9400    5.4300 C.3       5 GLY6        0.0000 
     33 CA         -6.5800   -7.6600    7.5100 C.3       5 GLY6        0.0000 
     34 CA         -8.1900   -6.8400    8.6200 C.3       5 GLY6        0.0000 
     35 CA         -9.2000   -7.3800    9.5900 C.3       5 GLY6        0.0000 
     36 CA         -1.4200   -8.4700    5.4600 C.3       5 GLY6        0.0000 
     37 CA         -2.4300   -9.0200    6.4300 C.3       5 GLY6        0.0000 
     38 CA         -3.4400   -9.5600    7.4000 C.3       5 GLY6        0.0000 
     39 CA         -4.0400   -8.1900    7.5400 C.3       5 GLY6        0.0000 
     40 CA         -5.6500   -7.3700    8.6500 C.3       5 GLY6        0.0000 
     41 CA         -7.2600   -6.5500    9.7600 C.3       5 GLY6        0.0000 
     42 CA         -8.2700   -7.0900   10.7200 C.3       5 GLY6        0.0000 
     43 CA          0.5300   -7.6400    5.6400 C.3       5 GLY6        0.0000 
     44 CA         -0.0700   -6.2700    5.7800 C.3       5 GLY6        0.0000 
     45 CA         -0.4800   -8.1800    6.6000 C.3       5 GLY6        0.0000 
     46 CA         -1.0800   -6.8100    6.7400 C.3       5 GLY6        0.0000 
     47 CA         -7.3300   -6.8000   11.8600 C.3       5 GLY6        0.0000 
     48 CA         -7.9300   -5.4300   12.0000 C.3       5 GLY6        0.0000 
     49 CA         -0.1500   -6.5200    7.8800 C.3       5 GLY6        0.0000 
     50 DU         -8.1100   -6.5800    6.5100 H         6 CUB7        0.0000 
     51 DU         -5.5700   -7.1200    6.5400 H         6 CUB7        0.0000 
     52 DU         -6.1700   -5.7500    6.6900 H         6 CUB7        0.0000 
     53 DU         -7.1800   -6.2900    7.6500 H         6 CUB7        0.0000 
     54 DU         -8.7900   -5.4700    8.7600 H         6 CUB7        0.0000 
     55 DU         -2.0200   -7.1000    5.6100 H         6 CUB7        0.0000 
     56 DU         -3.0300   -7.6500    6.5700 H         6 CUB7        0.0000 
     57 DU         -3.6300   -6.2800    6.7200 H         6 CUB7        0.0000 
     58 DU         -4.6400   -6.8300    7.6800 H         6 CUB7        0.0000 
     59 DU         -7.8600   -5.1800    9.9000 H         6 CUB7        0.0000 
@<TRIPOS>BOND
@<TRIPOS>SUBSTRUCTURE
     1 SER1        1 GROUP   
     2 ALA2        9 GROUP   
     3 ASP3       21 GROUP   
     4 PHE5       23 GROUP   
     5 GLY6       24 GROUP   
     6 CUB7       50 GROUP   
@<TRIPOS>SET

