#    Name: 6bbn_1_GTP_CAVITY_N1_6
#    Modification time : Fri May 22 19:27:50 2020

@<TRIPOS>MOLECULE
6bbn_1_GTP_CAVITY_N1_6
   82     0     7     0     0
SMALL
NO_CHARGES


@<TRIPOS>ATOM
      1 OG         71.5400   16.4700  -36.9700 O.3       1 SER1        0.0000 
      2 OG         72.0600   14.8500  -35.0000 O.3       1 SER1        0.0000 
      3 OG         71.0500   14.3000  -34.0400 O.3       1 SER1        0.0000 
      4 OG         70.4500   15.6700  -33.9000 O.3       1 SER1        0.0000 
      5 OG         75.6100   14.8600  -35.9400 O.3       1 SER1        0.0000 
      6 OG         75.0100   16.2300  -35.8000 O.3       1 SER1        0.0000 
      7 OG         74.4100   17.5900  -35.6600 O.3       1 SER1        0.0000 
      8 OG         74.6000   14.3100  -34.9800 O.3       1 SER1        0.0000 
      9 OG         74.0000   15.6800  -34.8300 O.3       1 SER1        0.0000 
     10 OG         73.4000   17.0500  -34.6900 O.3       1 SER1        0.0000 
     11 OG         72.9900   15.1400  -33.8700 O.3       1 SER1        0.0000 
     12 OG         72.3900   16.5000  -33.7200 O.3       1 SER1        0.0000 
     13 O          71.2000   14.8100  -38.2500 O.2       2 ALA2        0.0000 
     14 N          74.3500   12.9100  -38.3600 N.am      2 ALA2        0.0000 
     15 O          73.3400   12.3700  -37.3900 O.2       2 ALA2        0.0000 
     16 O          72.7400   13.7300  -37.2500 O.2       2 ALA2        0.0000 
     17 O          72.1400   15.1000  -37.1100 O.2       2 ALA2        0.0000 
     18 O          71.1300   14.5600  -36.1400 O.2       2 ALA2        0.0000 
     19 N          69.9300   17.2900  -35.8600 N.am      2 ALA2        0.0000 
     20 N          69.3300   18.6600  -35.7200 N.am      2 ALA2        0.0000 
     21 O          70.1200   14.0100  -35.1800 O.2       2 ALA2        0.0000 
     22 N          68.9200   16.7500  -34.8900 N.am      2 ALA2        0.0000 
     23 N          76.5100   18.9300  -39.6900 N.am      2 ALA2        0.0000 
     24 O          75.2800   13.2000  -37.2200 O.2       2 ALA2        0.0000 
     25 O          74.6800   14.5700  -37.0800 O.2       2 ALA2        0.0000 
     26 O          72.8800   18.6700  -36.6500 O.2       2 ALA2        0.0000 
     27 N          71.8700   18.1300  -35.6900 N.am      2 ALA2        0.0000 
     28 N          70.8600   17.5800  -34.7200 N.am      2 ALA2        0.0000 
     29 N          69.8500   17.0400  -33.7500 N.am      2 ALA2        0.0000 
     30 N          69.2500   18.4000  -33.6100 N.am      2 ALA2        0.0000 
     31 O          69.4400   15.1300  -32.9300 O.2       2 ALA2        0.0000 
     32 N          68.8400   16.4900  -32.7900 N.am      2 ALA2        0.0000 
     33 N          79.0500   18.4000  -39.6700 N.am      2 ALA2        0.0000 
     34 O          78.0400   17.8600  -38.7000 O.2       2 ALA2        0.0000 
     35 N          77.4400   19.2300  -38.5600 N.am      2 ALA2        0.0000 
     36 O          77.0300   17.3100  -37.7300 O.2       2 ALA2        0.0000 
     37 N          75.8300   20.0500  -37.4500 N.am      2 ALA2        0.0000 
     38 O          76.6200   15.4000  -36.9100 O.2       2 ALA2        0.0000 
     39 O          74.8200   19.5000  -36.4800 O.2       2 ALA2        0.0000 
     40 O          76.8100   12.1200  -36.2300 O.2       2 ALA2        0.0000 
     41 O          76.2100   13.4900  -36.0800 O.2       2 ALA2        0.0000 
     42 O          73.8100   18.9600  -35.5100 O.2       2 ALA2        0.0000 
     43 N          72.8000   18.4200  -34.5500 N.am      2 ALA2        0.0000 
     44 N          71.7900   17.8700  -33.5800 N.am      2 ALA2        0.0000 
     45 N          70.7800   17.3300  -32.6100 N.am      2 ALA2        0.0000 
     46 N          70.1800   18.6900  -32.4700 N.am      2 ALA2        0.0000 
     47 OD1        68.3200   18.1100  -34.7500 O.co2     3 ASP3        0.0000 
     48 OD1        68.2400   17.8600  -32.6400 O.co2     3 ASP3        0.0000 
     49 OD1        69.7700   16.7800  -31.6500 O.co2     3 ASP3        0.0000 
     50 NZ         74.8700   11.2900  -36.4000 N.4       4 LYS4        0.0000 
     51 NZ         74.2700   12.6600  -36.2600 N.4       4 LYS4        0.0000 
     52 NZ         73.6700   14.0200  -36.1100 N.4       4 LYS4        0.0000 
     53 NZ         72.6600   13.4800  -35.1500 N.4       4 LYS4        0.0000 
     54 NZ         75.8000   11.5800  -35.2600 N.4       4 LYS4        0.0000 
     55 NZ         75.2000   12.9500  -35.1200 N.4       4 LYS4        0.0000 
     56 NZ         73.5900   13.7700  -34.0100 N.4       4 LYS4        0.0000 
     57 CZ         76.4300   18.6800  -37.5900 C.ar      5 PHE5        0.0000 
     58 CZ         76.0200   16.7700  -36.7700 C.ar      5 PHE5        0.0000 
     59 CZ         75.4200   18.1400  -36.6200 C.ar      5 PHE5        0.0000 
     60 CA         75.1700   16.7300  -40.0100 C.3       6 GLY6        0.0000 
     61 CA         74.7600   14.8200  -39.1800 C.3       6 GLY6        0.0000 
     62 CA         74.1600   16.1900  -39.0400 C.3       6 GLY6        0.0000 
     63 CA         73.7500   14.2800  -38.2200 C.3       6 GLY6        0.0000 
     64 CA         73.1500   15.6400  -38.0800 C.3       6 GLY6        0.0000 
     65 CA         72.5500   17.0100  -37.9300 C.3       6 GLY6        0.0000 
     66 CA         70.9400   17.8300  -36.8200 C.3       6 GLY6        0.0000 
     67 CA         71.7300   13.1900  -36.2900 C.3       6 GLY6        0.0000 
     68 CA         70.5300   15.9200  -36.0000 C.3       6 GLY6        0.0000 
     69 CA         70.7200   12.6400  -35.3200 C.3       6 GLY6        0.0000 
     70 CA         77.1100   17.5700  -39.8400 C.3       6 GLY6        0.0000 
     71 CA         76.1000   17.0200  -38.8700 C.3       6 GLY6        0.0000 
     72 CA         75.5000   18.3900  -38.7300 C.3       6 GLY6        0.0000 
     73 CA         75.0900   16.4800  -37.9000 C.3       6 GLY6        0.0000 
     74 CA         74.4900   17.8500  -37.7600 C.3       6 GLY6        0.0000 
     75 CA         73.8900   19.2100  -37.6200 C.3       6 GLY6        0.0000 
     76 CA         75.8800   11.8300  -37.3700 C.3       6 GLY6        0.0000 
     77 CA         73.4800   17.3000  -36.8000 C.3       6 GLY6        0.0000 
     78 CA         68.7600   16.2400  -30.6800 C.3       6 GLY6        0.0000 
     79 DU         74.0800   15.9400  -36.9400 H         7 CUB7        0.0000 
     80 DU         73.0700   15.3900  -35.9700 H         7 CUB7        0.0000 
     81 DU         72.4700   16.7600  -35.8300 H         7 CUB7        0.0000 
     82 DU         71.4600   16.2100  -34.8600 H         7 CUB7        0.0000 
@<TRIPOS>BOND
@<TRIPOS>SUBSTRUCTURE
     1 SER1        1 GROUP   
     2 ALA2       13 GROUP   
     3 ASP3       47 GROUP   
     4 LYS4       50 GROUP   
     5 PHE5       57 GROUP   
     6 GLY6       60 GROUP   
     7 CUB7       79 GROUP   
@<TRIPOS>SET

