#    Name: 6bbn_3_GTP_CAVITY_N1_8
#    Modification time : Fri May 22 19:28:09 2020

@<TRIPOS>MOLECULE
6bbn_3_GTP_CAVITY_N1_8
   30     0     4     0     0
SMALL
NO_CHARGES


@<TRIPOS>ATOM
      1 N          21.6200    6.2600   40.1500 N.am      1 ALA2        0.0000 
      2 N          23.5600    7.0900   40.3200 N.am      1 ALA2        0.0000 
      3 N          23.1500    5.1800   41.1500 N.am      1 ALA2        0.0000 
      4 N          22.5500    6.5500   41.2900 N.am      1 ALA2        0.0000 
      5 N          21.5400    6.0000   42.2600 N.am      1 ALA2        0.0000 
      6 O          25.5000    7.9300   40.4900 O.2       1 ALA2        0.0000 
      7 O          25.0900    6.0100   41.3200 O.2       1 ALA2        0.0000 
      8 N          24.4900    7.3800   41.4600 N.am      1 ALA2        0.0000 
      9 N          23.4800    6.8400   42.4300 N.am      1 ALA2        0.0000 
     10 O          27.0400    6.8500   41.4900 O.2       1 ALA2        0.0000 
     11 O          26.4400    8.2200   41.6300 O.2       1 ALA2        0.0000 
     12 N          26.0300    6.3100   42.4600 N.am      1 ALA2        0.0000 
     13 O          25.0200    5.7600   43.4200 O.2       1 ALA2        0.0000 
     14 N          28.5700    5.7700   42.4900 N.am      1 ALA2        0.0000 
     15 O          27.9700    7.1400   42.6300 O.2       1 ALA2        0.0000 
     16 O          27.3700    8.5100   42.7700 O.2       1 ALA2        0.0000 
     17 N          26.9600    6.6000   43.5900 N.am      1 ALA2        0.0000 
     18 N          29.5000    6.0600   43.6200 N.am      1 ALA2        0.0000 
     19 NZ         17.4700    7.6100   41.2300 N.4       2 LYS4        0.0000 
     20 NZ         21.9500    7.9100   41.4300 N.4       2 LYS4        0.0000 
     21 NZ         20.9400    7.3700   42.4000 N.4       2 LYS4        0.0000 
     22 NZ         25.8400    9.5800   41.7800 N.4       2 LYS4        0.0000 
     23 CA         20.6100    5.7100   41.1200 C.3       3 GLY6        0.0000 
     24 CA         19.0000    6.5300   42.2300 C.3       3 GLY6        0.0000 
     25 CA         22.9600    8.4600   40.4700 C.3       3 GLY6        0.0000 
     26 CA         24.9000    9.2900   40.6400 C.3       3 GLY6        0.0000 
     27 CA         23.8900    8.7500   41.6000 C.3       3 GLY6        0.0000 
     28 CA         24.0800    5.4700   42.2800 C.3       3 GLY6        0.0000 
     29 DU         25.4300    7.6700   42.6000 H         4 CUB7        0.0000 
     30 DU         28.9000    7.4300   43.7700 H         4 CUB7        0.0000 
@<TRIPOS>BOND
@<TRIPOS>SUBSTRUCTURE
     1 ALA2        1 GROUP   
     2 LYS4       19 GROUP   
     3 GLY6       23 GROUP   
     4 CUB7       29 GROUP   
@<TRIPOS>SET

