#    Name: 6bbn_1_GTP
#    Modification time : Fri May 22 19:27:48 2020

@<TRIPOS>MOLECULE
6bbn_1_GTP
   32    34     1     0     1
SMALL
NO_CHARGES


@<TRIPOS>ATOM
      1 PG         65.6470   18.0110  -35.1180 P.3       1 GTP501      0.0000 
      2 O1G        65.0260   19.3580  -35.3830 O.co2     1 GTP501      0.0000 
      3 O2G        64.6130   17.0580  -34.5670 O.co2     1 GTP501      0.0000 
      4 O3G        66.7790   18.1980  -34.1430 O.co2     1 GTP501      0.0000 
      5 O3B        66.2170   17.4420  -36.5090 O.3       1 GTP501      0.0000 
      6 PB         67.5400   18.1120  -37.1250 P.3       1 GTP501      0.0000 
      7 O1B        67.5590   17.8400  -38.6130 O.co2     1 GTP501      0.0000 
      8 O2B        67.5720   19.5900  -36.8190 O.co2     1 GTP501      0.0000 
      9 O3A        68.7660   17.3410  -36.4170 O.3       1 GTP501      0.0000 
     10 PA         70.2750   17.4060  -36.9940 P.3       1 GTP501      0.0000 
     11 O1A        70.3110   18.1500  -38.3090 O.co2     1 GTP501      0.0000 
     12 O2A        71.1810   18.0650  -35.9820 O.co2     1 GTP501      0.0000 
     13 O5'        70.7230   15.8790  -37.2540 O.3       1 GTP501      0.0000 
     14 C5'        71.4570   15.1160  -36.3200 C.3       1 GTP501      0.0000 
     15 C4'        72.6330   14.4470  -37.0290 C.3       1 GTP501      0.0000 
     16 O4'        73.3240   15.4310  -37.7660 O.3       1 GTP501      0.0000 
     17 C3'        73.6190   13.8160  -36.0590 C.3       1 GTP501      0.0000 
     18 O3'        73.9150   12.5050  -36.4830 O.3       1 GTP501      0.0000 
     19 C2'        74.8720   14.6580  -36.1500 C.3       1 GTP501      0.0000 
     20 O2'        76.0140   13.8350  -36.2360 O.3       1 GTP501      0.0000 
     21 C1'        74.6870   15.4980  -37.4060 C.3       1 GTP501      0.0000 
     22 N9         74.9930   16.9100  -37.1270 N.pl3     1 GTP501      0.0000 
     23 C8         74.3300   17.7290  -36.2530 C.2       1 GTP501      0.0000 
     24 N7         74.9080   18.9510  -36.2910 N.2       1 GTP501      0.0000 
     25 C5         75.9210   18.9210  -37.1820 C.2       1 GTP501      0.0000 
     26 C6         76.8250   19.8850  -37.6030 C.2       1 GTP501      0.0000 
     27 O6         76.7750   21.0180  -37.1310 O.2       1 GTP501      0.0000 
     28 N1         77.7760   19.5670  -38.5500 N.am      1 GTP501      0.0000 
     29 C2         77.8270   18.2920  -39.0760 C.2       1 GTP501      0.0000 
     30 N2         78.7450   17.9840  -39.9890 N.pl3     1 GTP501      0.0000 
     31 N3         76.9220   17.3400  -38.6500 N.2       1 GTP501      0.0000 
     32 C4         75.9850   17.6460  -37.7200 C.2       1 GTP501      0.0000 
@<TRIPOS>BOND
     1    1    2 ar   
     2    1    3 ar   
     3    1    4 ar   
     4    1    5 1    
     5    5    6 1    
     6    6    7 ar   
     7    6    8 ar   
     8    6    9 1    
     9    9   10 1    
    10   10   11 ar   
    11   10   12 ar   
    12   10   13 1    
    13   13   14 1    
    14   14   15 1    
    15   15   16 1    
    16   15   17 1    
    17   16   21 1    
    18   17   18 1    
    19   17   19 1    
    20   19   20 1    
    21   19   21 1    
    22   21   22 1    
    23   22   23 1    
    24   22   32 1    
    25   23   24 2    
    26   24   25 1    
    27   25   26 1    
    28   25   32 2    
    29   26   27 2    
    30   26   28 am   
    31   28   29 1    
    32   29   30 1    
    33   29   31 2    
    34   31   32 1    
@<TRIPOS>SUBSTRUCTURE
     1 GTP501      1 GROUP   
@<TRIPOS>SET
ATOM$ORANGE STATIC     ATOMS   COLORGROUP SYSTEM 
20 14 14 15 15 17 17 19 19 21 21 23 23 25 25 26 26 29 \
29 32 32 

