#    Name: 6bbn_2_GDP
#    Modification time : Fri May 22 19:27:55 2020

@<TRIPOS>MOLECULE
6bbn_2_GDP
   28    30     1     0     1
SMALL
NO_CHARGES


@<TRIPOS>ATOM
      1 PB         50.0980   12.3380    1.4380 P.3       1 GDP501      0.0000 
      2 O1B        50.5700   12.5100    0.0080 O.co2     1 GDP501      0.0000 
      3 O2B        50.0550   13.6550    2.1780 O.co2     1 GDP501      0.0000 
      4 O3B        48.7050   11.7610    1.4620 O.co2     1 GDP501      0.0000 
      5 O3A        51.0650   11.3240    2.2220 O.3       1 GDP501      0.0000 
      6 PA         52.6600   11.5180    2.2190 P.3       1 GDP501      0.0000 
      7 O1A        53.0570   12.5510    1.1900 O.co2     1 GDP501      0.0000 
      8 O2A        53.1360   11.8730    3.6070 O.co2     1 GDP501      0.0000 
      9 O5'        53.2250   10.0690    1.8070 O.3       1 GDP501      0.0000 
     10 C5'        53.8660    9.2390    2.7710 C.3       1 GDP501      0.0000 
     11 C4'        54.8650    8.3260    2.0760 C.3       1 GDP501      0.0000 
     12 O4'        55.9120    9.1600    1.5970 O.3       1 GDP501      0.0000 
     13 C3'        55.4880    7.3460    3.0520 C.3       1 GDP501      0.0000 
     14 O3'        55.7790    6.1100    2.3920 O.3       1 GDP501      0.0000 
     15 C2'        56.7750    8.0070    3.4940 C.3       1 GDP501      0.0000 
     16 O2'        57.8160    7.0320    3.6340 O.3       1 GDP501      0.0000 
     17 C1'        57.0900    9.0130    2.3940 C.3       1 GDP501      0.0000 
     18 N9         57.4290   10.3510    2.9410 N.pl3     1 GDP501      0.0000 
     19 C8         56.6580   11.0960    3.7550 C.2       1 GDP501      0.0000 
     20 N7         57.2570   12.2770    4.0570 N.2       1 GDP501      0.0000 
     21 C5         58.4350   12.3070    3.4140 C.2       1 GDP501      0.0000 
     22 C6         59.5590   13.2660    3.3000 C.2       1 GDP501      0.0000 
     23 O6         59.5460   14.3650    3.8960 O.2       1 GDP501      0.0000 
     24 N1         60.5930   12.9140    2.5340 N.am      1 GDP501      0.0000 
     25 C2         60.6330   11.7380    1.8830 C.2       1 GDP501      0.0000 
     26 N2         61.7240   11.4740    1.1350 N.pl3     1 GDP501      0.0000 
     27 N3         59.6460   10.8070    1.9390 N.2       1 GDP501      0.0000 
     28 C4         58.5390   11.0360    2.6780 C.2       1 GDP501      0.0000 
@<TRIPOS>BOND
     1    1    2 ar   
     2    1    3 ar   
     3    1    4 ar   
     4    1    5 1    
     5    5    6 1    
     6    6    7 ar   
     7    6    8 ar   
     8    6    9 1    
     9    9   10 1    
    10   10   11 1    
    11   11   12 1    
    12   11   13 1    
    13   12   17 1    
    14   13   14 1    
    15   13   15 1    
    16   15   16 1    
    17   15   17 1    
    18   17   18 1    
    19   18   19 1    
    20   18   28 1    
    21   19   20 2    
    22   20   21 1    
    23   21   22 1    
    24   21   28 2    
    25   22   23 2    
    26   22   24 am   
    27   24   25 1    
    28   25   26 1    
    29   25   27 2    
    30   27   28 1    
@<TRIPOS>SUBSTRUCTURE
     1 GDP501      1 GROUP   
@<TRIPOS>SET
ATOM$ORANGE STATIC     ATOMS   COLORGROUP SYSTEM 
20 10 10 11 11 13 13 15 15 17 17 19 19 21 21 22 22 25 \
25 28 28 

