#    Name: 6bbn_3_GTP_CAVITY_N1_6
#    Modification time : Fri May 22 19:28:09 2020

@<TRIPOS>MOLECULE
6bbn_3_GTP_CAVITY_N1_6
    5     0     1     0     0
SMALL
NO_CHARGES


@<TRIPOS>ATOM
      1 N          21.6200    6.2600   40.1500 N.am      1 ALA2        0.0000 
      2 N          23.5600    7.0900   40.3200 N.am      1 ALA2        0.0000 
      3 N          23.1500    5.1800   41.1500 N.am      1 ALA2        0.0000 
      4 O          27.0400    6.8500   41.4900 O.2       1 ALA2        0.0000 
      5 N          28.5700    5.7700   42.4900 N.am      1 ALA2        0.0000 
@<TRIPOS>BOND
@<TRIPOS>SUBSTRUCTURE
     1 ALA2        1 GROUP   
@<TRIPOS>SET

