#    Name: 6bbn_4_GDP_CAVITY_N1_4
#    Modification time : Fri May 22 19:28:16 2020

@<TRIPOS>MOLECULE
6bbn_4_GDP_CAVITY_N1_4
  119     0     6     0     0
SMALL
NO_CHARGES


@<TRIPOS>ATOM
      1 OG        -11.4300   -6.9000   58.7400 O.3       1 SER1        0.0000 
      2 OG         -6.1600  -11.2500   59.4800 O.3       1 SER1        0.0000 
      3 OG         -6.7600   -9.8800   59.6200 O.3       1 SER1        0.0000 
      4 OG         -4.2100  -10.4100   59.6500 O.3       1 SER1        0.0000 
      5 OG         -5.2200  -10.9600   60.6100 O.3       1 SER1        0.0000 
      6 OG         -4.7000  -12.5800   62.5800 O.3       1 SER1        0.0000 
      7 OG         -5.7100  -13.1200   63.5400 O.3       1 SER1        0.0000 
      8 OG         -6.3100  -11.7500   63.6900 O.3       1 SER1        0.0000 
      9 OG         -6.7200  -13.6600   64.5100 O.3       1 SER1        0.0000 
     10 O         -11.7700   -8.5600   57.4600 O.2       2 ALA2        0.0000 
     11 O         -12.7800   -9.1100   58.4200 O.2       2 ALA2        0.0000 
     12 O         -13.3800   -7.7400   58.5600 O.2       2 ALA2        0.0000 
     13 O          -9.2200   -9.0900   57.4800 O.2       2 ALA2        0.0000 
     14 O          -9.8200   -7.7300   57.6300 O.2       2 ALA2        0.0000 
     15 O         -10.2300   -9.6400   58.4500 O.2       2 ALA2        0.0000 
     16 O         -10.8300   -8.2700   58.5900 O.2       2 ALA2        0.0000 
     17 N         -11.8400   -8.8200   59.5600 N.am      2 ALA2        0.0000 
     18 O         -12.4400   -7.4500   59.7000 O.2       2 ALA2        0.0000 
     19 O          -8.8900   -7.4400   58.7700 O.2       2 ALA2        0.0000 
     20 O          -9.4900   -6.0700   58.9100 O.2       2 ALA2        0.0000 
     21 O          -9.1100  -12.6300   60.2700 O.2       2 ALA2        0.0000 
     22 N         -10.3100   -9.8900   60.5600 N.am      2 ALA2        0.0000 
     23 O         -10.9100   -8.5200   60.7000 O.2       2 ALA2        0.0000 
     24 O         -11.5100   -7.1600   60.8400 O.2       2 ALA2        0.0000 
     25 N         -11.9200   -9.0700   61.6600 N.am      2 ALA2        0.0000 
     26 O          -3.9500  -13.4400   58.2200 O.2       2 ALA2        0.0000 
     27 O          -5.5600  -12.6100   59.3300 O.2       2 ALA2        0.0000 
     28 O          -8.3700   -9.0600   60.7300 O.2       2 ALA2        0.0000 
     29 N          -8.7800  -10.9700   61.5500 N.am      2 ALA2        0.0000 
     30 O          -9.3800   -9.6000   61.6900 O.2       2 ALA2        0.0000 
     31 O          -9.1900  -12.8800   62.3800 O.2       2 ALA2        0.0000 
     32 N          -9.7900  -11.5100   62.5200 N.am      2 ALA2        0.0000 
     33 O         -10.3900  -10.1500   62.6600 O.2       2 ALA2        0.0000 
     34 O          -3.0100  -13.1500   59.3600 O.2       2 ALA2        0.0000 
     35 O          -4.0200  -13.6900   60.3300 O.2       2 ALA2        0.0000 
     36 O          -7.8400  -10.6800   62.6900 O.2       2 ALA2        0.0000 
     37 O          -7.0500  -15.3200   63.2300 O.2       2 ALA2        0.0000 
     38 O          -7.6500  -13.9600   63.3700 O.2       2 ALA2        0.0000 
     39 O          -8.8500  -11.2200   63.6600 O.2       2 ALA2        0.0000 
     40 N          -2.6800  -11.4900   60.6400 N.am      2 ALA2        0.0000 
     41 O          -3.0900  -13.4000   61.4700 O.2       2 ALA2        0.0000 
     42 O          -3.6900  -12.0300   61.6100 O.2       2 ALA2        0.0000 
     43 O          -4.1000  -13.9400   62.4300 O.2       2 ALA2        0.0000 
     44 N          -5.1100  -14.4900   63.4000 N.am      2 ALA2        0.0000 
     45 O          -6.9100  -10.3900   63.8300 O.2       2 ALA2        0.0000 
     46 O          -1.7500  -11.2000   61.7800 O.2       2 ALA2        0.0000 
     47 N          -2.3500   -9.8300   61.9200 N.am      2 ALA2        0.0000 
     48 O          -4.5600   -7.6400   63.1800 O.2       2 ALA2        0.0000 
     49 N          -5.5700   -8.1800   64.1400 N.am      2 ALA2        0.0000 
     50 N          -6.5800   -8.7300   65.1100 N.am      2 ALA2        0.0000 
     51 N           0.1900  -10.3600   61.9500 N.am      2 ALA2        0.0000 
     52 N          -1.0100   -7.6300   62.2400 N.am      2 ALA2        0.0000 
     53 O          -0.8200  -10.9100   62.9200 O.2       2 ALA2        0.0000 
     54 N          -1.4200   -9.5400   63.0600 N.am      2 ALA2        0.0000 
     55 O          -1.2300  -12.8200   63.7400 O.2       2 ALA2        0.0000 
     56 N          -5.2400   -6.5300   65.4200 N.am      2 ALA2        0.0000 
     57 O           0.5300   -8.7000   63.2300 O.2       2 ALA2        0.0000 
     58 N          -1.0800   -7.8800   64.3400 N.am      2 ALA2        0.0000 
     59 O          -2.3600   -5.4000   66.7300 O.2       2 ALA2        0.0000 
     60 NZ         -4.9600  -13.9800   59.1900 N.4       3 LYS4        0.0000 
     61 NZ         -6.5700  -13.1600   60.3000 N.4       3 LYS4        0.0000 
     62 NZ         -7.1700  -11.7900   60.4400 N.4       3 LYS4        0.0000 
     63 NZ         -7.5800  -13.7000   61.2700 N.4       3 LYS4        0.0000 
     64 NZ         -8.1800  -12.3400   61.4100 N.4       3 LYS4        0.0000 
     65 NZ         -8.5900  -14.2500   62.2300 N.4       3 LYS4        0.0000 
     66 NZ         -3.4200  -15.0600   60.1900 N.4       3 LYS4        0.0000 
     67 NZ         -5.0300  -14.2300   61.3000 N.4       3 LYS4        0.0000 
     68 NZ         -5.6300  -12.8700   61.4400 N.4       3 LYS4        0.0000 
     69 NZ         -6.6400  -13.4100   62.4000 N.4       3 LYS4        0.0000 
     70 CZ         -5.3000  -11.2100   62.7200 C.ar      4 PHE5        0.0000 
     71 CZ         -2.7600  -11.7400   62.7500 C.ar      4 PHE5        0.0000 
     72 CZ         -3.3600  -10.3700   62.8900 C.ar      4 PHE5        0.0000 
     73 CZ         -3.7700  -12.2900   63.7100 C.ar      4 PHE5        0.0000 
     74 CZ         -4.3700  -10.9200   63.8600 C.ar      4 PHE5        0.0000 
     75 CZ         -4.9700   -9.5500   64.0000 C.ar      4 PHE5        0.0000 
     76 CZ         -5.9800  -10.1000   64.9700 C.ar      4 PHE5        0.0000 
     77 CZ         -1.8300  -11.4500   63.8900 C.ar      4 PHE5        0.0000 
     78 CZ         -2.4300  -10.0800   64.0300 C.ar      4 PHE5        0.0000 
     79 CZ         -3.0300   -8.7200   64.1700 C.ar      4 PHE5        0.0000 
     80 CZ         -3.6300   -7.3500   64.3100 C.ar      4 PHE5        0.0000 
     81 CZ         -4.6400   -7.8900   65.2800 C.ar      4 PHE5        0.0000 
     82 CZ         -0.4800   -9.2500   64.2000 C.ar      4 PHE5        0.0000 
     83 CZ         -0.8900  -11.1600   65.0200 C.ar      4 PHE5        0.0000 
     84 CZ         -2.6900   -7.0600   65.4500 C.ar      4 PHE5        0.0000 
     85 CZ         -3.7000   -7.6000   66.4200 C.ar      4 PHE5        0.0000 
     86 CA         -7.6900  -10.1700   58.4800 C.3       5 GLY6        0.0000 
     87 CA         -8.2900   -8.8000   58.6200 C.3       5 GLY6        0.0000 
     88 CA         -8.1000  -12.0800   59.3000 C.3       5 GLY6        0.0000 
     89 CA         -8.7000  -10.7100   59.4500 C.3       5 GLY6        0.0000 
     90 CA         -9.3000   -9.3500   59.5900 C.3       5 GLY6        0.0000 
     91 CA         -9.9000   -7.9800   59.7300 C.3       5 GLY6        0.0000 
     92 CA        -10.5000   -6.6100   59.8700 C.3       5 GLY6        0.0000 
     93 CA         -4.5500  -12.0700   58.3700 C.3       5 GLY6        0.0000 
     94 CA         -7.3600   -8.5100   59.7600 C.3       5 GLY6        0.0000 
     95 CA         -8.9700   -7.6900   60.8700 C.3       5 GLY6        0.0000 
     96 CA         -3.6100  -11.7800   59.5000 C.3       5 GLY6        0.0000 
     97 CA         -5.8200   -9.5900   60.7600 C.3       5 GLY6        0.0000 
     98 CA         -4.4300  -15.6000   61.1500 C.3       5 GLY6        0.0000 
     99 CA         -7.4300   -8.7700   61.8700 C.3       5 GLY6        0.0000 
    100 CA         -6.0400  -14.7800   62.2600 C.3       5 GLY6        0.0000 
    101 CA         -3.2800  -10.1200   60.7900 C.3       5 GLY6        0.0000 
    102 CA         -4.2900  -10.6700   61.7500 C.3       5 GLY6        0.0000 
    103 CA         -4.8900   -9.3000   61.8900 C.3       5 GLY6        0.0000 
    104 CA         -6.5000   -8.4700   63.0000 C.3       5 GLY6        0.0000 
    105 CA         -3.9600   -9.0100   63.0300 C.3       5 GLY6        0.0000 
    106 CA         -3.1700  -13.6500   63.5700 C.3       5 GLY6        0.0000 
    107 CA         -2.0200   -8.1700   63.2000 C.3       5 GLY6        0.0000 
    108 CA         -4.2300   -5.9800   64.4600 C.3       5 GLY6        0.0000 
    109 CA          0.1200  -10.6200   64.0600 C.3       5 GLY6        0.0000 
    110 CA         -1.6800   -6.5100   64.4900 C.3       5 GLY6        0.0000 
    111 CA         -0.2900  -12.5300   64.8800 C.3       5 GLY6        0.0000 
    112 CA         -3.2900   -5.6900   65.5900 C.3       5 GLY6        0.0000 
    113 DU         -7.7700  -10.4200   60.5800 H         6 CUB7        0.0000 
    114 DU         -4.6200  -12.3200   60.4700 H         6 CUB7        0.0000 
    115 DU         -6.2300  -11.5000   61.5800 H         6 CUB7        0.0000 
    116 DU         -6.8300  -10.1300   61.7200 H         6 CUB7        0.0000 
    117 DU         -7.2400  -12.0400   62.5500 H         6 CUB7        0.0000 
    118 DU         -8.2500  -12.5900   63.5100 H         6 CUB7        0.0000 
    119 DU         -5.9000   -9.8400   62.8600 H         6 CUB7        0.0000 
@<TRIPOS>BOND
@<TRIPOS>SUBSTRUCTURE
     1 SER1        1 GROUP   
     2 ALA2       10 GROUP   
     3 LYS4       60 GROUP   
     4 PHE5       70 GROUP   
     5 GLY6       86 GROUP   
     6 CUB7      113 GROUP   
@<TRIPOS>SET

