#    Name: 6bbn_3_GTP
#    Modification time : Fri May 22 19:28:07 2020

@<TRIPOS>MOLECULE
6bbn_3_GTP
   32    34     1     0     1
SMALL
NO_CHARGES


@<TRIPOS>ATOM
      1 PG         20.5600    3.4230   34.6120 P.3       1 GTP501      0.0000 
      2 O1G        19.3550    2.6570   34.1280 O.co2     1 GTP501      0.0000 
      3 O2G        20.1890    4.8640   34.8790 O.co2     1 GTP501      0.0000 
      4 O3G        21.1050    2.8140   35.8840 O.co2     1 GTP501      0.0000 
      5 O3B        21.6920    3.4030   33.4740 O.3       1 GTP501      0.0000 
      6 PB         23.1700    3.8330   33.9310 P.3       1 GTP501      0.0000 
      7 O1B        24.0460    4.0600   32.7240 O.co2     1 GTP501      0.0000 
      8 O2B        23.0670    5.0470   34.8240 O.co2     1 GTP501      0.0000 
      9 O3A        23.6730    2.5420   34.7540 O.3       1 GTP501      0.0000 
     10 PA         25.2250    2.2180   35.0310 P.3       1 GTP501      0.0000 
     11 O1A        26.1290    3.0430   34.1470 O.co2     1 GTP501      0.0000 
     12 O2A        25.5180    2.4260   36.4990 O.co2     1 GTP501      0.0000 
     13 O5'        25.3620    0.6630   34.6380 O.3       1 GTP501      0.0000 
     14 C5'        25.8160   -0.3230   35.5390 C.3       1 GTP501      0.0000 
     15 C4'        27.2270   -0.7710   35.1610 C.3       1 GTP501      0.0000 
     16 O4'        28.0030    0.3660   34.8470 O.3       1 GTP501      0.0000 
     17 C3'        27.9160   -1.4910   36.3110 C.3       1 GTP501      0.0000 
     18 O3'        28.2540   -2.8070   35.9380 O.3       1 GTP501      0.0000 
     19 C2'        29.1820   -0.7100   36.5970 C.3       1 GTP501      0.0000 
     20 O2'        30.3060   -1.5600   36.5670 O.3       1 GTP501      0.0000 
     21 C1'        29.2520    0.3530   35.5100 C.3       1 GTP501      0.0000 
     22 N9         29.4630    1.6810   36.1150 N.pl3     1 GTP501      0.0000 
     23 C8         28.4980    2.4980   36.6450 C.2       1 GTP501      0.0000 
     24 N7         29.0820    3.6330   37.0930 N.2       1 GTP501      0.0000 
     25 C5         30.4100    3.5580   36.8460 C.2       1 GTP501      0.0000 
     26 C6         31.4630    4.4350   37.0890 C.2       1 GTP501      0.0000 
     27 O6         31.2540    5.5160   37.6360 O.2       1 GTP501      0.0000 
     28 N1         32.7480    4.0840   36.7220 N.am      1 GTP501      0.0000 
     29 C2         32.9740    2.8670   36.1090 C.2       1 GTP501      0.0000 
     30 N2         34.2010    2.5170   35.7480 N.pl3     1 GTP501      0.0000 
     31 N3         31.9240    2.0040   35.8690 N.2       1 GTP501      0.0000 
     32 C4         30.6610    2.3390   36.2310 C.2       1 GTP501      0.0000 
@<TRIPOS>BOND
     1    1    2 ar   
     2    1    3 ar   
     3    1    4 ar   
     4    1    5 1    
     5    5    6 1    
     6    6    7 ar   
     7    6    8 ar   
     8    6    9 1    
     9    9   10 1    
    10   10   11 ar   
    11   10   12 ar   
    12   10   13 1    
    13   13   14 1    
    14   14   15 1    
    15   15   16 1    
    16   15   17 1    
    17   16   21 1    
    18   17   18 1    
    19   17   19 1    
    20   19   20 1    
    21   19   21 1    
    22   21   22 1    
    23   22   23 1    
    24   22   32 1    
    25   23   24 2    
    26   24   25 1    
    27   25   26 1    
    28   25   32 2    
    29   26   27 2    
    30   26   28 am   
    31   28   29 1    
    32   29   30 1    
    33   29   31 2    
    34   31   32 1    
@<TRIPOS>SUBSTRUCTURE
     1 GTP501      1 GROUP   
@<TRIPOS>SET
ATOM$ORANGE STATIC     ATOMS   COLORGROUP SYSTEM 
20 14 14 15 15 17 17 19 19 21 21 23 23 25 25 26 26 29 \
29 32 32 

