#    Name: 6bbn_2_GDP_CAVITY_N1_6
#    Modification time : Fri May 22 19:27:57 2020

@<TRIPOS>MOLECULE
6bbn_2_GDP_CAVITY_N1_6
   77     0     6     0     0
SMALL
NO_CHARGES


@<TRIPOS>ATOM
      1 OG         53.7400    9.6200    1.1100 O.3       1 SER1        0.0000 
      2 OG         57.1400    9.1300    4.3800 O.3       1 SER1        0.0000 
      3 OG         56.5400   10.4900    4.5300 O.3       1 SER1        0.0000 
      4 O          55.9500    7.4300   -0.1400 O.2       2 ALA2        0.0000 
      5 O          54.3400    8.2500    0.9700 O.2       2 ALA2        0.0000 
      6 N          56.8800    7.7200    1.0000 N.am      2 ALA2        0.0000 
      7 N          56.4700    5.8100    1.8200 N.am      2 ALA2        0.0000 
      8 O          53.6600    9.3700    3.2200 O.2       2 ALA2        0.0000 
      9 N          53.0600   10.7300    3.3600 N.am      2 ALA2        0.0000 
     10 N          58.2200    9.9200    1.3100 N.am      2 ALA2        0.0000 
     11 O          58.4200    6.6400    1.9900 O.2       2 ALA2        0.0000 
     12 O          57.8200    8.0100    2.1400 O.2       2 ALA2        0.0000 
     13 O          57.2200    9.3800    2.2800 O.2       2 ALA2        0.0000 
     14 O          55.0000   11.5700    3.5300 O.2       2 ALA2        0.0000 
     15 O          61.1800   11.3000    0.5200 O.2       2 ALA2        0.0000 
     16 O          60.1700   10.7600    1.4800 O.2       2 ALA2        0.0000 
     17 N          59.5700   12.1200    1.6300 N.am      2 ALA2        0.0000 
     18 N          58.9700   13.4900    1.7700 N.am      2 ALA2        0.0000 
     19 O          59.1600   10.2100    2.4500 O.2       2 ALA2        0.0000 
     20 N          58.5600   11.5800    2.5900 N.am      2 ALA2        0.0000 
     21 N          56.7600   15.6800    3.0200 N.am      2 ALA2        0.0000 
     22 O          58.7500    8.3000    3.2700 O.2       2 ALA2        0.0000 
     23 O          56.3500   13.7700    3.8400 O.2       2 ALA2        0.0000 
     24 O          55.9400   11.8600    4.6700 O.2       2 ALA2        0.0000 
     25 N          60.5000   12.4200    2.7600 N.am      2 ALA2        0.0000 
     26 N          59.9000   13.7800    2.9100 N.am      2 ALA2        0.0000 
     27 O          59.3000   15.1500    3.0500 O.2       2 ALA2        0.0000 
     28 O          57.2800   14.0600    4.9800 O.2       2 ALA2        0.0000 
     29 O          56.6800   15.4300    5.1200 O.2       2 ALA2        0.0000 
     30 O          60.2300   15.4400    4.1900 O.2       2 ALA2        0.0000 
     31 O          57.6100   15.7200    6.2600 O.2       2 ALA2        0.0000 
     32 N          60.5600   17.1000    5.4700 N.am      2 ALA2        0.0000 
     33 O          58.9500   17.9200    6.5800 O.2       2 ALA2        0.0000 
     34 NZ         54.8600    6.6300    2.9300 N.4       3 LYS4        0.0000 
     35 NZ         57.4100    6.1000    2.9600 N.4       3 LYS4        0.0000 
     36 NZ         56.8100    7.4700    3.1000 N.4       3 LYS4        0.0000 
     37 NZ         56.2100    8.8300    3.2400 N.4       3 LYS4        0.0000 
     38 NZ         55.6000   10.2000    3.3900 N.4       3 LYS4        0.0000 
     39 NZ         55.8000    6.9200    4.0700 N.4       3 LYS4        0.0000 
     40 NZ         55.2000    8.2900    4.2100 N.4       3 LYS4        0.0000 
     41 NZ         54.6000    9.6600    4.3500 N.4       3 LYS4        0.0000 
     42 NZ         53.9900   11.0200    4.5000 N.4       3 LYS4        0.0000 
     43 NZ         52.9800   10.4800    5.4600 N.4       3 LYS4        0.0000 
     44 NZ         57.7400    7.7600    4.2400 N.4       3 LYS4        0.0000 
     45 NZ         54.9300   11.3200    5.6300 N.4       3 LYS4        0.0000 
     46 NZ         55.8600   11.6100    6.7700 N.4       3 LYS4        0.0000 
     47 CZ         58.1500    9.6700    3.4200 C.ar      4 PHE5        0.0000 
     48 CZ         57.5500   11.0400    3.5600 C.ar      4 PHE5        0.0000 
     49 CZ         59.4900   11.8700    3.7300 C.ar      4 PHE5        0.0000 
     50 CZ         58.8900   13.2400    3.8700 C.ar      4 PHE5        0.0000 
     51 CZ         57.8800   12.6900    4.8400 C.ar      4 PHE5        0.0000 
     52 CZ         56.8700   12.1500    5.8100 C.ar      4 PHE5        0.0000 
     53 CZ         58.2100   14.3500    6.1200 C.ar      4 PHE5        0.0000 
     54 CZ         57.2000   13.8100    7.0900 C.ar      4 PHE5        0.0000 
     55 CZ         58.5400   16.0100    7.4000 C.ar      4 PHE5        0.0000 
     56 CA         54.9400    6.8900    0.8300 C.3       5 GLY6        0.0000 
     57 CA         52.7300    9.0800    2.0800 C.3       5 GLY6        0.0000 
     58 CA         56.2800    9.0900    1.1400 C.3       5 GLY6        0.0000 
     59 CA         55.6800   10.4500    1.2800 C.3       5 GLY6        0.0000 
     60 CA         55.8700    7.1800    1.9600 C.3       5 GLY6        0.0000 
     61 CA         54.6700    9.9100    2.2500 C.3       5 GLY6        0.0000 
     62 CA         54.0700   11.2800    2.3900 C.3       5 GLY6        0.0000 
     63 CA         54.2600    8.0000    3.0700 C.3       5 GLY6        0.0000 
     64 CA         56.6100   10.7500    2.4200 C.3       5 GLY6        0.0000 
     65 CA         58.3700   14.8600    1.9100 C.3       5 GLY6        0.0000 
     66 CA         57.9600   12.9500    2.7300 C.3       5 GLY6        0.0000 
     67 CA         57.3600   14.3200    2.8800 C.3       5 GLY6        0.0000 
     68 CA         56.9500   12.4000    3.7000 C.3       5 GLY6        0.0000 
     69 CA         58.2900   14.6100    4.0200 C.3       5 GLY6        0.0000 
     70 CA         57.6900   15.9700    4.1600 C.3       5 GLY6        0.0000 
     71 CA         59.6300   16.8100    4.3300 C.3       5 GLY6        0.0000 
     72 CA         59.2200   14.9000    5.1500 C.3       5 GLY6        0.0000 
     73 CA         58.6200   16.2600    5.3000 C.3       5 GLY6        0.0000 
     74 CA         58.0200   17.6300    5.4400 C.3       5 GLY6        0.0000 
     75 CA         57.0100   17.0900    6.4100 C.3       5 GLY6        0.0000 
     76 CA         59.5500   16.5600    6.4300 C.3       5 GLY6        0.0000 
     77 DU         55.2700    8.5400    2.1100 H         6 CUB7        0.0000 
@<TRIPOS>BOND
@<TRIPOS>SUBSTRUCTURE
     1 SER1        1 GROUP   
     2 ALA2        4 GROUP   
     3 LYS4       34 GROUP   
     4 PHE5       47 GROUP   
     5 GLY6       56 GROUP   
     6 CUB7       77 GROUP   
@<TRIPOS>SET

