#    Name: 6bbn_4_GDP
#    Modification time : Fri May 22 19:28:15 2020

@<TRIPOS>MOLECULE
6bbn_4_GDP
   28    30     1     0     1
SMALL
NO_CHARGES


@<TRIPOS>ATOM
      1 PB         -8.3770   -8.6670   57.8490 P.3       1 GDP501      0.0000 
      2 O1B        -7.4020   -8.9520   56.7340 O.co2     1 GDP501      0.0000 
      3 O2B        -8.0510   -7.3260   58.4640 O.co2     1 GDP501      0.0000 
      4 O3B        -9.7800   -8.6600   57.2870 O.co2     1 GDP501      0.0000 
      5 O3A        -8.3020   -9.8190   58.9740 O.3       1 GDP501      0.0000 
      6 PA         -7.4850   -9.6230   60.3460 P.3       1 GDP501      0.0000 
      7 O1A        -6.3060   -8.7020   60.1460 O.co2     1 GDP501      0.0000 
      8 O2A        -8.3990   -9.1300   61.4450 O.co2     1 GDP501      0.0000 
      9 O5'        -6.9740  -11.1160   60.6640 O.3       1 GDP501      0.0000 
     10 C5'        -6.6890  -12.0100   59.5880 C.3       1 GDP501      0.0000 
     11 C4'        -5.3970  -12.7660   59.8640 C.3       1 GDP501      0.0000 
     12 O4'        -4.3440  -11.8130   59.9980 O.3       1 GDP501      0.0000 
     13 C3'        -5.4700  -13.5580   61.1590 C.3       1 GDP501      0.0000 
     14 O3'        -5.2850  -14.9500   60.8970 O.3       1 GDP501      0.0000 
     15 C2'        -4.3350  -13.0550   62.0280 C.3       1 GDP501      0.0000 
     16 O2'        -3.4800  -14.1400   62.3970 O.3       1 GDP501      0.0000 
     17 C1'        -3.5730  -12.0560   61.1750 C.3       1 GDP501      0.0000 
     18 N9         -3.4130  -10.7770   61.9040 N.pl3     1 GDP501      0.0000 
     19 C8         -4.4000   -9.9080   62.1880 C.2       1 GDP501      0.0000 
     20 N7         -3.9230   -8.8290   62.8580 N.2       1 GDP501      0.0000 
     21 C5         -2.5960   -8.9990   63.0060 C.2       1 GDP501      0.0000 
     22 C6         -1.4780   -8.2390   63.6160 C.2       1 GDP501      0.0000 
     23 O6         -1.6700   -7.1370   64.1760 O.2       1 GDP501      0.0000 
     24 N1         -0.2510   -8.7690   63.5510 N.am      1 GDP501      0.0000 
     25 C2         -0.0060   -9.9530   62.9570 C.2       1 GDP501      0.0000 
     26 N2          1.2660  -10.4180   62.9350 N.pl3     1 GDP501      0.0000 
     27 N3         -0.9800  -10.7010   62.3780 N.2       1 GDP501      0.0000 
     28 C4         -2.2670  -10.2840   62.3730 C.2       1 GDP501      0.0000 
@<TRIPOS>BOND
     1    1    2 ar   
     2    1    3 ar   
     3    1    4 ar   
     4    1    5 1    
     5    5    6 1    
     6    6    7 ar   
     7    6    8 ar   
     8    6    9 1    
     9    9   10 1    
    10   10   11 1    
    11   11   12 1    
    12   11   13 1    
    13   12   17 1    
    14   13   14 1    
    15   13   15 1    
    16   15   16 1    
    17   15   17 1    
    18   17   18 1    
    19   18   19 1    
    20   18   28 1    
    21   19   20 2    
    22   20   21 1    
    23   21   22 1    
    24   21   28 2    
    25   22   23 2    
    26   22   24 am   
    27   24   25 1    
    28   25   26 1    
    29   25   27 2    
    30   27   28 1    
@<TRIPOS>SUBSTRUCTURE
     1 GDP501      1 GROUP   
@<TRIPOS>SET
ATOM$ORANGE STATIC     ATOMS   COLORGROUP SYSTEM 
20 10 10 11 11 13 13 15 15 17 17 19 19 21 21 22 22 25 \
25 28 28 

