#    Name: 6dew_3_64Z
#    Modification time : Fri May 22 19:27:52 2020

@<TRIPOS>MOLECULE
6dew_3_64Z
   29    28     1     0     0
SMALL
NO_CHARGES


@<TRIPOS>ATOM
      1 C1         28.0650   73.3050   13.0140           1 64Z302      0.0000 
      2 C2         28.1220   74.5910   12.7100           1 64Z302      0.0000 
      3 C3         28.2060   75.0440   11.2420           1 64Z302      0.0000 
      4 C4         27.4280   76.3410   11.1410           1 64Z302      0.0000 
      5 C5         26.2410   76.2630   10.1900           1 64Z302      0.0000 
      6 C6         25.8690   77.4050    9.6190           1 64Z302      0.0000 
      7 C7         24.6750   77.4130    8.6610           1 64Z302      0.0000 
      8 C8         25.4770   74.9500    9.9020           1 64Z302      0.0000 
      9 C9         28.0630   72.2150   11.9230           1 64Z302      0.0000 
     10 O          23.4950   77.1820    9.3720           1 64Z302      0.0000 
     11 C          27.9830   72.9010   14.4900           1 64Z302      0.0000 
     12 H1         28.1110   75.2270   13.3890           1 64Z302      0.0000 
     13 H2         29.1310   75.1890   10.9890           1 64Z302      0.0000 
     14 H3         27.8140   74.3730   10.6620           1 64Z302      0.0000 
     15 H4         27.0990   76.5720   12.0240           1 64Z302      0.0000 
     16 H5         28.0280   77.0360   10.8270           1 64Z302      0.0000 
     17 H6         26.3300   78.1920    9.8010           1 64Z302      0.0000 
     18 H7         24.7920   76.7170    7.9950           1 64Z302      0.0000 
     19 H8         24.6220   78.2760    8.2210           1 64Z302      0.0000 
     20 H9         24.5230   75.1100    9.9710           1 64Z302      0.0000 
     21 H10        25.6900   74.6420    9.0070           1 64Z302      0.0000 
     22 H11        25.7390   74.2750   10.5480           1 64Z302      0.0000 
     23 H12        28.8520   72.3110   11.3680           1 64Z302      0.0000 
     24 H13        28.0660   71.3390   12.3410           1 64Z302      0.0000 
     25 H14        27.2680   72.3080   11.3750           1 64Z302      0.0000 
     26 H15        22.9320   77.7940    9.1940           1 64Z302      0.0000 
     27 H16        28.4610   73.5490   15.0300           1 64Z302      0.0000 
     28 H17        28.3820   72.0250   14.6080           1 64Z302      0.0000 
     29 H18        27.0530   72.8720   14.7660           1 64Z302      0.0000 
@<TRIPOS>BOND
     1    1    2 du   
     2    1    9 du   
     3    1   11 du   
     4    2    3 du   
     5    2   12 1    
     6    3    4 du   
     7    3   13 1    
     8    3   14 1    
     9    4    5 du   
    10    4   15 1    
    11    4   16 1    
    12    5    6 du   
    13    5    8 du   
    14    6    7 du   
    15    6   17 1    
    16    7   10 du   
    17    7   18 1    
    18    7   19 1    
    19   10   26 1    
    20    8   20 1    
    21    8   21 1    
    22    8   22 1    
    23    9   23 1    
    24    9   24 1    
    25    9   25 1    
    26   11   27 1    
    27   11   28 1    
    28   11   29 1    
@<TRIPOS>SUBSTRUCTURE
     1 64Z302      1 GROUP   
@<TRIPOS>SET

