#    Name: 6dew_1_64Z
#    Modification time : Fri May 22 19:27:48 2020

@<TRIPOS>MOLECULE
6dew_1_64Z
   29    28     1     0     0
SMALL
NO_CHARGES


@<TRIPOS>ATOM
      1 C1         49.8120  114.9110   29.7420           1 64Z302      0.0000 
      2 C2         48.6990  115.0600   29.0460           1 64Z302      0.0000 
      3 C3         48.5800  116.1510   27.9860           1 64Z302      0.0000 
      4 C4         48.1470  117.4690   28.6150           1 64Z302      0.0000 
      5 C5         46.7570  117.8140   28.0970           1 64Z302      0.0000 
      6 C6         46.6380  118.5090   26.9880           1 64Z302      0.0000 
      7 C7         45.2660  118.8620   26.4140           1 64Z302      0.0000 
      8 C8         45.5200  117.3410   28.8490           1 64Z302      0.0000 
      9 C9         49.8970  113.8060   30.8030           1 64Z302      0.0000 
     10 O          45.4230  118.9310   25.0160           1 64Z302      0.0000 
     11 C          51.0070  115.8260   29.4950           1 64Z302      0.0000 
     12 H1         47.9790  114.4930   29.2040           1 64Z302      0.0000 
     13 H2         49.4400  116.2720   27.5550           1 64Z302      0.0000 
     14 H3         47.9220  115.8830   27.3250           1 64Z302      0.0000 
     15 H4         48.7710  118.1700   28.3710           1 64Z302      0.0000 
     16 H5         48.1230  117.3790   29.5810           1 64Z302      0.0000 
     17 H6         47.4040  118.7910   26.5430           1 64Z302      0.0000 
     18 H7         44.6190  118.1770   26.6450           1 64Z302      0.0000 
     19 H8         44.9680  119.7180   26.7600           1 64Z302      0.0000 
     20 H9         45.0130  116.7340   28.2870           1 64Z302      0.0000 
     21 H10        45.7900  116.8820   29.6600           1 64Z302      0.0000 
     22 H11        44.9690  118.1060   29.0780           1 64Z302      0.0000 
     23 H12        49.1680  113.9080   31.4350           1 64Z302      0.0000 
     24 H13        49.8320  112.9400   30.3720           1 64Z302      0.0000 
     25 H14        50.7430  113.8730   31.2710           1 64Z302      0.0000 
     26 H15        44.8110  119.4190   24.6860           1 64Z302      0.0000 
     27 H16        51.7380  115.5670   30.0770           1 64Z302      0.0000 
     28 H17        51.2880  115.7490   28.5690           1 64Z302      0.0000 
     29 H18        50.7550  116.7450   29.6800           1 64Z302      0.0000 
@<TRIPOS>BOND
     1    1    2 du   
     2    1    9 du   
     3    1   11 du   
     4    2    3 du   
     5    2   12 1    
     6    3    4 du   
     7    3   13 1    
     8    3   14 1    
     9    4    5 du   
    10    4   15 1    
    11    4   16 1    
    12    5    6 du   
    13    5    8 du   
    14    6    7 du   
    15    6   17 1    
    16    7   10 du   
    17    7   18 1    
    18    7   19 1    
    19   10   26 1    
    20    8   20 1    
    21    8   21 1    
    22    8   22 1    
    23    9   23 1    
    24    9   24 1    
    25    9   25 1    
    26   11   27 1    
    27   11   28 1    
    28   11   29 1    
@<TRIPOS>SUBSTRUCTURE
     1 64Z302      1 GROUP   
@<TRIPOS>SET

