#    Name: 6fgx_1_APC_CAVITY_N1_6
#    Modification time : Fri May 22 19:28:00 2020

@<TRIPOS>MOLECULE
6fgx_1_APC_CAVITY_N1_6
   51     0     6     0     0
SMALL
NO_CHARGES


@<TRIPOS>ATOM
      1 OG         47.4800   96.2100    5.1500 O.3       1 SER1        0.0000 
      2 OG         47.0400  100.0800   10.4000 O.3       1 SER1        0.0000 
      3 OG         47.9200  100.0900    9.1900 O.3       1 SER1        0.0000 
      4 OG         48.1600  102.1900    9.3700 O.3       1 SER1        0.0000 
      5 OG         48.8900  100.9900    9.8900 O.3       1 SER1        0.0000 
      6 OG         49.8600  101.8800   10.6000 O.3       1 SER1        0.0000 
      7 OG         50.5900  100.6800   11.1200 O.3       1 SER1        0.0000 
      8 O          45.4900   94.1000    7.3900 O.2       2 ALA2        0.0000 
      9 O          46.3700   94.1000    6.1800 O.2       2 ALA2        0.0000 
     10 O          47.2400   94.1100    4.9600 O.2       2 ALA2        0.0000 
     11 O          47.3400   95.0000    6.8800 O.2       2 ALA2        0.0000 
     12 N          48.7900  100.1000    7.9700 N.am      2 ALA2        0.0000 
     13 N          49.6700  100.1100    6.7500 N.am      2 ALA2        0.0000 
     14 OD1        44.7100   94.7300    1.2900 O.co2     3 ASP3        0.0000 
     15 OD1        45.4400   93.5300    1.8100 O.co2     3 ASP3        0.0000 
     16 OD1        44.0800   96.8200    2.7000 O.co2     3 ASP3        0.0000 
     17 OD1        44.9000   96.5100    5.1400 O.co2     3 ASP3        0.0000 
     18 OD1        45.0000   97.4000    7.0600 O.co2     3 ASP3        0.0000 
     19 OD1        46.4600   94.9900    8.1000 O.co2     3 ASP3        0.0000 
     20 OD1        45.1400   98.6100    5.3300 O.co2     3 ASP3        0.0000 
     21 OD1        45.8800   97.4100    5.8500 O.co2     3 ASP3        0.0000 
     22 OD1        46.7000   97.0900    8.2900 O.co2     3 ASP3        0.0000 
     23 OD1        47.5800   97.1000    7.0700 O.co2     3 ASP3        0.0000 
     24 OD1        48.4600   97.1100    5.8600 O.co2     3 ASP3        0.0000 
     25 OD1        49.1900   95.9100    6.3700 O.co2     3 ASP3        0.0000 
     26 OD1        47.6800   97.9900    9.0000 O.co2     3 ASP3        0.0000 
     27 OD1        48.5500   98.0000    7.7800 O.co2     3 ASP3        0.0000 
     28 OD1        49.4300   98.0100    6.5600 O.co2     3 ASP3        0.0000 
     29 OD1        48.6500   98.8900    9.7000 O.co2     3 ASP3        0.0000 
     30 OD1        49.5200   98.9000    8.4900 O.co2     3 ASP3        0.0000 
     31 OD1        50.4000   98.9000    7.2700 O.co2     3 ASP3        0.0000 
     32 OD1        49.6200   99.7800   10.4100 O.co2     3 ASP3        0.0000 
     33 OD1        50.5000   99.7900    9.1900 O.co2     3 ASP3        0.0000 
     34 CZ         46.2700   93.2200    4.2500 C.ar      4 PHE5        0.0000 
     35 CZ         46.7500   97.4100    4.6300 C.ar      4 PHE5        0.0000 
     36 CZ         45.9700   98.2900    7.7700 C.ar      4 PHE5        0.0000 
     37 CZ         47.7200   98.3100    5.3400 C.ar      4 PHE5        0.0000 
     38 CZ         46.9400   99.1900    8.4800 C.ar      4 PHE5        0.0000 
     39 CA         46.1200   99.5000    6.0400 C.3       5 GLY6        0.0000 
     40 CA         46.8500   98.3000    6.5500 C.3       5 GLY6        0.0000 
     41 CA         47.8200   99.2000    7.2600 C.3       5 GLY6        0.0000 
     42 CA         48.7000   99.2100    6.0400 C.3       5 GLY6        0.0000 
     43 CA         49.7600  100.9900    8.6800 C.3       5 GLY6        0.0000 
     44 DU         44.6600   94.4100    4.9500 H         6 CUB7        0.0000 
     45 DU         44.8100   95.6200    3.2200 H         6 CUB7        0.0000 
     46 DU         45.5400   94.4200    3.7300 H         6 CUB7        0.0000 
     47 DU         45.6400   95.3100    5.6600 H         6 CUB7        0.0000 
     48 DU         45.7800   96.5200    3.9200 H         6 CUB7        0.0000 
     49 DU         46.5100   95.3200    4.4400 H         6 CUB7        0.0000 
     50 DU         45.7300   96.1900    7.5800 H         6 CUB7        0.0000 
     51 DU         46.6100   96.2000    6.3700 H         6 CUB7        0.0000 
@<TRIPOS>BOND
@<TRIPOS>SUBSTRUCTURE
     1 SER1        1 GROUP   
     2 ALA2        8 GROUP   
     3 ASP3       14 GROUP   
     4 PHE5       34 GROUP   
     5 GLY6       39 GROUP   
     6 CUB7       44 GROUP   
@<TRIPOS>SET

