#    Name: 6fgx_1_APC_CAVITY_N1_4
#    Modification time : Fri May 22 19:28:00 2020

@<TRIPOS>MOLECULE
6fgx_1_APC_CAVITY_N1_4
   21     0     6     0     0
SMALL
NO_CHARGES


@<TRIPOS>ATOM
      1 OG         47.0400  100.0800   10.4000 O.3       1 SER1        0.0000 
      2 OG         47.9200  100.0900    9.1900 O.3       1 SER1        0.0000 
      3 O          45.4900   94.1000    7.3900 O.2       2 ALA2        0.0000 
      4 O          46.3700   94.1000    6.1800 O.2       2 ALA2        0.0000 
      5 O          47.3400   95.0000    6.8800 O.2       2 ALA2        0.0000 
      6 OD1        45.0000   97.4000    7.0600 O.co2     3 ASP3        0.0000 
      7 OD1        46.4600   94.9900    8.1000 O.co2     3 ASP3        0.0000 
      8 OD1        46.7000   97.0900    8.2900 O.co2     3 ASP3        0.0000 
      9 OD1        47.5800   97.1000    7.0700 O.co2     3 ASP3        0.0000 
     10 OD1        47.6800   97.9900    9.0000 O.co2     3 ASP3        0.0000 
     11 OD1        48.5500   98.0000    7.7800 O.co2     3 ASP3        0.0000 
     12 OD1        48.6500   98.8900    9.7000 O.co2     3 ASP3        0.0000 
     13 OD1        49.5200   98.9000    8.4900 O.co2     3 ASP3        0.0000 
     14 OD1        49.6200   99.7800   10.4100 O.co2     3 ASP3        0.0000 
     15 CZ         45.9700   98.2900    7.7700 C.ar      4 PHE5        0.0000 
     16 CZ         46.9400   99.1900    8.4800 C.ar      4 PHE5        0.0000 
     17 CA         47.8200   99.2000    7.2600 C.3       5 GLY6        0.0000 
     18 DU         44.6600   94.4100    4.9500 H         6 CUB7        0.0000 
     19 DU         45.6400   95.3100    5.6600 H         6 CUB7        0.0000 
     20 DU         45.7300   96.1900    7.5800 H         6 CUB7        0.0000 
     21 DU         46.6100   96.2000    6.3700 H         6 CUB7        0.0000 
@<TRIPOS>BOND
@<TRIPOS>SUBSTRUCTURE
     1 SER1        1 GROUP   
     2 ALA2        3 GROUP   
     3 ASP3        6 GROUP   
     4 PHE5       15 GROUP   
     5 GLY6       17 GROUP   
     6 CUB7       18 GROUP   
@<TRIPOS>SET

