#    Name: 6fgx_1_APC
#    Modification time : Fri May 22 19:27:59 2020

@<TRIPOS>MOLECULE
6fgx_1_APC
   31    33     1     0     0
SMALL
NO_CHARGES


@<TRIPOS>ATOM
      1 PG         41.6500   92.0480    7.0100 P.3       1 APC302      0.0000 
      2 O1G        41.5150   93.2290    6.0770 O.co2     1 APC302      0.0000 
      3 O2G        41.7100   90.7660    6.1990 O.co2     1 APC302      0.0000 
      4 O3G        40.4660   91.9970    7.9370 O.co2     1 APC302      0.0000 
      5 PB         43.2580   93.4090    9.0430 P.3       1 APC302      0.0000 
      6 O1B        44.4360   94.2930    8.6430 O.co2     1 APC302      0.0000 
      7 O2B        41.9960   94.2580    9.0850 O.co2     1 APC302      0.0000 
      8 O3B        43.0510   92.2040    7.9250 O.3       1 APC302      0.0000 
      9 PA         42.8650   93.6550   12.0310 P.3       1 APC302      0.0000 
     10 O1A        41.3630   93.7520   11.8500 O.co2     1 APC302      0.0000 
     11 O2A        43.1710   93.0410   13.3650 O.co2     1 APC302      0.0000 
     12 C3A        43.5790   92.6490   10.7230 C.3       1 APC302      0.0000 
     13 O5'        43.5410   95.2090   11.9620 O.3       1 APC302      0.0000 
     14 C5'        43.8270   95.8720   13.1740 C.3       1 APC302      0.0000 
     15 C4'        45.3640   96.1940   13.2290 C.3       1 APC302      0.0000 
     16 O4'        46.0500   95.0880   13.1010 O.3       1 APC302      0.0000 
     17 C3'        45.7630   97.0830   12.0410 C.3       1 APC302      0.0000 
     18 O3'        46.4230   98.1590   12.4840 O.3       1 APC302      0.0000 
     19 C2'        46.7050   96.1970   11.1810 C.3       1 APC302      0.0000 
     20 O2'        47.7410   97.0290   10.5340 O.3       1 APC302      0.0000 
     21 C1'        47.2400   95.3940   12.0400 C.3       1 APC302      0.0000 
     22 N9         47.6840   94.1700   11.3770 N.pl3     1 APC302      0.0000 
     23 C8         46.9380   93.4380   10.5230 C.2       1 APC302      0.0000 
     24 N7         47.6720   92.3980   10.1170 N.2       1 APC302      0.0000 
     25 C5         48.8690   92.4770   10.7080 C.ar      1 APC302      0.0000 
     26 C6         50.0000   91.6700   10.6440 C.ar      1 APC302      0.0000 
     27 N6         50.3810   90.4160    9.9270 N.pl3     1 APC302      0.0000 
     28 N1         51.0870   91.9900   11.3580 N.ar      1 APC302      0.0000 
     29 C2         51.0890   93.0840   12.1330 C.ar      1 APC302      0.0000 
     30 N3         49.9600   93.8910   12.1990 N.ar      1 APC302      0.0000 
     31 C4         48.8730   93.5790   11.4880 C.ar      1 APC302      0.0000 
@<TRIPOS>BOND
     1    1    2 ar   
     2    1    3 ar   
     3    1    4 ar   
     4    1    8 1    
     5    5    6 ar   
     6    5    7 ar   
     7    5    8 1    
     8    5   12 1    
     9    9   10 ar   
    10    9   11 ar   
    11    9   12 1    
    12    9   13 1    
    13   13   14 1    
    14   14   15 1    
    15   15   16 1    
    16   15   17 1    
    17   16   21 1    
    18   17   18 1    
    19   17   19 1    
    20   19   20 1    
    21   19   21 1    
    22   21   22 1    
    23   22   23 1    
    24   22   31 1    
    25   23   24 2    
    26   24   25 1    
    27   25   26 ar   
    28   25   31 ar   
    29   26   27 1    
    30   26   28 ar   
    31   28   29 ar   
    32   29   30 ar   
    33   30   31 ar   
@<TRIPOS>SUBSTRUCTURE
     1 APC302      1 GROUP   
@<TRIPOS>SET

