#    Name: 6guc_1_SU9
#    Modification time : Fri May 22 19:30:44 2020

@<TRIPOS>MOLECULE
6guc_1_SU9
   18    20     1     0     0
SMALL
NO_CHARGES


@<TRIPOS>ATOM
      1 N5'        -7.2760  -24.9170   25.2830 N.pl3     1 SU9301      0.0000 
      2 C4'        -6.5780  -25.9210   25.7950 C.2       1 SU9301      0.0000 
      3 N3'        -5.4150  -25.9640   25.1600 N.2       1 SU9301      0.0000 
      4 C2'        -5.3020  -24.8580   24.3610 C.2       1 SU9301      0.0000 
      5 C1'        -6.5170  -24.2220   24.3740 C.2       1 SU9301      0.0000 
      6 C6'        -6.8470  -23.0980   23.6280 C.2       1 SU9301      0.0000 
      7 C9         -8.1210  -22.5920   23.4260 C.2       1 SU9301      0.0000 
      8 C8         -9.4320  -22.8910   24.0900 C.2       1 SU9301      0.0000 
      9 O10        -9.6830  -23.7250   24.9790 O.2       1 SU9301      0.0000 
     10 N7        -10.3710  -22.1300   23.4580 N.am      1 SU9301      0.0000 
     11 C5         -9.7940  -21.2890   22.4980 C.ar      1 SU9301      0.0000 
     12 C6        -10.3970  -20.3680   21.6640 C.ar      1 SU9301      0.0000 
     13 C1         -9.5930  -19.7190   20.7280 C.ar      1 SU9301      0.0000 
     14 C2         -8.2260  -19.9560   20.6500 C.ar      1 SU9301      0.0000 
     15 O11        -7.5340  -19.2050   19.7310 O.3       1 SU9301      0.0000 
     16 C12        -6.1370  -19.4340   19.6050 C.3       1 SU9301      0.0000 
     17 C3         -7.6310  -20.9010   21.4830 C.ar      1 SU9301      0.0000 
     18 C4         -8.4210  -21.5610   22.4140 C.ar      1 SU9301      0.0000 
@<TRIPOS>BOND
     1    1    2 1    
     2    1    5 1    
     3    2    3 2    
     4    3    4 1    
     5    4    5 2    
     6    5    6 1    
     7    6    7 2    
     8    7    8 1    
     9    7   18 1    
    10    8    9 2    
    11    8   10 am   
    12   10   11 1    
    13   11   12 ar   
    14   11   18 ar   
    15   12   13 ar   
    16   13   14 ar   
    17   14   15 1    
    18   14   17 ar   
    19   15   16 1    
    20   17   18 ar   
@<TRIPOS>SUBSTRUCTURE
     1 SU9301      1 GROUP   
@<TRIPOS>SET

