#    Name: 6guc_2_SU9
#    Modification time : Fri May 22 19:30:48 2020

@<TRIPOS>MOLECULE
6guc_2_SU9
   18    20     1     0     0
SMALL
NO_CHARGES


@<TRIPOS>ATOM
      1 N5'       -33.5530   19.8040   29.1300 N.pl3     1 SU9301      0.0000 
      2 C4'       -33.2360   21.0800   29.3580 C.2       1 SU9301      0.0000 
      3 N3'       -33.7200   21.4120   30.5520 N.2       1 SU9301      0.0000 
      4 C2'       -34.3510   20.3110   31.0750 C.2       1 SU9301      0.0000 
      5 C1'       -33.9400   19.1990   30.3170 C.2       1 SU9301      0.0000 
      6 C6'       -33.8990   17.8920   30.7720 C.2       1 SU9301      0.0000 
      7 C9        -33.8090   16.7380   29.9970 C.2       1 SU9301      0.0000 
      8 C8        -33.3990   16.5930   28.5630 C.2       1 SU9301      0.0000 
      9 O10       -32.9860   17.4860   27.8100 O.2       1 SU9301      0.0000 
     10 N7        -33.5800   15.2840   28.2300 N.am      1 SU9301      0.0000 
     11 C5        -34.0400   14.5330   29.3150 C.ar      1 SU9301      0.0000 
     12 C6        -34.3140   13.1750   29.3740 C.ar      1 SU9301      0.0000 
     13 C1        -34.7910   12.6580   30.5770 C.ar      1 SU9301      0.0000 
     14 C2        -34.9750   13.4830   31.7140 C.ar      1 SU9301      0.0000 
     15 O11       -35.4280   12.7880   32.8190 O.3       1 SU9301      0.0000 
     16 C12       -35.5670   13.4520   34.0820 C.3       1 SU9301      0.0000 
     17 C3        -34.6600   14.8460   31.6480 C.ar      1 SU9301      0.0000 
     18 C4        -34.2040   15.3800   30.4300 C.ar      1 SU9301      0.0000 
@<TRIPOS>BOND
     1    1    2 1    
     2    1    5 1    
     3    2    3 2    
     4    3    4 1    
     5    4    5 2    
     6    5    6 1    
     7    6    7 2    
     8    7    8 1    
     9    7   18 1    
    10    8    9 2    
    11    8   10 am   
    12   10   11 1    
    13   11   12 ar   
    14   11   18 ar   
    15   12   13 ar   
    16   13   14 ar   
    17   14   15 1    
    18   14   17 ar   
    19   15   16 1    
    20   17   18 ar   
@<TRIPOS>SUBSTRUCTURE
     1 SU9301      1 GROUP   
@<TRIPOS>SET

