#    Name: 6m82_2_TLO
#    Modification time : Fri May 22 19:27:09 2020

@<TRIPOS>MOLECULE
6m82_2_TLO
   31    33     1     0     0
SMALL
NO_CHARGES


@<TRIPOS>ATOM
      1 N1        -14.6110  -19.3960    0.3050 N.am      1 TLO302      0.0000 
      2 C2        -14.6570  -20.7110    0.8180 C.2       1 TLO302      0.0000 
      3 O2        -15.7700  -21.2720    0.8430 O.2       1 TLO302      0.0000 
      4 N3        -13.5470  -21.3310    1.2680 N.am      1 TLO302      0.0000 
      5 C4        -12.3810  -20.6430    1.2710 C.2       1 TLO302      0.0000 
      6 O4        -11.3470  -21.2200    1.6890 O.2       1 TLO302      0.0000 
      7 C5        -12.3210  -19.3300    0.7930 C.2       1 TLO302      0.0000 
      8 C6        -13.4550  -18.6950    0.3000 C.2       1 TLO302      0.0000 
      9 PA        -16.1000  -13.6280   -3.0700 P.3       1 TLO302      0.0000 
     10 PB        -16.2280  -14.7250   -5.8480 P.3       1 TLO302      0.0000 
     11 CG        -18.5820  -13.8390   -6.5930 C.ar      1 TLO302      0.0000 
     12 CZ        -21.3000  -14.3550   -7.0420 C.ar      1 TLO302      0.0000 
     13 C1'       -15.8660  -18.8370   -0.2550 C.3       1 TLO302      0.0000 
     14 O1A       -17.1640  -12.5150   -3.0920 O.co2     1 TLO302      0.0000 
     15 O1B       -16.6710  -16.0500   -6.4190 O.co2     1 TLO302      0.0000 
     16 C2'       -16.4660  -17.7180    0.5280 C.3       1 TLO302      0.0000 
     17 O2A       -14.5720  -13.3250   -3.1290 O.co2     1 TLO302      0.0000 
     18 O2B       -14.7670  -14.3490   -6.1340 O.co2     1 TLO302      0.0000 
     19 C3'       -17.1580  -16.9170   -0.5470 C.3       1 TLO302      0.0000 
     20 O3'       -18.3780  -17.5900   -0.8500 O.3       1 TLO302      0.0000 
     21 O3A       -16.4310  -14.7330   -4.2240 O.3       1 TLO302      0.0000 
     22 O3B       -17.2440  -13.5700   -6.3740 O.3       1 TLO302      0.0000 
     23 C4'       -16.2380  -17.0230   -1.7470 C.3       1 TLO302      0.0000 
     24 O4'       -15.5010  -18.2300   -1.5260 O.3       1 TLO302      0.0000 
     25 C5'       -15.3310  -15.8010   -1.7930 C.3       1 TLO302      0.0000 
     26 O5'       -16.2510  -14.6720   -1.8410 O.3       1 TLO302      0.0000 
     27 C5M       -11.0000  -18.6140    0.7840 C.3       1 TLO302      0.0000 
     28 CD1       -19.2230  -13.3310   -7.7300 C.ar      1 TLO302      0.0000 
     29 CD2       -19.3160  -14.6040   -5.6820 C.ar      1 TLO302      0.0000 
     30 CE1       -20.5780  -13.5900   -7.9570 C.ar      1 TLO302      0.0000 
     31 CE2       -20.6670  -14.8650   -5.9150 C.ar      1 TLO302      0.0000 
@<TRIPOS>BOND
     1    1    2 1    
     2    1    8 1    
     3    1   13 1    
     4    2    3 2    
     5    2    4 1    
     6    4    5 1    
     7    5    6 2    
     8    5    7 1    
     9    7    8 2    
    10    7   27 1    
    11    9   14 ar   
    12    9   17 ar   
    13    9   21 1    
    14    9   26 1    
    15   10   15 ar   
    16   10   18 ar   
    17   10   21 1    
    18   10   22 1    
    19   11   22 1    
    20   11   28 ar   
    21   11   29 ar   
    22   12   30 ar   
    23   12   31 ar   
    24   13   16 1    
    25   13   24 1    
    26   16   19 1    
    27   19   20 1    
    28   19   23 1    
    29   23   24 1    
    30   23   25 1    
    31   25   26 1    
    32   28   30 ar   
    33   29   31 ar   
@<TRIPOS>SUBSTRUCTURE
     1 TLO302      1 GROUP   
@<TRIPOS>SET

