#    Name: 6m82_2_TLO_CAVITY_N1_4
#    Modification time : Fri May 22 19:27:11 2020

@<TRIPOS>MOLECULE
6m82_2_TLO_CAVITY_N1_4
   92     0     6     0     0
SMALL
NO_CHARGES


@<TRIPOS>ATOM
      1 OG        -22.0500  -17.0200   -8.6500 O.3       1 SER1        0.0000 
      2 OG        -21.1500  -13.8300   -8.1400 O.3       1 SER1        0.0000 
      3 OG        -19.6800  -13.3100   -9.5900 O.3       1 SER1        0.0000 
      4 OG        -17.5500  -16.7200   -0.8700 O.3       1 SER1        0.0000 
      5 OG        -17.5800  -17.6100    0.3400 O.3       1 SER1        0.0000 
      6 OG        -16.1400  -17.9800    0.1000 O.3       1 SER1        0.0000 
      7 OG        -13.3100  -19.6100    0.8300 O.3       1 SER1        0.0000 
      8 OG        -17.0500  -13.7900   -2.4200 O.3       1 SER1        0.0000 
      9 OG        -17.0800  -14.6800   -1.2200 O.3       1 SER1        0.0000 
     10 OG        -12.7800  -15.7900   -1.9300 O.3       1 SER1        0.0000 
     11 O         -16.5500  -18.2400   -1.9600 O.2       2 ALA2        0.0000 
     12 O         -16.5800  -19.1300   -0.7600 O.2       2 ALA2        0.0000 
     13 O         -14.6800  -17.4600   -1.3400 O.2       2 ALA2        0.0000 
     14 O         -14.7100  -18.3500   -0.1300 O.2       2 ALA2        0.0000 
     15 OD1       -20.7100  -12.6800   -7.2900 O.co2     3 ASP3        0.0000 
     16 OD1       -20.7400  -13.5700   -6.0800 O.co2     3 ASP3        0.0000 
     17 OD1       -19.2700  -13.0500   -7.5200 O.co2     3 ASP3        0.0000 
     18 OD1       -19.3000  -13.9400   -6.3200 O.co2     3 ASP3        0.0000 
     19 OD1       -17.8700  -14.3100   -6.5500 O.co2     3 ASP3        0.0000 
     20 OD1       -16.4600  -15.5700   -5.5800 O.co2     3 ASP3        0.0000 
     21 OD1       -16.4900  -16.4600   -4.3800 O.co2     3 ASP3        0.0000 
     22 OD1       -16.5200  -17.3500   -3.1700 O.co2     3 ASP3        0.0000 
     23 OD1       -17.4300  -13.1600   -5.7000 O.co2     3 ASP3        0.0000 
     24 OD1       -17.4600  -14.0500   -4.4900 O.co2     3 ASP3        0.0000 
     25 OD1       -16.0500  -15.3100   -3.5200 O.co2     3 ASP3        0.0000 
     26 OD1       -14.5900  -14.7900   -4.9600 O.co2     3 ASP3        0.0000 
     27 OD1       -14.6200  -15.6800   -3.7600 O.co2     3 ASP3        0.0000 
     28 OD1       -14.6500  -16.5700   -2.5500 O.co2     3 ASP3        0.0000 
     29 OD1       -13.1600  -15.1600   -5.2000 O.co2     3 ASP3        0.0000 
     30 OD1       -13.1900  -16.0500   -3.9900 O.co2     3 ASP3        0.0000 
     31 OD1       -17.0200  -12.9000   -3.6300 O.co2     3 ASP3        0.0000 
     32 OD1       -15.5900  -13.2700   -3.8700 O.co2     3 ASP3        0.0000 
     33 OD1       -14.1500  -13.6400   -4.1100 O.co2     3 ASP3        0.0000 
     34 CZ        -20.5600  -15.6100  -11.3000 C.ar      4 PHE5        0.0000 
     35 CZ        -21.5800  -14.9800   -9.0000 C.ar      4 PHE5        0.0000 
     36 CZ        -21.6100  -15.8700   -7.7900 C.ar      4 PHE5        0.0000 
     37 CZ        -20.1200  -14.4600  -10.4500 C.ar      4 PHE5        0.0000 
     38 CZ        -20.2400  -18.0200   -5.6200 C.ar      4 PHE5        0.0000 
     39 CZ        -21.1800  -14.7200   -6.9400 C.ar      4 PHE5        0.0000 
     40 CZ        -19.8000  -16.8700   -4.7600 C.ar      4 PHE5        0.0000 
     41 CZ        -18.2800  -14.5700   -8.6200 C.ar      4 PHE5        0.0000 
     42 CZ        -18.3400  -16.3500   -6.2000 C.ar      4 PHE5        0.0000 
     43 CZ        -18.3700  -17.2400   -5.0000 C.ar      4 PHE5        0.0000 
     44 CZ        -17.8400  -13.4200   -7.7600 C.ar      4 PHE5        0.0000 
     45 CZ        -17.9600  -16.9800   -2.9300 C.ar      4 PHE5        0.0000 
     46 CZ        -17.9900  -17.8700   -1.7200 C.ar      4 PHE5        0.0000 
     47 CZ        -18.0200  -18.7600   -0.5200 C.ar      4 PHE5        0.0000 
     48 CZ        -16.4300  -14.6800   -6.7900 C.ar      4 PHE5        0.0000 
     49 CZ        -13.2500  -17.8300   -1.5800 C.ar      4 PHE5        0.0000 
     50 CZ        -13.2800  -18.7200   -0.3700 C.ar      4 PHE5        0.0000 
     51 CZ        -11.8400  -19.0900   -0.6100 C.ar      4 PHE5        0.0000 
     52 CZ        -11.8700  -19.9800    0.6000 C.ar      4 PHE5        0.0000 
     53 CZ        -15.6400  -15.0500   -1.4500 C.ar      4 PHE5        0.0000 
     54 CZ        -15.6700  -15.9400   -0.2500 C.ar      4 PHE5        0.0000 
     55 CZ        -15.7000  -16.8300    0.9600 C.ar      4 PHE5        0.0000 
     56 CZ        -14.2100  -15.4200   -1.6900 C.ar      4 PHE5        0.0000 
     57 CZ        -14.2400  -16.3100   -0.4800 C.ar      4 PHE5        0.0000 
     58 CZ        -14.2700  -17.2000    0.7200 C.ar      4 PHE5        0.0000 
     59 CZ        -12.8100  -16.6800   -0.7200 C.ar      4 PHE5        0.0000 
     60 CZ        -12.8400  -17.5700    0.4900 C.ar      4 PHE5        0.0000 
     61 CZ        -12.8700  -18.4600    1.6900 C.ar      4 PHE5        0.0000 
     62 CA        -22.0800  -17.9100   -7.4400 C.3       5 GLY6        0.0000 
     63 CA        -20.6500  -18.2800   -7.6800 C.3       5 GLY6        0.0000 
     64 CA        -21.6400  -16.7600   -6.5900 C.3       5 GLY6        0.0000 
     65 CA        -21.6700  -17.6500   -5.3800 C.3       5 GLY6        0.0000 
     66 CA        -21.2100  -15.6100   -5.7300 C.3       5 GLY6        0.0000 
     67 CA        -21.2300  -16.5000   -4.5200 C.3       5 GLY6        0.0000 
     68 CA        -19.7700  -15.9800   -5.9700 C.3       5 GLY6        0.0000 
     69 CA        -19.3300  -14.8300   -5.1100 C.3       5 GLY6        0.0000 
     70 CA        -17.9300  -16.0900   -4.1400 C.3       5 GLY6        0.0000 
     71 CA        -17.4900  -14.9400   -3.2800 C.3       5 GLY6        0.0000 
     72 CA        -17.5200  -15.8300   -2.0700 C.3       5 GLY6        0.0000 
     73 CA        -15.9900  -13.5300   -5.9300 C.3       5 GLY6        0.0000 
     74 CA        -14.5600  -13.9000   -6.1700 C.3       5 GLY6        0.0000 
     75 CA        -13.1300  -14.2700   -6.4100 C.3       5 GLY6        0.0000 
     76 CA        -12.6900  -13.1200   -5.5500 C.3       5 GLY6        0.0000 
     77 CA        -12.7200  -14.0100   -4.3400 C.3       5 GLY6        0.0000 
     78 CA        -11.2500  -13.4900   -5.7900 C.3       5 GLY6        0.0000 
     79 CA        -15.1800  -13.0100   -1.8000 C.3       5 GLY6        0.0000 
     80 CA        -13.7400  -13.3800   -2.0400 C.3       5 GLY6        0.0000 
     81 DU        -20.1500  -15.3500   -9.2400 H         6 CUB7        0.0000 
     82 DU        -20.2100  -17.1300   -6.8200 H         6 CUB7        0.0000 
     83 DU        -19.7100  -14.2000   -8.3800 H         6 CUB7        0.0000 
     84 DU        -19.7400  -15.0900   -7.1700 H         6 CUB7        0.0000 
     85 DU        -18.3100  -15.4600   -7.4100 H         6 CUB7        0.0000 
     86 DU        -17.9000  -15.2000   -5.3500 H         6 CUB7        0.0000 
     87 DU        -16.0200  -14.4200   -4.7300 H         6 CUB7        0.0000 
     88 DU        -16.0800  -16.2000   -2.3100 H         6 CUB7        0.0000 
     89 DU        -16.1100  -17.0900   -1.1000 H         6 CUB7        0.0000 
     90 DU        -15.6200  -14.1600   -2.6600 H         6 CUB7        0.0000 
     91 DU        -14.1800  -14.5300   -2.9000 H         6 CUB7        0.0000 
     92 DU        -12.7500  -14.9000   -3.1400 H         6 CUB7        0.0000 
@<TRIPOS>BOND
@<TRIPOS>SUBSTRUCTURE
     1 SER1        1 GROUP   
     2 ALA2       11 GROUP   
     3 ASP3       15 GROUP   
     4 PHE5       34 GROUP   
     5 GLY6       62 GROUP   
     6 CUB7       81 GROUP   
@<TRIPOS>SET

