#    Name: 6jww_1_XTZ
#    Modification time : Fri May 22 19:34:45 2020

@<TRIPOS>MOLECULE
6jww_1_XTZ
   29    32     1     0     0
SMALL
NO_CHARGES


@<TRIPOS>ATOM
      1 O3          2.7670  100.9480   36.2130 O.2       1 XTZ801      0.0000 
      2 C16         1.7110  101.5270   35.8970 C.2       1 XTZ801      0.0000 
      3 N2          0.5970  101.4290   36.6290 N.am      1 XTZ801      0.0000 
      4 C3          1.6500  102.3530   34.6770 C.2       1 XTZ801      0.0000 
      5 N4          2.7190  102.5050   33.8820 N.2       1 XTZ801      0.0000 
      6 C4          2.6500  103.2780   32.7770 C.2       1 XTZ801      0.0000 
      7 C15         1.3790  103.9920   32.3540 C.3       1 XTZ801      0.0000 
      8 N8          0.2480  103.7680   33.2500 N.pl3     1 XTZ801      0.0000 
      9 C2          0.3620  103.0120   34.3460 C.2       1 XTZ801      0.0000 
     10 N3         -0.6810  102.8190   35.1790 N.2       1 XTZ801      0.0000 
     11 C1         -0.5530  102.0480   36.2870 C.2       1 XTZ801      0.0000 
     12 N1         -1.6320  101.8930   37.0800 N.pl3     1 XTZ801      0.0000 
     13 C5          3.8870  103.3780   31.9310 C.3       1 XTZ801      0.0000 
     14 N5          4.7410  104.5060   32.2390 N.pl3     1 XTZ801      0.0000 
     15 C6          6.0900  104.3560   32.2340 C.ar      1 XTZ801      0.0000 
     16 C14         6.7510  103.8330   31.1090 C.ar      1 XTZ801      0.0000 
     17 C13         8.1320  103.6770   31.1260 C.ar      1 XTZ801      0.0000 
     18 C9          8.8430  104.0520   32.2640 C.ar      1 XTZ801      0.0000 
     19 C8          8.1900  104.5770   33.3830 C.ar      1 XTZ801      0.0000 
     20 C7          6.8110  104.7340   33.3690 C.ar      1 XTZ801      0.0000 
     21 S1         10.4260  103.8820   32.3150 S.o2      1 XTZ801      0.0000 
     22 O1         11.0000  103.7590   30.9960 O.2       1 XTZ801      0.0000 
     23 O2         10.7510  102.7180   33.0750 O.2       1 XTZ801      0.0000 
     24 N6         11.0190  105.1510   33.1160 N.pl3     1 XTZ801      0.0000 
     25 C10        12.3030  105.5880   33.0360 C.2       1 XTZ801      0.0000 
     26 S2         12.9500  106.4860   31.7080 S.3       1 XTZ801      0.0000 
     27 C12        14.5180  106.6150   32.4370 C.2       1 XTZ801      0.0000 
     28 C11        14.4290  105.9550   33.6700 C.2       1 XTZ801      0.0000 
     29 N7         13.2180  105.3970   34.0160 N.2       1 XTZ801      0.0000 
@<TRIPOS>BOND
     1    1    2 2    
     2    2    3 am   
     3    2    4 1    
     4    3   11 1    
     5    4    5 1    
     6    4    9 2    
     7    5    6 2    
     8    6    7 1    
     9    6   13 1    
    10    7    8 1    
    11    8    9 1    
    12    9   10 1    
    13   10   11 2    
    14   11   12 1    
    15   13   14 1    
    16   14   15 1    
    17   15   16 ar   
    18   15   20 ar   
    19   16   17 ar   
    20   17   18 ar   
    21   18   19 ar   
    22   18   21 1    
    23   19   20 ar   
    24   21   22 2    
    25   21   23 2    
    26   21   24 1    
    27   24   25 1    
    28   25   26 1    
    29   25   29 2    
    30   26   27 1    
    31   27   28 2    
    32   28   29 1    
@<TRIPOS>SUBSTRUCTURE
     1 XTZ801      1 GROUP   
@<TRIPOS>SET

