#    Name: 6jww_3_XTZ
#    Modification time : Fri May 22 19:34:51 2020

@<TRIPOS>MOLECULE
6jww_3_XTZ
   29    32     1     0     0
SMALL
NO_CHARGES


@<TRIPOS>ATOM
      1 O3         14.7200   65.9650   26.9550 O.2       1 XTZ801      0.0000 
      2 C16        15.8480   65.6860   26.4970 C.2       1 XTZ801      0.0000 
      3 N2         16.9080   65.4080   27.2880 N.am      1 XTZ801      0.0000 
      4 C3         16.0370   65.6510   25.0290 C.2       1 XTZ801      0.0000 
      5 N4         15.0420   65.9030   24.1660 N.2       1 XTZ801      0.0000 
      6 C4         15.2510   65.8470   22.8390 C.2       1 XTZ801      0.0000 
      7 C15        16.5880   65.5140   22.2270 C.3       1 XTZ801      0.0000 
      8 N8         17.6240   65.2610   23.2280 N.pl3     1 XTZ801      0.0000 
      9 C2         17.3880   65.3140   24.5370 C.2       1 XTZ801      0.0000 
     10 N3         18.3640   65.0650   25.4440 N.2       1 XTZ801      0.0000 
     11 C1         18.1330   65.1100   26.7860 C.2       1 XTZ801      0.0000 
     12 N1         19.1730   64.8480   27.6190 N.pl3     1 XTZ801      0.0000 
     13 C5         14.1050   66.1410   21.9240 C.3       1 XTZ801      0.0000 
     14 N5         13.1350   65.0770   22.0820 N.pl3     1 XTZ801      0.0000 
     15 C6         11.8080   65.2680   21.8730 C.ar      1 XTZ801      0.0000 
     16 C14        11.3480   66.2230   20.9490 C.ar      1 XTZ801      0.0000 
     17 C13         9.9890   66.4020   20.7480 C.ar      1 XTZ801      0.0000 
     18 C9          9.1010   65.6210   21.4790 C.ar      1 XTZ801      0.0000 
     19 C8          9.5440   64.6640   22.3960 C.ar      1 XTZ801      0.0000 
     20 C7         10.9050   64.4840   22.5940 C.ar      1 XTZ801      0.0000 
     21 S1          7.5460   65.8340   21.2530 S.o2      1 XTZ801      0.0000 
     22 O1          7.2000   67.2050   21.4660 O.2       1 XTZ801      0.0000 
     23 O2          6.7770   65.0440   22.1770 O.2       1 XTZ801      0.0000 
     24 N6          7.2340   65.3730   19.7550 N.pl3     1 XTZ801      0.0000 
     25 C10         7.2670   64.0590   19.4410 C.2       1 XTZ801      0.0000 
     26 S2          6.1380   62.9060   20.0370 S.3       1 XTZ801      0.0000 
     27 C12         6.8750   61.5940   19.1690 C.2       1 XTZ801      0.0000 
     28 C11         7.9660   62.1440   18.4900 C.2       1 XTZ801      0.0000 
     29 N7          8.1810   63.4970   18.6390 N.2       1 XTZ801      0.0000 
@<TRIPOS>BOND
     1    1    2 2    
     2    2    3 am   
     3    2    4 1    
     4    3   11 1    
     5    4    5 1    
     6    4    9 2    
     7    5    6 2    
     8    6    7 1    
     9    6   13 1    
    10    7    8 1    
    11    8    9 1    
    12    9   10 1    
    13   10   11 2    
    14   11   12 1    
    15   13   14 1    
    16   14   15 1    
    17   15   16 ar   
    18   15   20 ar   
    19   16   17 ar   
    20   17   18 ar   
    21   18   19 ar   
    22   18   21 1    
    23   19   20 ar   
    24   21   22 2    
    25   21   23 2    
    26   21   24 1    
    27   24   25 1    
    28   25   26 1    
    29   25   29 2    
    30   26   27 1    
    31   27   28 2    
    32   28   29 1    
@<TRIPOS>SUBSTRUCTURE
     1 XTZ801      1 GROUP   
@<TRIPOS>SET

