#    Name: 6jww_1_XTZ_CAVITY_N1_6
#    Modification time : Fri May 22 19:34:46 2020

@<TRIPOS>MOLECULE
6jww_1_XTZ_CAVITY_N1_6
   43     0     6     0     0
SMALL
NO_CHARGES


@<TRIPOS>ATOM
      1 OG          4.4900  102.5000   27.9400 O.3       1 SER1        0.0000 
      2 OG          4.6400  101.5100   29.0700 O.3       1 SER1        0.0000 
      3 O           5.1900  102.6000   25.9400 O.2       2 ALA2        0.0000 
      4 N           2.5700  109.3000   32.1300 N.am      2 ALA2        0.0000 
      5 OD1         0.3300  102.3300   34.3500 O.co2     3 ASP3        0.0000 
      6 OD1         0.4800  101.3500   35.4800 O.co2     3 ASP3        0.0000 
      7 OD1         2.2500  103.1600   32.8200 O.co2     3 ASP3        0.0000 
      8 OD1         2.4000  102.1800   33.9400 O.co2     3 ASP3        0.0000 
      9 OD1         2.9500  103.2700   30.8200 O.co2     3 ASP3        0.0000 
     10 OD1         3.1000  102.2900   31.9400 O.co2     3 ASP3        0.0000 
     11 OD1         3.8000  102.3900   29.9400 O.co2     3 ASP3        0.0000 
     12 NZ         -0.6700  104.1900   34.1000 N.4       4 LYS4        0.0000 
     13 NZ          0.1800  103.3100   33.2300 N.4       4 LYS4        0.0000 
     14 NZ         -0.7400  108.7300   32.0700 N.4       4 LYS4        0.0000 
     15 NZ         -0.5900  107.7500   33.2000 N.4       4 LYS4        0.0000 
     16 CZ          0.2600  106.8700   32.3200 C.ar      5 PHE5        0.0000 
     17 CZ          1.2600  105.0200   32.5700 C.ar      5 PHE5        0.0000 
     18 CZ          1.4100  104.0400   33.7000 C.ar      5 PHE5        0.0000 
     19 CZ          1.5600  103.0600   34.8200 C.ar      5 PHE5        0.0000 
     20 CZ          2.1000  104.1400   31.6900 C.ar      5 PHE5        0.0000 
     21 CZ          3.6500  103.3700   28.8200 C.ar      5 PHE5        0.0000 
     22 CZ          4.3400  103.4800   26.8200 C.ar      5 PHE5        0.0000 
     23 CZ          1.3400  108.5800   31.6600 C.ar      5 PHE5        0.0000 
     24 CZ          1.4900  107.6000   32.7900 C.ar      5 PHE5        0.0000 
     25 CZ          1.6400  106.6200   33.9100 C.ar      5 PHE5        0.0000 
     26 CZ          2.4900  105.7400   33.0400 C.ar      5 PHE5        0.0000 
     27 CZ          3.3300  104.8600   32.1600 C.ar      5 PHE5        0.0000 
     28 CZ          3.4800  103.8800   33.2900 C.ar      5 PHE5        0.0000 
     29 CZ          5.4200  105.1800   26.1600 C.ar      5 PHE5        0.0000 
     30 CZ          5.5700  104.2000   27.2800 C.ar      5 PHE5        0.0000 
     31 CZ          2.7200  108.3200   33.2500 C.ar      5 PHE5        0.0000 
     32 CZ          4.5600  105.5900   32.6300 C.ar      5 PHE5        0.0000 
     33 CA         -0.5200  103.2100   35.2300 C.3       6 GLY6        0.0000 
     34 CA          0.4100  105.8900   33.4500 C.3       6 GLY6        0.0000 
     35 CA          0.5600  104.9100   34.5700 C.3       6 GLY6        0.0000 
     36 CA          0.7100  103.9300   35.7000 C.3       6 GLY6        0.0000 
     37 CA          0.4900  109.4500   32.5400 C.3       6 GLY6        0.0000 
     38 CA          4.3300  103.0100   32.4100 C.3       6 GLY6        0.0000 
     39 CA          4.8800  104.0900   29.2800 C.3       6 GLY6        0.0000 
     40 CA          5.0300  103.1100   30.4100 C.3       6 GLY6        0.0000 
     41 CA          5.1700  102.1300   31.5300 C.3       6 GLY6        0.0000 
     42 CA          3.5700  107.4400   32.3800 C.3       6 GLY6        0.0000 
     43 CA          3.8000  110.0200   32.5900 C.3       6 GLY6        0.0000 
@<TRIPOS>BOND
@<TRIPOS>SUBSTRUCTURE
     1 SER1        1 GROUP   
     2 ALA2        3 GROUP   
     3 ASP3        5 GROUP   
     4 LYS4       12 GROUP   
     5 PHE5       16 GROUP   
     6 GLY6       33 GROUP   
@<TRIPOS>SET

