#    Name: 5yx2_1_SAH
#    Modification time : Fri May 22 19:37:26 2020

@<TRIPOS>MOLECULE
5yx2_1_SAH
   26    28     1     0     0
SMALL
NO_CHARGES


@<TRIPOS>ATOM
      1 N          64.9130   29.4920  -23.7510 N.4       1 SAH1005     0.0000 
      2 CA         64.1290   28.8540  -22.6990 C.3       1 SAH1005     0.0000 
      3 CB         62.6490   29.2250  -22.8120 C.3       1 SAH1005     0.0000 
      4 CG         62.3280   30.3620  -23.7800 C.3       1 SAH1005     0.0000 
      5 SD         60.5580   30.4470  -24.1650 S.3       1 SAH1005     0.0000 
      6 C          64.3390   27.3400  -22.6580 C.2       1 SAH1005     0.0000 
      7 O          65.1960   26.7980  -23.3560 O.co2     1 SAH1005     0.0000 
      8 OXT        63.6690   26.6220  -21.9140 O.co2     1 SAH1005     0.0000 
      9 C5'        60.3680   32.0700  -23.3740 C.3       1 SAH1005     0.0000 
     10 C4'        60.1330   31.9960  -21.8650 C.3       1 SAH1005     0.0000 
     11 O4'        59.9530   33.2900  -21.3260 O.3       1 SAH1005     0.0000 
     12 C3'        58.8980   31.2010  -21.4740 C.3       1 SAH1005     0.0000 
     13 O3'        59.3170   30.0970  -20.7050 O.3       1 SAH1005     0.0000 
     14 C2'        58.0650   32.1430  -20.6240 C.3       1 SAH1005     0.0000 
     15 O2'        57.5450   31.4970  -19.4860 O.3       1 SAH1005     0.0000 
     16 C1'        59.0610   33.2200  -20.2330 C.3       1 SAH1005     0.0000 
     17 N9         58.4460   34.5390  -19.9920 N.pl3     1 SAH1005     0.0000 
     18 C8         57.3120   35.0430  -20.5700 C.2       1 SAH1005     0.0000 
     19 N7         57.1020   36.2880  -20.0820 N.2       1 SAH1005     0.0000 
     20 C5         58.0840   36.5870  -19.2060 C.ar      1 SAH1005     0.0000 
     21 C6         58.3470   37.7140  -18.4340 C.ar      1 SAH1005     0.0000 
     22 N6         57.5410   38.7700  -18.4830 N.pl3     1 SAH1005     0.0000 
     23 N1         59.4520   37.7330  -17.6100 N.ar      1 SAH1005     0.0000 
     24 C2         60.2900   36.6390  -17.5570 C.ar      1 SAH1005     0.0000 
     25 N3         60.0210   35.5240  -18.3270 N.ar      1 SAH1005     0.0000 
     26 C4         58.9360   35.4960  -19.1380 C.ar      1 SAH1005     0.0000 
@<TRIPOS>BOND
     1    1    2 1    
     2    2    3 1    
     3    2    6 1    
     4    3    4 1    
     5    4    5 1    
     6    5    9 1    
     7    6    7 ar   
     8    6    8 ar   
     9    9   10 1    
    10   10   11 1    
    11   10   12 1    
    12   11   16 1    
    13   12   13 1    
    14   12   14 1    
    15   14   15 1    
    16   14   16 1    
    17   16   17 1    
    18   17   18 1    
    19   17   26 1    
    20   18   19 2    
    21   19   20 1    
    22   20   21 ar   
    23   20   26 ar   
    24   21   22 1    
    25   21   23 ar   
    26   23   24 ar   
    27   24   25 ar   
    28   25   26 ar   
@<TRIPOS>SUBSTRUCTURE
     1 SAH1005     1 GROUP   
@<TRIPOS>SET

