#    Name: 5yx2_2_SAH
#    Modification time : Fri May 22 19:37:30 2020

@<TRIPOS>MOLECULE
5yx2_2_SAH
   26    28     1     0     0
SMALL
NO_CHARGES


@<TRIPOS>ATOM
      1 N          49.0000   -7.1150   -9.2050 N.4       1 SAH1002     0.0000 
      2 CA         49.1290   -6.2180  -10.3500 C.3       1 SAH1002     0.0000 
      3 CB         47.7980   -5.5330  -10.6770 C.3       1 SAH1002     0.0000 
      4 CG         46.5460   -6.2380  -10.1520 C.3       1 SAH1002     0.0000 
      5 SD         45.0350   -5.2580  -10.3730 S.3       1 SAH1002     0.0000 
      6 C          50.2780   -5.2200  -10.1710 C.2       1 SAH1002     0.0000 
      7 O          50.3040   -4.1530  -10.7830 O.co2     1 SAH1002     0.0000 
      8 OXT        51.2170   -5.4610   -9.4130 O.co2     1 SAH1002     0.0000 
      9 C5'        44.1990   -6.5390  -11.3430 C.3       1 SAH1002     0.0000 
     10 C4'        44.5430   -6.5190  -12.8300 C.3       1 SAH1002     0.0000 
     11 O4'        43.8050   -7.5110  -13.5180 O.3       1 SAH1002     0.0000 
     12 C3'        44.2310   -5.2050  -13.5300 C.3       1 SAH1002     0.0000 
     13 O3'        45.4340   -4.7180  -14.0740 O.3       1 SAH1002     0.0000 
     14 C2'        43.2650   -5.5650  -14.6480 C.3       1 SAH1002     0.0000 
     15 O2'        43.5160   -4.8650  -15.8460 O.3       1 SAH1002     0.0000 
     16 C1'        43.5200   -7.0480  -14.8220 C.3       1 SAH1002     0.0000 
     17 N9         42.3720   -7.7660  -15.3920 N.pl3     1 SAH1002     0.0000 
     18 C8         41.0450   -7.4730  -15.2350 C.2       1 SAH1002     0.0000 
     19 N7         40.3320   -8.3920  -15.9260 N.2       1 SAH1002     0.0000 
     20 C5         41.1840   -9.2630  -16.5130 C.ar      1 SAH1002     0.0000 
     21 C6         40.9890  -10.3760  -17.3190 C.ar      1 SAH1002     0.0000 
     22 N6         39.7610  -10.7630  -17.6490 N.pl3     1 SAH1002     0.0000 
     23 N1         42.0800  -11.0830  -17.7820 N.ar      1 SAH1002     0.0000 
     24 C2         43.3570  -10.6850  -17.4420 C.ar      1 SAH1002     0.0000 
     25 N3         43.5410   -9.5770  -16.6400 N.ar      1 SAH1002     0.0000 
     26 C4         42.4720   -8.8780  -16.1850 C.ar      1 SAH1002     0.0000 
@<TRIPOS>BOND
     1    1    2 1    
     2    2    3 1    
     3    2    6 1    
     4    3    4 1    
     5    4    5 1    
     6    5    9 1    
     7    6    7 ar   
     8    6    8 ar   
     9    9   10 1    
    10   10   11 1    
    11   10   12 1    
    12   11   16 1    
    13   12   13 1    
    14   12   14 1    
    15   14   15 1    
    16   14   16 1    
    17   16   17 1    
    18   17   18 1    
    19   17   26 1    
    20   18   19 2    
    21   19   20 1    
    22   20   21 ar   
    23   20   26 ar   
    24   21   22 1    
    25   21   23 ar   
    26   23   24 ar   
    27   24   25 ar   
    28   25   26 ar   
@<TRIPOS>SUBSTRUCTURE
     1 SAH1002     1 GROUP   
@<TRIPOS>SET

