#    Name: 6brr_2_SAH
#    Modification time : Fri May 22 19:33:01 2020

@<TRIPOS>MOLECULE
6brr_2_SAH
   26    28     1     0     0
SMALL
NO_CHARGES


@<TRIPOS>ATOM
      1 N         -30.2530  -38.9920   27.3740 N.4       1 SAH1001     0.0000 
      2 CA        -29.8410  -39.3920   26.0290 C.3       1 SAH1001     0.0000 
      3 CB        -28.6560  -38.5650   25.5210 C.3       1 SAH1001     0.0000 
      4 CG        -28.5910  -37.1280   26.0500 C.3       1 SAH1001     0.0000 
      5 SD        -26.9460  -36.3870   25.8970 S.3       1 SAH1001     0.0000 
      6 C         -29.5810  -40.8950   25.9200 C.2       1 SAH1001     0.0000 
      7 O         -28.7440  -41.3360   25.1340 O.co2     1 SAH1001     0.0000 
      8 OXT       -30.2090  -41.7060   26.6090 O.co2     1 SAH1001     0.0000 
      9 C5'       -27.5870  -35.0080   24.9190 C.3       1 SAH1001     0.0000 
     10 C4'       -27.8550  -35.3570   23.4590 C.3       1 SAH1001     0.0000 
     11 O4'       -28.2960  -34.1960   22.7930 O.3       1 SAH1001     0.0000 
     12 C3'       -26.5880  -35.7990   22.7330 C.3       1 SAH1001     0.0000 
     13 O3'       -26.7310  -37.1140   22.2550 O.3       1 SAH1001     0.0000 
     14 C2'       -26.4370  -34.8700   21.5420 C.3       1 SAH1001     0.0000 
     15 O2'       -26.1980  -35.6040   20.3620 O.3       1 SAH1001     0.0000 
     16 C1'       -27.7960  -34.1990   21.4730 C.3       1 SAH1001     0.0000 
     17 N9        -27.7830  -32.8530   20.8580 N.pl3     1 SAH1001     0.0000 
     18 C8        -26.8280  -31.8750   20.9750 C.2       1 SAH1001     0.0000 
     19 N7        -27.2140  -30.8070   20.2380 N.2       1 SAH1001     0.0000 
     20 C5        -28.3970  -31.0940   19.6590 C.ar      1 SAH1001     0.0000 
     21 C6        -29.2050  -30.3510   18.8220 C.ar      1 SAH1001     0.0000 
     22 N6        -28.8250  -29.1240   18.4730 N.pl3     1 SAH1001     0.0000 
     23 N1        -30.3870  -30.8810   18.3570 N.ar      1 SAH1001     0.0000 
     24 C2        -30.7480  -32.1570   18.7390 C.ar      1 SAH1001     0.0000 
     25 N3        -29.9350  -32.8980   19.5800 N.ar      1 SAH1001     0.0000 
     26 C4        -28.7710  -32.3700   20.0340 C.ar      1 SAH1001     0.0000 
@<TRIPOS>BOND
     1    1    2 1    
     2    2    3 1    
     3    2    6 1    
     4    3    4 1    
     5    4    5 1    
     6    5    9 1    
     7    6    7 ar   
     8    6    8 ar   
     9    9   10 1    
    10   10   11 1    
    11   10   12 1    
    12   11   16 1    
    13   12   13 1    
    14   12   14 1    
    15   14   15 1    
    16   14   16 1    
    17   16   17 1    
    18   17   18 1    
    19   17   26 1    
    20   18   19 2    
    21   19   20 1    
    22   20   21 ar   
    23   20   26 ar   
    24   21   22 1    
    25   21   23 ar   
    26   23   24 ar   
    27   24   25 ar   
    28   25   26 ar   
@<TRIPOS>SUBSTRUCTURE
     1 SAH1001     1 GROUP   
@<TRIPOS>SET

