#    Name: 5zja_2_FAD
#    Modification time : Fri May 22 19:25:12 2020

@<TRIPOS>MOLECULE
5zja_2_FAD
   53    58     1     0     1
SMALL
NO_CHARGES


@<TRIPOS>ATOM
      1 PA        133.8400   76.8140   42.4750 P.3       1 FAD401      0.0000 
      2 O1A       133.5310   75.5790   43.2430 O.co2     1 FAD401      0.0000 
      3 O2A       132.8860   77.4210   41.5100 O.co2     1 FAD401      0.0000 
      4 O5B       133.0670   77.6180   43.6470 O.3       1 FAD401      0.0000 
      5 C5B       132.4280   78.8840   43.4080 C.3       1 FAD401      0.0000 
      6 C4B       131.5750   79.2390   44.6330 C.3       1 FAD401      0.0000 
      7 O4B       131.5750   80.6860   44.8470 O.3       1 FAD401      0.0000 
      8 C3B       130.1100   78.9100   44.3730 C.3       1 FAD401      0.0000 
      9 O3B       129.4210   78.8500   45.6160 O.3       1 FAD401      0.0000 
     10 C2B       129.6960   80.1750   43.7040 C.3       1 FAD401      0.0000 
     11 O2B       128.2650   80.2340   43.5900 O.3       1 FAD401      0.0000 
     12 C1B       130.1810   81.0720   44.8090 C.3       1 FAD401      0.0000 
     13 N9A       130.0270   82.5190   44.4980 N.pl3     1 FAD401      0.0000 
     14 C8A       130.6880   83.1090   43.5090 C.2       1 FAD401      0.0000 
     15 N7A       130.3430   84.3920   43.4910 N.2       1 FAD401      0.0000 
     16 C5A       129.4630   84.6020   44.4660 C.ar      1 FAD401      0.0000 
     17 C6A       128.8250   85.7080   44.8520 C.ar      1 FAD401      0.0000 
     18 N6A       129.0880   86.8170   44.1650 N.pl3     1 FAD401      0.0000 
     19 N1A       127.9620   85.7050   45.8760 N.ar      1 FAD401      0.0000 
     20 C2A       127.7330   84.5090   46.5540 C.ar      1 FAD401      0.0000 
     21 N3A       128.4180   83.3650   46.1290 N.ar      1 FAD401      0.0000 
     22 C4A       129.2670   83.4400   45.0920 C.ar      1 FAD401      0.0000 
     23 N1        140.7460   70.2380   39.6780 N.2       1 FAD401      0.0000 
     24 C2        141.4410   69.1540   40.2260 C.2       1 FAD401      0.0000 
     25 O2        142.1600   69.3190   41.2100 O.2       1 FAD401      0.0000 
     26 N3        141.3130   67.8830   39.6540 N.am      1 FAD401      0.0000 
     27 C4        140.4940   67.6980   38.5360 C.2       1 FAD401      0.0000 
     28 O4        140.3870   66.5770   38.0400 O.2       1 FAD401      0.0000 
     29 C4X       139.8080   68.7790   37.9960 C.2       1 FAD401      0.0000 
     30 N5        139.0280   68.5940   36.9230 N.2       1 FAD401      0.0000 
     31 C5X       138.3930   69.6350   36.3720 C.ar      1 FAD401      0.0000 
     32 C6        137.6130   69.4470   35.2380 C.ar      1 FAD401      0.0000 
     33 C7        136.9560   70.5310   34.6660 C.ar      1 FAD401      0.0000 
     34 C7M       136.1750   70.3490   33.5300 C.3       1 FAD401      0.0000 
     35 C8        137.0770   71.7960   35.2310 C.ar      1 FAD401      0.0000 
     36 C8M       136.4190   72.8790   34.6610 C.3       1 FAD401      0.0000 
     37 C9        137.8560   71.9790   36.3660 C.ar      1 FAD401      0.0000 
     38 C9A       138.5140   70.9000   36.9380 C.ar      1 FAD401      0.0000 
     39 N10       139.2640   71.0830   38.0320 N.pl3     1 FAD401      0.0000 
     40 C10       139.9300   70.0470   38.5600 C.2       1 FAD401      0.0000 
     41 C1'       139.3590   72.4300   38.6490 C.3       1 FAD401      0.0000 
     42 C2'       138.4270   72.5770   39.8620 C.3       1 FAD401      0.0000 
     43 O2'       137.0920   72.1960   39.5060 O.3       1 FAD401      0.0000 
     44 C3'       138.4190   74.0340   40.3430 C.3       1 FAD401      0.0000 
     45 O3'       139.7570   74.4890   40.5530 O.3       1 FAD401      0.0000 
     46 C4'       137.6320   74.1300   41.6530 C.3       1 FAD401      0.0000 
     47 O4'       136.3370   73.5450   41.4680 O.3       1 FAD401      0.0000 
     48 C5'       137.4860   75.6000   42.0630 C.3       1 FAD401      0.0000 
     49 O5'       136.5760   75.6970   43.1670 O.3       1 FAD401      0.0000 
     50 P         136.2650   77.1120   43.8820 P.3       1 FAD401      0.0000 
     51 O1P       135.6850   76.8580   45.2190 O.co2     1 FAD401      0.0000 
     52 O2P       137.4530   77.9820   43.7580 O.co2     1 FAD401      0.0000 
     53 O3P       135.0900   77.7330   42.9690 O.3       1 FAD401      0.0000 
@<TRIPOS>BOND
     1    1    2 ar   
     2    1    3 ar   
     3    1    4 1    
     4    1   53 1    
     5    4    5 1    
     6    5    6 1    
     7    6    7 1    
     8    6    8 1    
     9    7   12 1    
    10    8    9 1    
    11    8   10 1    
    12   10   11 1    
    13   10   12 1    
    14   12   13 1    
    15   13   14 1    
    16   13   22 1    
    17   14   15 2    
    18   15   16 1    
    19   16   17 ar   
    20   16   22 ar   
    21   17   18 1    
    22   17   19 ar   
    23   19   20 ar   
    24   20   21 ar   
    25   21   22 ar   
    26   23   24 1    
    27   23   40 2    
    28   24   25 2    
    29   24   26 am   
    30   26   27 am   
    31   27   28 2    
    32   27   29 1    
    33   29   30 2    
    34   29   40 1    
    35   30   31 1    
    36   31   32 ar   
    37   31   38 ar   
    38   32   33 ar   
    39   33   34 1    
    40   33   35 ar   
    41   35   36 1    
    42   35   37 ar   
    43   37   38 ar   
    44   38   39 1    
    45   39   40 1    
    46   39   41 1    
    47   41   42 1    
    48   42   43 1    
    49   42   44 1    
    50   44   45 1    
    51   44   46 1    
    52   46   47 1    
    53   46   48 1    
    54   48   49 1    
    55   49   50 1    
    56   50   51 ar   
    57   50   52 ar   
    58   50   53 1    
@<TRIPOS>SUBSTRUCTURE
     1 FAD401      1 GROUP   
@<TRIPOS>SET
ATOM$ORANGE STATIC     ATOMS   COLORGROUP SYSTEM 
54 5 5 6 6 8 8 10 10 12 12 14 14 16 16 17 17 20 \
20 22 22 24 24 27 27 29 29 31 31 32 32 33 33 34 34 35 \
35 36 36 37 37 38 38 40 40 41 41 42 42 44 44 46 46 48 \
48 

