#    Name: 5zja_4_FAD
#    Modification time : Fri May 22 19:25:20 2020

@<TRIPOS>MOLECULE
5zja_4_FAD
   53    58     1     0     1
SMALL
NO_CHARGES


@<TRIPOS>ATOM
      1 PA        113.9580   23.3140   42.2570 P.3       1 FAD401      0.0000 
      2 O1A       114.3580   24.6130   42.8630 O.co2     1 FAD401      0.0000 
      3 O2A       114.7590   22.6250   41.2070 O.co2     1 FAD401      0.0000 
      4 O5B       114.9110   22.6140   43.3680 O.3       1 FAD401      0.0000 
      5 C5B       115.2650   21.2220   43.3230 C.3       1 FAD401      0.0000 
      6 C4B       116.1280   20.8950   44.5490 C.3       1 FAD401      0.0000 
      7 O4B       116.1510   19.4440   44.7600 O.3       1 FAD401      0.0000 
      8 C3B       117.5870   21.2470   44.2840 C.3       1 FAD401      0.0000 
      9 O3B       118.2880   21.3120   45.5250 O.3       1 FAD401      0.0000 
     10 C2B       118.0030   19.9900   43.5830 C.3       1 FAD401      0.0000 
     11 O2B       119.4270   19.9340   43.4260 O.3       1 FAD401      0.0000 
     12 C1B       117.5480   19.0690   44.6800 C.3       1 FAD401      0.0000 
     13 N9A       117.7010   17.6320   44.3380 N.pl3     1 FAD401      0.0000 
     14 C8A       117.0410   17.0660   43.3350 C.2       1 FAD401      0.0000 
     15 N7A       117.3820   15.7830   43.2840 N.2       1 FAD401      0.0000 
     16 C5A       118.2590   15.5510   44.2570 C.ar      1 FAD401      0.0000 
     17 C6A       118.8930   14.4330   44.6160 C.ar      1 FAD401      0.0000 
     18 N6A       118.6240   13.3470   43.8950 N.pl3     1 FAD401      0.0000 
     19 N1A       119.7530   14.4030   45.6420 N.ar      1 FAD401      0.0000 
     20 C2A       119.9860   15.5840   46.3510 C.ar      1 FAD401      0.0000 
     21 N3A       119.3060   16.7430   45.9520 N.ar      1 FAD401      0.0000 
     22 C4A       118.4590   16.6970   44.9130 C.ar      1 FAD401      0.0000 
     23 N1        107.0130   29.9720   39.4980 N.2       1 FAD401      0.0000 
     24 C2        106.3350   31.0720   40.0380 C.2       1 FAD401      0.0000 
     25 O2        105.6180   30.9310   41.0280 O.2       1 FAD401      0.0000 
     26 N3        106.4750   32.3340   39.4500 N.am      1 FAD401      0.0000 
     27 C4        107.2890   32.4960   38.3210 C.2       1 FAD401      0.0000 
     28 O4        107.4040   33.6090   37.8080 O.2       1 FAD401      0.0000 
     29 C4X       107.9580   31.3970   37.7900 C.2       1 FAD401      0.0000 
     30 N5        108.7340   31.5510   36.7100 N.2       1 FAD401      0.0000 
     31 C5X       109.3660   30.4980   36.1770 C.ar      1 FAD401      0.0000 
     32 C6        110.1520   30.6690   35.0440 C.ar      1 FAD401      0.0000 
     33 C7        110.8090   29.5810   34.4830 C.ar      1 FAD401      0.0000 
     34 C7M       111.5930   29.7600   33.3490 C.3       1 FAD401      0.0000 
     35 C8        110.6810   28.3200   35.0590 C.ar      1 FAD401      0.0000 
     36 C8M       111.3390   27.2280   34.5030 C.3       1 FAD401      0.0000 
     37 C9        109.8950   28.1520   36.1950 C.ar      1 FAD401      0.0000 
     38 C9A       109.2360   29.2410   36.7560 C.ar      1 FAD401      0.0000 
     39 N10       108.4730   29.0840   37.8510 N.pl3     1 FAD401      0.0000 
     40 C10       107.8250   30.1380   38.3700 C.2       1 FAD401      0.0000 
     41 C1'       108.3430   27.7510   38.4870 C.3       1 FAD401      0.0000 
     42 C2'       109.3310   27.5870   39.6490 C.3       1 FAD401      0.0000 
     43 O2'       110.6580   27.8520   39.1840 O.3       1 FAD401      0.0000 
     44 C3'       109.2630   26.1570   40.2010 C.3       1 FAD401      0.0000 
     45 O3'       107.8990   25.7840   40.4130 O.3       1 FAD401      0.0000 
     46 C4'       110.0260   26.0790   41.5290 C.3       1 FAD401      0.0000 
     47 O4'       111.3120   26.6900   41.3820 O.3       1 FAD401      0.0000 
     48 C5'       110.2010   24.6140   41.9440 C.3       1 FAD401      0.0000 
     49 O5'       111.3410   24.4980   42.8060 O.3       1 FAD401      0.0000 
     50 P         111.5500   23.1760   43.6990 P.3       1 FAD401      0.0000 
     51 O1P       111.9310   23.5760   45.0700 O.co2     1 FAD401      0.0000 
     52 O2P       110.3880   22.2880   43.4910 O.co2     1 FAD401      0.0000 
     53 O3P       112.8210   22.4510   43.0250 O.3       1 FAD401      0.0000 
@<TRIPOS>BOND
     1    1    2 ar   
     2    1    3 ar   
     3    1    4 1    
     4    1   53 1    
     5    4    5 1    
     6    5    6 1    
     7    6    7 1    
     8    6    8 1    
     9    7   12 1    
    10    8    9 1    
    11    8   10 1    
    12   10   11 1    
    13   10   12 1    
    14   12   13 1    
    15   13   14 1    
    16   13   22 1    
    17   14   15 2    
    18   15   16 1    
    19   16   17 ar   
    20   16   22 ar   
    21   17   18 1    
    22   17   19 ar   
    23   19   20 ar   
    24   20   21 ar   
    25   21   22 ar   
    26   23   24 1    
    27   23   40 2    
    28   24   25 2    
    29   24   26 am   
    30   26   27 am   
    31   27   28 2    
    32   27   29 1    
    33   29   30 2    
    34   29   40 1    
    35   30   31 1    
    36   31   32 ar   
    37   31   38 ar   
    38   32   33 ar   
    39   33   34 1    
    40   33   35 ar   
    41   35   36 1    
    42   35   37 ar   
    43   37   38 ar   
    44   38   39 1    
    45   39   40 1    
    46   39   41 1    
    47   41   42 1    
    48   42   43 1    
    49   42   44 1    
    50   44   45 1    
    51   44   46 1    
    52   46   47 1    
    53   46   48 1    
    54   48   49 1    
    55   49   50 1    
    56   50   51 ar   
    57   50   52 ar   
    58   50   53 1    
@<TRIPOS>SUBSTRUCTURE
     1 FAD401      1 GROUP   
@<TRIPOS>SET
ATOM$ORANGE STATIC     ATOMS   COLORGROUP SYSTEM 
54 5 5 6 6 8 8 10 10 12 12 14 14 16 16 17 17 20 \
20 22 22 24 24 27 27 29 29 31 31 32 32 33 33 34 34 35 \
35 36 36 37 37 38 38 40 40 41 41 42 42 44 44 46 46 48 \
48 

