#    Name: 5zja_1_FAD
#    Modification time : Fri May 22 19:25:05 2020

@<TRIPOS>MOLECULE
5zja_1_FAD
   53    58     1     0     1
SMALL
NO_CHARGES


@<TRIPOS>ATOM
      1 PA        135.6480   23.9610   34.5530 P.3       1 FAD401      0.0000 
      2 O1A       135.1480   25.2380   33.9720 O.co2     1 FAD401      0.0000 
      3 O2A       134.8810   23.1780   35.5600 O.co2     1 FAD401      0.0000 
      4 O5B       134.7740   23.2150   33.4230 O.3       1 FAD401      0.0000 
      5 C5B       134.6480   21.7890   33.3890 C.3       1 FAD401      0.0000 
      6 C4B       133.7460   21.4230   32.2070 C.3       1 FAD401      0.0000 
      7 O4B       133.7920   19.9810   31.9610 O.3       1 FAD401      0.0000 
      8 C3B       132.2850   21.6920   32.5510 C.3       1 FAD401      0.0000 
      9 O3B       131.5310   21.7600   31.3460 O.3       1 FAD401      0.0000 
     10 C2B       131.9500   20.3970   33.2120 C.3       1 FAD401      0.0000 
     11 O2B       130.5310   20.2710   33.3810 O.3       1 FAD401      0.0000 
     12 C1B       132.4160   19.5350   32.0740 C.3       1 FAD401      0.0000 
     13 N9A       132.3290   18.0820   32.3830 N.pl3     1 FAD401      0.0000 
     14 C8A       132.9840   17.5430   33.4050 C.2       1 FAD401      0.0000 
     15 N7A       132.7170   16.2410   33.4270 N.2       1 FAD401      0.0000 
     16 C5A       131.8940   15.9670   32.4190 C.ar      1 FAD401      0.0000 
     17 C6A       131.3430   14.8180   32.0230 C.ar      1 FAD401      0.0000 
     18 N6A       131.6500   13.7400   32.7410 N.pl3     1 FAD401      0.0000 
     19 N1A       130.5260   14.7490   30.9650 N.ar      1 FAD401      0.0000 
     20 C2A       130.2500   15.9220   30.2620 C.ar      1 FAD401      0.0000 
     21 N3A       130.8420   17.1150   30.6980 N.ar      1 FAD401      0.0000 
     22 C4A       131.6510   17.1090   31.7690 C.ar      1 FAD401      0.0000 
     23 N1        142.1690   31.0250   37.3290 N.2       1 FAD401      0.0000 
     24 C2        142.7970   32.1580   36.7980 C.2       1 FAD401      0.0000 
     25 O2        143.5380   32.0490   35.8220 O.2       1 FAD401      0.0000 
     26 N3        142.5790   33.4140   37.3810 N.am      1 FAD401      0.0000 
     27 C4        141.7350   33.5340   38.4930 C.2       1 FAD401      0.0000 
     28 O4        141.5500   34.6410   38.9970 O.2       1 FAD401      0.0000 
     29 C4X       141.1140   32.4040   39.0160 C.2       1 FAD401      0.0000 
     30 N5        140.3090   32.5200   40.0810 N.2       1 FAD401      0.0000 
     31 C5X       139.7170   31.4360   40.5980 C.ar      1 FAD401      0.0000 
     32 C6        138.8900   31.5590   41.7100 C.ar      1 FAD401      0.0000 
     33 C7        138.2780   30.4320   42.2450 C.ar      1 FAD401      0.0000 
     34 C7M       137.4510   30.5440   43.3560 C.3       1 FAD401      0.0000 
     35 C8        138.4900   29.1850   41.6700 C.ar      1 FAD401      0.0000 
     36 C8M       137.8740   28.0620   42.2100 C.3       1 FAD401      0.0000 
     37 C9        139.3160   29.0620   40.5580 C.ar      1 FAD401      0.0000 
     38 C9A       139.9290   30.1880   40.0220 C.ar      1 FAD401      0.0000 
     39 N10       140.7280   30.0720   38.9520 N.pl3     1 FAD401      0.0000 
     40 C10       141.3280   31.1550   38.4410 C.2       1 FAD401      0.0000 
     41 C1'       140.9570   28.7470   38.3340 C.3       1 FAD401      0.0000 
     42 C2'       140.0330   28.5390   37.1330 C.3       1 FAD401      0.0000 
     43 O2'       138.6820   28.7790   37.5320 O.3       1 FAD401      0.0000 
     44 C3'       140.1640   27.1030   36.6180 C.3       1 FAD401      0.0000 
     45 O3'       141.5450   26.7350   36.5590 O.3       1 FAD401      0.0000 
     46 C4'       139.5480   27.0130   35.2180 C.3       1 FAD401      0.0000 
     47 O4'       138.2250   27.5550   35.2460 O.3       1 FAD401      0.0000 
     48 C5'       139.4920   25.5500   34.7690 C.3       1 FAD401      0.0000 
     49 O5'       138.2300   25.2940   34.1420 O.3       1 FAD401      0.0000 
     50 P         138.0700   24.0710   33.1120 P.3       1 FAD401      0.0000 
     51 O1P       137.5900   24.5820   31.8100 O.co2     1 FAD401      0.0000 
     52 O2P       139.3080   23.2660   33.1650 O.co2     1 FAD401      0.0000 
     53 O3P       136.8750   23.2120   33.7770 O.3       1 FAD401      0.0000 
@<TRIPOS>BOND
     1    1    2 ar   
     2    1    3 ar   
     3    1    4 1    
     4    1   53 1    
     5    4    5 1    
     6    5    6 1    
     7    6    7 1    
     8    6    8 1    
     9    7   12 1    
    10    8    9 1    
    11    8   10 1    
    12   10   11 1    
    13   10   12 1    
    14   12   13 1    
    15   13   14 1    
    16   13   22 1    
    17   14   15 2    
    18   15   16 1    
    19   16   17 ar   
    20   16   22 ar   
    21   17   18 1    
    22   17   19 ar   
    23   19   20 ar   
    24   20   21 ar   
    25   21   22 ar   
    26   23   24 1    
    27   23   40 2    
    28   24   25 2    
    29   24   26 am   
    30   26   27 am   
    31   27   28 2    
    32   27   29 1    
    33   29   30 2    
    34   29   40 1    
    35   30   31 1    
    36   31   32 ar   
    37   31   38 ar   
    38   32   33 ar   
    39   33   34 1    
    40   33   35 ar   
    41   35   36 1    
    42   35   37 ar   
    43   37   38 ar   
    44   38   39 1    
    45   39   40 1    
    46   39   41 1    
    47   41   42 1    
    48   42   43 1    
    49   42   44 1    
    50   44   45 1    
    51   44   46 1    
    52   46   47 1    
    53   46   48 1    
    54   48   49 1    
    55   49   50 1    
    56   50   51 ar   
    57   50   52 ar   
    58   50   53 1    
@<TRIPOS>SUBSTRUCTURE
     1 FAD401      1 GROUP   
@<TRIPOS>SET
ATOM$ORANGE STATIC     ATOMS   COLORGROUP SYSTEM 
54 5 5 6 6 8 8 10 10 12 12 14 14 16 16 17 17 20 \
20 22 22 24 24 27 27 29 29 31 31 32 32 33 33 34 34 35 \
35 36 36 37 37 38 38 40 40 41 41 42 42 44 44 46 46 48 \
48 

