#    Name: 6fl4_2_8DG
#    Modification time : Fri May 22 19:31:25 2020

@<TRIPOS>MOLECULE
6fl4_2_8DG
   32    34     1     0     0
SMALL
NO_CHARGES


@<TRIPOS>ATOM
      1 PG         17.4080   30.2470  103.6920 P.3       1 8DG203      0.0000 
      2 O1G        17.9740   30.6370  102.3460 O.co2     1 8DG203      0.0000 
      3 O2G        18.4210   29.5260  104.5640 O.co2     1 8DG203      0.0000 
      4 O3G        16.6310   31.3550  104.3960 O.co2     1 8DG203      0.0000 
      5 O3B        16.2640   29.1830  103.2720 O.3       1 8DG203      0.0000 
      6 PB         15.5400   28.3070  104.4300 P.3       1 8DG203      0.0000 
      7 O1B        16.5830   27.3000  104.8510 O.co2     1 8DG203      0.0000 
      8 O2B        14.9730   29.2260  105.5030 O.co2     1 8DG203      0.0000 
      9 O3A        14.2930   27.6790  103.6050 O.3       1 8DG203      0.0000 
     10 PA         13.7560   26.1550  103.6160 P.3       1 8DG203      0.0000 
     11 O1A        12.2410   26.1730  103.7540 O.co2     1 8DG203      0.0000 
     12 O2A        14.5540   25.2280  104.4990 O.co2     1 8DG203      0.0000 
     13 O5'        14.1400   25.6830  102.1170 O.3       1 8DG203      0.0000 
     14 C5'        13.6130   26.2670  100.9590 C.3       1 8DG203      0.0000 
     15 C4'        12.7050   25.2450  100.2700 C.3       1 8DG203      0.0000 
     16 O4'        13.3560   24.0830   99.7670 O.3       1 8DG203      0.0000 
     17 C3'        11.5980   24.6470  101.1200 C.3       1 8DG203      0.0000 
     18 O3'        10.6640   25.6410  101.5250 O.3       1 8DG203      0.0000 
     19 C2'        11.0810   23.6330  100.1230 C.3       1 8DG203      0.0000 
     20 C1'        12.3400   23.1490   99.3960 C.3       1 8DG203      0.0000 
     21 N9         12.6200   21.7610   99.8440 N.am      1 8DG203      0.0000 
     22 C8         12.2930   20.6180   99.2520 C.2       1 8DG203      0.0000 
     23 N7         12.6400   19.4850   99.8890 N.am      1 8DG203      0.0000 
     24 C5         13.2340   19.9260  101.0250 C.2       1 8DG203      0.0000 
     25 C6         13.8670   19.2880  102.2060 C.2       1 8DG203      0.0000 
     26 O6         13.8520   18.0090  102.2920 O.2       1 8DG203      0.0000 
     27 N1         14.3760   20.1640  103.1300 N.am      1 8DG203      0.0000 
     28 C2         14.3300   21.5190  103.0410 C.2       1 8DG203      0.0000 
     29 N2         14.8610   22.3160  104.0070 N.pl3     1 8DG203      0.0000 
     30 N3         13.7360   22.1600  101.9910 N.2       1 8DG203      0.0000 
     31 C4         13.2230   21.4120  100.9840 C.2       1 8DG203      0.0000 
     32 O8         11.6810   20.6520   98.1040 O.2       1 8DG203      0.0000 
@<TRIPOS>BOND
     1    1    2 ar   
     2    1    3 ar   
     3    1    4 ar   
     4    1    5 1    
     5    5    6 1    
     6    6    7 ar   
     7    6    8 ar   
     8    6    9 1    
     9    9   10 1    
    10   10   11 ar   
    11   10   12 ar   
    12   10   13 1    
    13   13   14 1    
    14   14   15 1    
    15   15   16 1    
    16   15   17 1    
    17   16   20 1    
    18   17   18 1    
    19   17   19 1    
    20   19   20 1    
    21   20   21 1    
    22   21   22 am   
    23   21   31 1    
    24   22   23 am   
    25   22   32 2    
    26   23   24 1    
    27   24   25 1    
    28   24   31 2    
    29   25   26 2    
    30   25   27 am   
    31   27   28 1    
    32   28   29 1    
    33   28   30 2    
    34   30   31 1    
@<TRIPOS>SUBSTRUCTURE
     1 8DG203      1 GROUP   
@<TRIPOS>SET

