#    Name: 6fl4_2_8DG_CAVITY_N1_ALL
#    Modification time : Fri May 22 19:31:26 2020

@<TRIPOS>MOLECULE
6fl4_2_8DG_CAVITY_N1_ALL
   79     0     6     0     0
SMALL
NO_CHARGES


@<TRIPOS>ATOM
      1 OG         11.3800   21.8800   98.0900 O.3       1 SER1        0.0000 
      2 OG         13.1800   22.4100   99.0800 O.3       1 SER1        0.0000 
      3 OG          5.2000   29.3300  100.8200 O.3       1 SER1        0.0000 
      4 OG          6.8700   28.0300  100.7500 O.3       1 SER1        0.0000 
      5 OG          8.4300   30.0000  101.3900 O.3       1 SER1        0.0000 
      6 OG          7.0000   29.8600  101.8100 O.3       1 SER1        0.0000 
      7 OG         11.7700   27.3900  101.2600 O.3       1 SER1        0.0000 
      8 OG         10.3400   27.2500  101.6700 O.3       1 SER1        0.0000 
      9 OG          8.9000   27.1200  102.0900 O.3       1 SER1        0.0000 
     10 OG         10.4700   29.0900  102.7300 O.3       1 SER1        0.0000 
     11 OG          9.0400   28.9500  103.1400 O.3       1 SER1        0.0000 
     12 OG          7.6000   28.8200  103.5500 O.3       1 SER1        0.0000 
     13 OG          7.8400   27.3800  103.9000 O.3       1 SER1        0.0000 
     14 OG         15.3800   28.4500  103.2300 O.3       1 SER1        0.0000 
     15 OG          9.6400   27.9100  104.8800 O.3       1 SER1        0.0000 
     16 N          14.3900   20.3200  102.5700 N.am      2 ALA2        0.0000 
     17 N          15.7200   23.7300  102.8700 N.am      2 ALA2        0.0000 
     18 N          14.5200   22.1600  103.6200 N.am      2 ALA2        0.0000 
     19 OD1        10.5700   25.8100  102.0200 O.co2     3 ASP3        0.0000 
     20 OD1         9.1400   25.6800  102.4300 O.co2     3 ASP3        0.0000 
     21 OD1        12.2500   24.5100  101.9500 O.co2     3 ASP3        0.0000 
     22 OD1        10.8100   24.3700  102.3600 O.co2     3 ASP3        0.0000 
     23 OD1        13.9200   23.2000  101.8800 O.co2     3 ASP3        0.0000 
     24 OD1        12.4800   23.0700  102.2900 O.co2     3 ASP3        0.0000 
     25 OD1        10.7100   27.6500  103.0700 O.co2     3 ASP3        0.0000 
     26 OD1         9.2700   27.5100  103.4800 O.co2     3 ASP3        0.0000 
     27 OD1        12.3800   26.3400  103.0000 O.co2     3 ASP3        0.0000 
     28 OD1        14.0500   25.0400  102.9300 O.co2     3 ASP3        0.0000 
     29 OD1        12.6100   24.9000  103.3500 O.co2     3 ASP3        0.0000 
     30 OD1        14.2800   23.6000  103.2800 O.co2     3 ASP3        0.0000 
     31 OD1        11.0700   28.0400  104.4700 O.co2     3 ASP3        0.0000 
     32 OD1        15.6100   27.0100  103.5700 O.co2     3 ASP3        0.0000 
     33 OD1        14.1800   26.8700  103.9900 O.co2     3 ASP3        0.0000 
     34 OD1        14.0700   30.1500  104.7000 O.co2     3 ASP3        0.0000 
     35 OD1        14.3100   28.7100  105.0400 O.co2     3 ASP3        0.0000 
     36 CZ         11.5100   23.7200   99.1500 C.ar      4 PHE5        0.0000 
     37 CZ         10.0800   23.5800   99.5600 C.ar      4 PHE5        0.0000 
     38 CZ         11.7500   22.2700   99.4900 C.ar      4 PHE5        0.0000 
     39 CZ         10.3100   22.1400   99.9100 C.ar      4 PHE5        0.0000 
     40 CZ         11.9800   20.8300   99.8400 C.ar      4 PHE5        0.0000 
     41 CZ         12.2200   19.3900  100.1900 C.ar      4 PHE5        0.0000 
     42 CZ         13.0800   25.6900   99.7900 C.ar      4 PHE5        0.0000 
     43 CZ         11.6400   25.5500  100.2000 C.ar      4 PHE5        0.0000 
     44 CZ         10.2100   25.4200  100.6200 C.ar      4 PHE5        0.0000 
     45 CZ          8.7700   25.2800  101.0300 C.ar      4 PHE5        0.0000 
     46 CZ         10.4400   23.9800  100.9600 C.ar      4 PHE5        0.0000 
     47 CZ         12.1100   22.6700  100.8900 C.ar      4 PHE5        0.0000 
     48 CZ         12.3500   21.2300  101.2400 C.ar      4 PHE5        0.0000 
     49 CZ         12.5900   19.7900  101.5900 C.ar      4 PHE5        0.0000 
     50 CZ         12.8200   18.3500  101.9300 C.ar      4 PHE5        0.0000 
     51 CZ         13.4500   26.0800  101.1900 C.ar      4 PHE5        0.0000 
     52 CZ         12.7200   21.6300  102.6400 C.ar      4 PHE5        0.0000 
     53 CZ         12.9500   20.1900  102.9900 C.ar      4 PHE5        0.0000 
     54 CZ         11.9100   29.2200  102.3100 C.ar      4 PHE5        0.0000 
     55 CZ         12.1400   27.7800  102.6600 C.ar      4 PHE5        0.0000 
     56 CZ         13.8100   26.4800  102.5900 C.ar      4 PHE5        0.0000 
     57 CZ         13.7100   29.7500  103.3000 C.ar      4 PHE5        0.0000 
     58 CZ         13.9400   28.3100  103.6400 C.ar      4 PHE5        0.0000 
     59 CZ         12.5100   28.1800  104.0600 C.ar      4 PHE5        0.0000 
     60 CA         12.9500   23.8500   98.7300 C.3       5 GLY6        0.0000 
     61 CA         13.4200   20.9700   99.4300 C.3       5 GLY6        0.0000 
     62 CA         13.6500   19.5300   99.7700 C.3       5 GLY6        0.0000 
     63 CA         13.3100   24.2500  100.1300 C.3       5 GLY6        0.0000 
     64 CA         14.9900   22.9400  100.0700 C.3       5 GLY6        0.0000 
     65 CA         13.5500   22.8100  100.4800 C.3       5 GLY6        0.0000 
     66 CA         13.7900   21.3700  100.8300 C.3       5 GLY6        0.0000 
     67 CA         14.0200   19.9200  101.1700 C.3       5 GLY6        0.0000 
     68 CA         14.2600   18.4800  101.5200 C.3       5 GLY6        0.0000 
     69 CA          7.2300   28.4200  102.1500 C.3       5 GLY6        0.0000 
     70 CA          7.4700   26.9800  102.5000 C.3       5 GLY6        0.0000 
     71 CA         14.8800   26.2200  100.7700 C.3       5 GLY6        0.0000 
     72 CA         15.1200   24.7800  101.1200 C.3       5 GLY6        0.0000 
     73 CA         15.3500   23.3400  101.4700 C.3       5 GLY6        0.0000 
     74 CA         14.1500   21.7600  102.2300 C.3       5 GLY6        0.0000 
     75 CA         15.2500   26.6100  102.1700 C.3       5 GLY6        0.0000 
     76 CA         15.4800   25.1700  102.5200 C.3       5 GLY6        0.0000 
     77 DU         11.8800   24.1100  100.5500 H         6 CUB7        0.0000 
     78 DU         12.0100   25.9500  101.6000 H         6 CUB7        0.0000 
     79 DU         13.6800   24.6400  101.5300 H         6 CUB7        0.0000 
@<TRIPOS>BOND
@<TRIPOS>SUBSTRUCTURE
     1 SER1        1 GROUP   
     2 ALA2       16 GROUP   
     3 ASP3       19 GROUP   
     4 PHE5       36 GROUP   
     5 GLY6       60 GROUP   
     6 CUB7       77 GROUP   
@<TRIPOS>SET

