#    Name: 6psj_1_29S
#    Modification time : Fri May 22 19:34:59 2020

@<TRIPOS>MOLECULE
6psj_1_29S
   35    39     1     0     0
SMALL
NO_CHARGES


@<TRIPOS>ATOM
      1 CAE        -4.2160  -29.9140   17.0070           1 29S601      0.0000 
      2 CAD        -2.9620  -29.0490   17.0490           1 29S601      0.0000 
      3 CAC        -3.2160  -27.5580   17.1250           1 29S601      0.0000 
      4 CAB        -4.1920  -27.1010   18.1950           1 29S601      0.0000 
      5 CAA        -4.5600  -28.1320   19.2190           1 29S601      0.0000 
      6 CAG        -5.4500  -29.1880   18.7050           1 29S601      0.0000 
      7 NAF        -4.8250  -30.2200   18.1610           1 29S601      0.0000 
      8 CAH        -4.1160  -31.0220   18.8760           1 29S601      0.0000 
      9 CAI        -4.3770  -31.2140   20.3820           1 29S601      0.0000 
     10 OAJ        -3.5270  -30.3530   21.0040           1 29S601      0.0000 
     11 CAK        -3.6780  -30.0530   22.3680           1 29S601      0.0000 
     12 CAL        -2.8110  -29.1370   22.9040           1 29S601      0.0000 
     13 CAM        -2.8290  -28.7660   24.2270           1 29S601      0.0000 
     14 CAP        -4.6060  -30.6180   23.1940           1 29S601      0.0000 
     15 CAO        -4.6080  -30.2470   24.5440           1 29S601      0.0000 
     16 CAN        -3.7360  -29.3160   25.0950           1 29S601      0.0000 
     17 CAQ        -3.7600  -28.8500   26.6120           1 29S601      0.0000 
     18 NAR        -2.7940  -27.8140   26.7890           1 29S601      0.0000 
     19 CAS        -3.0140  -26.4940   26.6050           1 29S601      0.0000 
     20 CBD        -4.2030  -25.7950   26.2870           1 29S601      0.0000 
     21 CBE        -4.2020  -24.4280   26.1290           1 29S601      0.0000 
     22 CBF        -3.0360  -23.6840   26.3210           1 29S601      0.0000 
     23 OBI        -3.0800  -22.3040   26.1510           1 29S601      0.0000 
     24 CBG        -1.8400  -24.3640   26.6400           1 29S601      0.0000 
     25 CAT        -1.8540  -25.7760   26.7680           1 29S601      0.0000 
     26 CAU        -0.8930  -26.7720   27.1020           1 29S601      0.0000 
     27 CBH         0.5400  -26.5120   27.3480           1 29S601      0.0000 
     28 CAV        -1.5570  -27.9970   27.0900           1 29S601      0.0000 
     29 CAW        -0.9520  -29.3610   27.2750           1 29S601      0.0000 
     30 CAX        -0.2800  -29.8550   26.2170           1 29S601      0.0000 
     31 CAY         0.3070  -31.0740   26.2420           1 29S601      0.0000 
     32 CAZ         0.2350  -31.8580   27.3430           1 29S601      0.0000 
     33 OBC         0.8520  -33.0910   27.3400           1 29S601      0.0000 
     34 CBA        -0.4390  -31.4030   28.4400           1 29S601      0.0000 
     35 CBB        -1.0310  -30.1470   28.3910           1 29S601      0.0000 
@<TRIPOS>BOND
     1    1    2 du   
     2    1    7 du   
     3    2    3 du   
     4    3    4 du   
     5    4    5 du   
     6    5    6 du   
     7    6    7 du   
     8    7    8 du   
     9    8    9 du   
    10    9   10 du   
    11   10   11 du   
    12   11   12 du   
    13   11   14 du   
    14   12   13 du   
    15   13   16 du   
    16   14   15 du   
    17   15   16 du   
    18   16   17 du   
    19   17   18 du   
    20   18   19 du   
    21   18   28 du   
    22   19   20 du   
    23   19   25 du   
    24   20   21 du   
    25   21   22 du   
    26   22   23 du   
    27   22   24 du   
    28   24   25 du   
    29   25   26 du   
    30   26   27 du   
    31   26   28 du   
    32   28   29 du   
    33   29   30 du   
    34   29   35 du   
    35   30   31 du   
    36   31   32 du   
    37   32   33 du   
    38   32   34 du   
    39   34   35 du   
@<TRIPOS>SUBSTRUCTURE
     1 29S601      1 GROUP   
@<TRIPOS>SET

