#    Name: 6psj_2_29S
#    Modification time : Fri May 22 19:35:03 2020

@<TRIPOS>MOLECULE
6psj_2_29S
   35    39     1     0     0
SMALL
NO_CHARGES


@<TRIPOS>ATOM
      1 CAE        24.1260  -46.3340   26.0650           1 29S601      0.0000 
      2 CAD        23.6270  -45.4620   27.1850           1 29S601      0.0000 
      3 CAC        23.9610  -44.0000   27.0730           1 29S601      0.0000 
      4 CAB        25.3170  -43.6290   26.5830           1 29S601      0.0000 
      5 CAA        25.5290  -43.8790   25.1220           1 29S601      0.0000 
      6 CAG        25.1100  -45.2080   24.5960           1 29S601      0.0000 
      7 NAF        23.9500  -45.6950   24.9400           1 29S601      0.0000 
      8 CAH        23.5690  -46.5300   24.0850           1 29S601      0.0000 
      9 CAI        22.7200  -45.9680   22.9300           1 29S601      0.0000 
     10 OAJ        23.1510  -44.7240   22.5400           1 29S601      0.0000 
     11 CAK        23.4860  -44.5160   21.1730           1 29S601      0.0000 
     12 CAL        23.5080  -45.4720   20.1820           1 29S601      0.0000 
     13 CAM        23.8330  -45.0600   18.8660           1 29S601      0.0000 
     14 CAP        23.8000  -43.2240   20.8470           1 29S601      0.0000 
     15 CAO        24.1410  -42.8520   19.5680           1 29S601      0.0000 
     16 CAN        24.1450  -43.7570   18.5510           1 29S601      0.0000 
     17 CAQ        24.5320  -43.2160   17.1190           1 29S601      0.0000 
     18 NAR        24.9720  -41.8650   17.1930           1 29S601      0.0000 
     19 CAS        26.1920  -41.4760   17.5410           1 29S601      0.0000 
     20 CBD        27.3900  -42.1820   17.9020           1 29S601      0.0000 
     21 CBE        28.5480  -41.5150   18.2030           1 29S601      0.0000 
     22 CBF        28.5820  -40.1400   18.1670           1 29S601      0.0000 
     23 OBI        29.7450  -39.4520   18.5030           1 29S601      0.0000 
     24 CBG        27.4310  -39.4260   17.8460           1 29S601      0.0000 
     25 CAT        26.2490  -40.1010   17.5270           1 29S601      0.0000 
     26 CAU        24.9440  -39.6610   17.1510           1 29S601      0.0000 
     27 CBH        24.4830  -38.2440   16.9980           1 29S601      0.0000 
     28 CAV        24.2090  -40.8130   16.9880           1 29S601      0.0000 
     29 CAW        22.7650  -40.8560   16.5390           1 29S601      0.0000 
     30 CAX        21.8040  -41.4930   17.2570           1 29S601      0.0000 
     31 CAY        20.4920  -41.5630   16.8320           1 29S601      0.0000 
     32 CAZ        20.1270  -40.9770   15.6460           1 29S601      0.0000 
     33 OBC        18.8100  -41.0540   15.1740           1 29S601      0.0000 
     34 CBA        21.0860  -40.3320   14.8930           1 29S601      0.0000 
     35 CBB        22.3940  -40.2730   15.3370           1 29S601      0.0000 
@<TRIPOS>BOND
     1    1    2 du   
     2    1    7 du   
     3    2    3 du   
     4    3    4 du   
     5    4    5 du   
     6    5    6 du   
     7    6    7 du   
     8    7    8 du   
     9    8    9 du   
    10    9   10 du   
    11   10   11 du   
    12   11   12 du   
    13   11   14 du   
    14   12   13 du   
    15   13   16 du   
    16   14   15 du   
    17   15   16 du   
    18   16   17 du   
    19   17   18 du   
    20   18   19 du   
    21   18   28 du   
    22   19   20 du   
    23   19   25 du   
    24   20   21 du   
    25   21   22 du   
    26   22   23 du   
    27   22   24 du   
    28   24   25 du   
    29   25   26 du   
    30   26   27 du   
    31   26   28 du   
    32   28   29 du   
    33   29   30 du   
    34   29   35 du   
    35   30   31 du   
    36   31   32 du   
    37   32   33 du   
    38   32   34 du   
    39   34   35 du   
@<TRIPOS>SUBSTRUCTURE
     1 29S601      1 GROUP   
@<TRIPOS>SET

