#    Name: 5wnj_1_2V9
#    Modification time : Fri May 22 19:16:07 2020

@<TRIPOS>MOLECULE
5wnj_1_2V9
   33    40     1     0     0
SMALL
NO_CHARGES


@<TRIPOS>ATOM
      1 O2        -13.0700   -4.5610  -24.5380           1 2V9401      0.0000 
      2 C25       -13.9190   -3.9350  -23.8860           1 2V9401      0.0000 
      3 N3        -15.0640   -3.4450  -24.3960           1 2V9401      0.0000 
      4 C24       -15.8620   -3.0060  -23.4040           1 2V9401      0.0000 
      5 C14       -15.0550   -2.8870  -22.1970           1 2V9401      0.0000 
      6 C13       -13.8440   -3.5350  -22.4830           1 2V9401      0.0000 
      7 C12       -12.8160   -3.5760  -21.5050           1 2V9401      0.0000 
      8 C11       -11.4730   -4.0870  -21.4780           1 2V9401      0.0000 
      9 C10       -10.6690   -4.7610  -22.4080           1 2V9401      0.0000 
     10 C9         -9.3800   -5.1030  -22.0550           1 2V9401      0.0000 
     11 C8         -8.8840   -4.7970  -20.7830           1 2V9401      0.0000 
     12 C7         -9.6550   -4.1440  -19.8460           1 2V9401      0.0000 
     13 C6        -10.9550   -3.7900  -20.1980           1 2V9401      0.0000 
     14 N1        -11.9440   -3.1460  -19.4600           1 2V9401      0.0000 
     15 C23       -13.0670   -3.0100  -20.2380           1 2V9401      0.0000 
     16 C22       -14.3010   -2.4030  -19.9210           1 2V9401      0.0000 
     17 C15       -15.3040   -2.3430  -20.9060           1 2V9401      0.0000 
     18 C16       -16.4250   -1.6800  -20.3250           1 2V9401      0.0000 
     19 C17       -17.6850   -1.3160  -20.8180           1 2V9401      0.0000 
     20 C18       -18.5660   -0.6560  -19.9890           1 2V9401      0.0000 
     21 C19       -18.2070   -0.3420  -18.6770           1 2V9401      0.0000 
     22 C20       -16.9800   -0.7010  -18.1600           1 2V9401      0.0000 
     23 C21       -16.0750   -1.3630  -18.9920           1 2V9401      0.0000 
     24 N2        -14.7710   -1.8170  -18.7540           1 2V9401      0.0000 
     25 C2        -14.0090   -1.7750  -17.4810           1 2V9401      0.0000 
     26 C1        -14.9170   -1.9950  -16.2710           1 2V9401      0.0000 
     27 O1        -13.0950   -2.8880  -17.4630           1 2V9401      0.0000 
     28 C5        -11.8800   -2.5760  -18.1190           1 2V9401      0.0000 
     29 C4        -11.8040   -1.0520  -18.1290           1 2V9401      0.0000 
     30 C3        -13.0430   -0.5760  -17.3520           1 2V9401      0.0000 
     31 O4        -13.6400    0.5440  -18.0240           1 2V9401      0.0000 
     32 C26       -12.7210   -0.1800  -15.9180           1 2V9401      0.0000 
     33 O3        -11.6460    0.7440  -15.8780           1 2V9401      0.0000 
@<TRIPOS>BOND
     1    1    2 du   
     2    2    3 du   
     3    2    6 du   
     4    3    4 du   
     5    4    5 du   
     6    5    6 du   
     7    5   17 du   
     8    6    7 du   
     9    7    8 du   
    10    7   15 du   
    11    8    9 du   
    12    8   13 du   
    13    9   10 du   
    14   10   11 du   
    15   11   12 du   
    16   12   13 du   
    17   13   14 du   
    18   14   15 du   
    19   14   28 du   
    20   15   16 du   
    21   16   17 du   
    22   16   24 du   
    23   17   18 du   
    24   18   19 du   
    25   18   23 du   
    26   19   20 du   
    27   20   21 du   
    28   21   22 du   
    29   22   23 du   
    30   23   24 du   
    31   24   25 du   
    32   25   26 du   
    33   25   27 du   
    34   25   30 du   
    35   27   28 du   
    36   28   29 du   
    37   29   30 du   
    38   30   31 du   
    39   30   32 du   
    40   32   33 du   
@<TRIPOS>SUBSTRUCTURE
     1 2V9401      1 GROUP   
@<TRIPOS>SET

