#    Name: 6mmq_4_CMP
#    Modification time : Fri May 22 19:28:51 2020

@<TRIPOS>MOLECULE
6mmq_4_CMP
   22    25     1     0     1
SMALL
NO_CHARGES


@<TRIPOS>ATOM
      1 P         -22.9220  -12.5420   11.3300 P.3       1 CMP201      0.0000 
      2 O1P       -23.6520  -12.5560   10.0090 O.co2     1 CMP201      0.0000 
      3 O2P       -23.1850  -13.6260   12.3590 O.co2     1 CMP201      0.0000 
      4 O5'       -23.1820  -11.1270   12.0480 O.3       1 CMP201      0.0000 
      5 C5'       -22.2640  -10.5940   13.0050 C.3       1 CMP201      0.0000 
      6 C4'       -20.8600  -10.8160   12.5100 C.3       1 CMP201      0.0000 
      7 O4'       -19.8330  -10.5250   13.4860 O.3       1 CMP201      0.0000 
      8 C3'       -20.5750  -12.2450   12.1490 C.3       1 CMP201      0.0000 
      9 O3'       -21.3290  -12.6290   11.0170 O.3       1 CMP201      0.0000 
     10 C2'       -19.0620  -12.2260   12.0050 C.3       1 CMP201      0.0000 
     11 O2'       -18.6850  -11.6040   10.7810 O.3       1 CMP201      0.0000 
     12 C1'       -18.6830  -11.2870   13.1640 C.3       1 CMP201      0.0000 
     13 N9        -18.2200  -12.0120   14.3660 N.pl3     1 CMP201      0.0000 
     14 C8        -18.9700  -12.4400   15.3980 C.2       1 CMP201      0.0000 
     15 N7        -18.2060  -13.0520   16.3410 N.2       1 CMP201      0.0000 
     16 C5        -16.9270  -13.0200   15.9200 C.ar      1 CMP201      0.0000 
     17 C6        -15.6150  -13.4870   16.4280 C.ar      1 CMP201      0.0000 
     18 N6        -15.5120  -14.1370   17.6170 N.pl3     1 CMP201      0.0000 
     19 N1        -14.5220  -13.2540   15.6620 N.ar      1 CMP201      0.0000 
     20 C2        -14.6190  -12.6110   14.4940 C.ar      1 CMP201      0.0000 
     21 N3        -15.7770  -12.1600   13.9670 N.ar      1 CMP201      0.0000 
     22 C4        -16.9470  -12.3340   14.6230 C.ar      1 CMP201      0.0000 
@<TRIPOS>BOND
     1   16   22 ar   
     2   17   18 1    
     3   17   19 ar   
     4   19   20 ar   
     5   20   21 ar   
     6   21   22 ar   
     7    1    2 ar   
     8    1    3 ar   
     9    1    4 1    
    10    1    9 1    
    11    4    5 1    
    12    5    6 1    
    13    6    7 1    
    14    6    8 1    
    15    7   12 1    
    16    8    9 1    
    17    8   10 1    
    18   10   11 1    
    19   10   12 1    
    20   12   13 1    
    21   13   14 1    
    22   13   22 1    
    23   14   15 2    
    24   15   16 1    
    25   16   17 ar   
@<TRIPOS>SUBSTRUCTURE
     1 CMP201      1 GROUP   
@<TRIPOS>SET
ATOM$ORANGE STATIC     ATOMS   COLORGROUP SYSTEM 
20 5 5 6 6 8 8 10 10 12 12 14 14 16 16 17 17 20 \
20 22 22 

