#    Name: 6mmq_3_CMP_CAVITY_N1_4
#    Modification time : Fri May 22 19:28:49 2020

@<TRIPOS>MOLECULE
6mmq_3_CMP_CAVITY_N1_4
   30     0     4     0     0
SMALL
NO_CHARGES


@<TRIPOS>ATOM
      1 OG        -25.9300  -16.1900  -13.5000 O.3       1 SER1        0.0000 
      2 OG        -25.1000  -15.2400  -14.3100 O.3       1 SER1        0.0000 
      3 OG        -27.1000  -15.2600  -13.6000 O.3       1 SER1        0.0000 
      4 OG        -26.2700  -14.3100  -14.4200 O.3       1 SER1        0.0000 
      5 OG        -24.6600  -14.5400  -13.0500 O.3       1 SER1        0.0000 
      6 OG        -25.8300  -13.6100  -13.1600 O.3       1 SER1        0.0000 
      7 OG        -27.8400  -13.6300  -12.4600 O.3       1 SER1        0.0000 
      8 OG        -27.0100  -12.6800  -13.2700 O.3       1 SER1        0.0000 
      9 OG        -24.2300  -13.8500  -11.8000 O.3       1 SER1        0.0000 
     10 N         -28.2700  -14.3300  -13.7100 N.am      2 ALA2        0.0000 
     11 N         -21.8800  -15.7100  -11.5800 N.am      2 ALA2        0.0000 
     12 N         -23.8900  -15.7300  -10.8800 N.am      2 ALA2        0.0000 
     13 N         -23.0600  -14.7800  -11.6900 N.am      2 ALA2        0.0000 
     14 CA        -27.1400  -15.7000  -16.9300 C.3       3 GLY6        0.0000 
     15 CA        -26.3600  -16.8800  -14.7500 C.3       3 GLY6        0.0000 
     16 CA        -25.5300  -15.9400  -15.5600 C.3       3 GLY6        0.0000 
     17 CA        -27.5400  -15.9500  -14.8600 C.3       3 GLY6        0.0000 
     18 CA        -26.7100  -15.0100  -15.6700 C.3       3 GLY6        0.0000 
     19 CA        -28.7100  -15.0200  -14.9700 C.3       3 GLY6        0.0000 
     20 CA        -27.8800  -14.0700  -15.7800 C.3       3 GLY6        0.0000 
     21 CA        -23.9300  -16.1700  -14.2000 C.3       3 GLY6        0.0000 
     22 CA        -24.2700  -14.2900  -15.1200 C.3       3 GLY6        0.0000 
     23 CA        -25.4400  -13.3600  -15.2300 C.3       3 GLY6        0.0000 
     24 CA        -27.4400  -13.3800  -14.5300 C.3       3 GLY6        0.0000 
     25 CA        -29.4400  -13.4000  -13.8200 C.3       3 GLY6        0.0000 
     26 CA        -28.6100  -12.4500  -14.6400 C.3       3 GLY6        0.0000 
     27 CA        -23.4900  -15.4700  -12.9400 C.3       3 GLY6        0.0000 
     28 CA        -22.6600  -14.5200  -13.7600 C.3       3 GLY6        0.0000 
     29 CA        -25.0100  -12.6600  -13.9800 C.3       3 GLY6        0.0000 
     30 DU        -23.8300  -13.5900  -13.8700 H         4 CUB7        0.0000 
@<TRIPOS>BOND
@<TRIPOS>SUBSTRUCTURE
     1 SER1        1 GROUP   
     2 ALA2       10 GROUP   
     3 GLY6       14 GROUP   
     4 CUB7       30 GROUP   
@<TRIPOS>SET

