#    Name: 6mmq_5_CMP
#    Modification time : Fri May 22 19:28:54 2020

@<TRIPOS>MOLECULE
6mmq_5_CMP
   22    25     1     0     1
SMALL
NO_CHARGES


@<TRIPOS>ATOM
      1 P         -22.2710  -38.2260  -25.0990 P.3       1 CMP201      0.0000 
      2 O1P       -23.5400  -38.3580  -25.9030 O.co2     1 CMP201      0.0000 
      3 O2P       -21.3550  -39.4120  -24.9220 O.co2     1 CMP201      0.0000 
      4 O5'       -22.6730  -37.8080  -23.6030 O.3       1 CMP201      0.0000 
      5 C5'       -21.7690  -37.1140  -22.7460 C.3       1 CMP201      0.0000 
      6 C4'       -21.0690  -36.0500  -23.5370 C.3       1 CMP201      0.0000 
      7 O4'       -19.9380  -35.4680  -22.8520 O.3       1 CMP201      0.0000 
      8 C3'       -20.4430  -36.5520  -24.8120 C.3       1 CMP201      0.0000 
      9 O3'       -21.4150  -36.9960  -25.7320 O.3       1 CMP201      0.0000 
     10 C2'       -19.5830  -35.3640  -25.2100 C.3       1 CMP201      0.0000 
     11 O2'       -20.3810  -34.2970  -25.6980 O.3       1 CMP201      0.0000 
     12 C1'       -19.0430  -34.9500  -23.8330 C.3       1 CMP201      0.0000 
     13 N9        -17.6950  -35.4810  -23.5990 N.pl3     1 CMP201      0.0000 
     14 C8        -17.3780  -36.7040  -23.1150 C.2       1 CMP201      0.0000 
     15 N7        -16.0370  -36.8370  -23.0450 N.2       1 CMP201      0.0000 
     16 C5        -15.4960  -35.6970  -23.5020 C.ar      1 CMP201      0.0000 
     17 C6        -14.1390  -35.2040  -23.6890 C.ar      1 CMP201      0.0000 
     18 N6        -13.1100  -36.0180  -23.3590 N.pl3     1 CMP201      0.0000 
     19 N1        -13.9790  -33.9640  -24.2010 N.ar      1 CMP201      0.0000 
     20 C2        -15.0250  -33.1910  -24.5200 C.ar      1 CMP201      0.0000 
     21 N3        -16.3060  -33.5800  -24.3770 N.ar      1 CMP201      0.0000 
     22 C4        -16.5850  -34.8040  -23.8770 C.ar      1 CMP201      0.0000 
@<TRIPOS>BOND
     1    1    2 ar   
     2    1    3 ar   
     3    1    4 1    
     4    1    9 1    
     5    4    5 1    
     6    5    6 1    
     7    6    7 1    
     8    6    8 1    
     9    7   12 1    
    10    8    9 1    
    11    8   10 1    
    12   10   11 1    
    13   10   12 1    
    14   12   13 1    
    15   13   14 1    
    16   13   22 1    
    17   14   15 2    
    18   15   16 1    
    19   16   17 ar   
    20   16   22 ar   
    21   17   18 1    
    22   17   19 ar   
    23   19   20 ar   
    24   20   21 ar   
    25   21   22 ar   
@<TRIPOS>SUBSTRUCTURE
     1 CMP201      1 GROUP   
@<TRIPOS>SET
ATOM$ORANGE STATIC     ATOMS   COLORGROUP SYSTEM 
20 5 5 6 6 8 8 10 10 12 12 14 14 16 16 17 17 20 \
20 22 22 

