#    Name: 6mmq_4_CMP_CAVITY_N1_4
#    Modification time : Fri May 22 19:28:52 2020

@<TRIPOS>MOLECULE
6mmq_4_CMP_CAVITY_N1_4
   40     0     4     0     0
SMALL
NO_CHARGES


@<TRIPOS>ATOM
      1 OG        -17.5500  -12.1200   13.6100 O.3       1 SER1        0.0000 
      2 OG        -15.1100  -11.4000   14.1600 O.3       1 SER1        0.0000 
      3 OG        -16.2900  -12.1600   20.3600 O.3       1 SER1        0.0000 
      4 O         -16.3800  -13.0500   13.7100 O.2       2 ALA2        0.0000 
      5 N         -18.3800  -13.0600   14.4200 N.am      2 ALA2        0.0000 
      6 N         -15.6000  -14.2300   15.8900 N.am      2 ALA2        0.0000 
      7 N         -13.9400  -12.3300   14.2700 N.am      2 ALA2        0.0000 
      8 O         -17.6000  -14.2500   16.6000 O.2       2 ALA2        0.0000 
      9 O         -16.7700  -13.3000   15.7800 O.2       2 ALA2        0.0000 
     10 N         -18.7700  -13.3200   16.4900 N.am      2 ALA2        0.0000 
     11 N         -15.1600  -13.5300   17.1500 N.am      2 ALA2        0.0000 
     12 O         -14.3300  -12.5800   16.3300 O.2       2 ALA2        0.0000 
     13 N         -14.7300  -12.8400   18.4000 N.am      2 ALA2        0.0000 
     14 N         -15.1200  -13.0900   20.4700 N.am      2 ALA2        0.0000 
     15 N         -14.2900  -12.1400   19.6600 N.am      2 ALA2        0.0000 
     16 CA        -18.7200  -11.1900   13.5000 C.3       3 GLY6        0.0000 
     17 CA        -14.7700  -13.2800   15.0800 C.3       3 GLY6        0.0000 
     18 CA        -15.9400  -12.3500   14.9700 C.3       3 GLY6        0.0000 
     19 CA        -17.9400  -12.3700   15.6700 C.3       3 GLY6        0.0000 
     20 CA        -17.1100  -11.4200   14.8600 C.3       3 GLY6        0.0000 
     21 CA        -19.9400  -12.3900   16.3800 C.3       3 GLY6        0.0000 
     22 CA        -19.1100  -11.4400   15.5600 C.3       3 GLY6        0.0000 
     23 CA        -15.9900  -14.4800   17.9600 C.3       3 GLY6        0.0000 
     24 CA        -17.1600  -13.5500   17.8500 C.3       3 GLY6        0.0000 
     25 CA        -15.5000  -11.6500   16.2200 C.3       3 GLY6        0.0000 
     26 CA        -14.6700  -10.7100   15.4100 C.3       3 GLY6        0.0000 
     27 CA        -19.1600  -13.5700   18.5600 C.3       3 GLY6        0.0000 
     28 CA        -18.3300  -12.6200   17.7400 C.3       3 GLY6        0.0000 
     29 CA        -17.5000  -11.6700   16.9300 C.3       3 GLY6        0.0000 
     30 CA        -19.5100  -11.6900   17.6300 C.3       3 GLY6        0.0000 
     31 CA        -15.5600  -13.7800   19.2200 C.3       3 GLY6        0.0000 
     32 CA        -16.7300  -12.8500   19.1100 C.3       3 GLY6        0.0000 
     33 CA        -15.9000  -11.9100   18.2900 C.3       3 GLY6        0.0000 
     34 CA        -15.0700  -10.9600   17.4800 C.3       3 GLY6        0.0000 
     35 CA        -17.9000  -11.9200   19.0000 C.3       3 GLY6        0.0000 
     36 CA        -17.0700  -10.9800   18.1800 C.3       3 GLY6        0.0000 
     37 CA        -16.2400  -10.0300   17.3700 C.3       3 GLY6        0.0000 
     38 CA        -19.0700  -10.9900   18.8900 C.3       3 GLY6        0.0000 
     39 CA        -15.4600  -11.2100   19.5500 C.3       3 GLY6        0.0000 
     40 DU        -16.3300  -12.6000   17.0400 H         4 CUB7        0.0000 
@<TRIPOS>BOND
@<TRIPOS>SUBSTRUCTURE
     1 SER1        1 GROUP   
     2 ALA2        4 GROUP   
     3 GLY6       16 GROUP   
     4 CUB7       40 GROUP   
@<TRIPOS>SET

