#    Name: 6mmq_3_CMP
#    Modification time : Fri May 22 19:28:48 2020

@<TRIPOS>MOLECULE
6mmq_3_CMP
   22    25     1     0     1
SMALL
NO_CHARGES


@<TRIPOS>ATOM
      1 P         -31.8820  -14.6330  -19.6500 P.3       1 CMP201      0.0000 
      2 O1P       -32.8500  -14.8700  -20.7820 O.co2     1 CMP201      0.0000 
      3 O2P       -32.4370  -14.4270  -18.2610 O.co2     1 CMP201      0.0000 
      4 O5'       -30.9960  -13.3320  -19.9750 O.3       1 CMP201      0.0000 
      5 C5'       -29.6570  -13.1860  -19.4900 C.3       1 CMP201      0.0000 
      6 C4'       -28.9210  -14.4940  -19.6380 C.3       1 CMP201      0.0000 
      7 O4'       -27.6250  -14.5130  -18.9940 O.3       1 CMP201      0.0000 
      8 C3'       -29.6260  -15.6470  -18.9870 C.3       1 CMP201      0.0000 
      9 O3'       -30.8560  -15.9190  -19.6230 O.3       1 CMP201      0.0000 
     10 C2'       -28.5400  -16.7150  -19.0010 C.3       1 CMP201      0.0000 
     11 O2'       -28.3380  -17.2550  -20.3100 O.3       1 CMP201      0.0000 
     12 C1'       -27.3170  -15.8510  -18.6370 C.3       1 CMP201      0.0000 
     13 N9        -27.0180  -15.8950  -17.1970 N.pl3     1 CMP201      0.0000 
     14 C8        -27.5570  -15.1090  -16.2500 C.2       1 CMP201      0.0000 
     15 N7        -27.0740  -15.4060  -15.0160 N.2       1 CMP201      0.0000 
     16 C5        -26.1950  -16.4110  -15.1560 C.ar      1 CMP201      0.0000 
     17 C6        -25.3280  -17.2040  -14.2480 C.ar      1 CMP201      0.0000 
     18 N6        -25.2930  -16.9790  -12.9080 N.pl3     1 CMP201      0.0000 
     19 N1        -24.5650  -18.1630  -14.8150 N.ar      1 CMP201      0.0000 
     20 C2        -24.5940  -18.3930  -16.1380 C.ar      1 CMP201      0.0000 
     21 N3        -25.3500  -17.7170  -17.0170 N.ar      1 CMP201      0.0000 
     22 C4        -26.1640  -16.7290  -16.5980 C.ar      1 CMP201      0.0000 
@<TRIPOS>BOND
     1    1    2 ar   
     2    1    3 ar   
     3    1    4 1    
     4    1    9 1    
     5    4    5 1    
     6    5    6 1    
     7    6    7 1    
     8    6    8 1    
     9    7   12 1    
    10    8    9 1    
    11    8   10 1    
    12   10   11 1    
    13   10   12 1    
    14   12   13 1    
    15   13   14 1    
    16   13   22 1    
    17   14   15 2    
    18   15   16 1    
    19   16   17 ar   
    20   16   22 ar   
    21   17   18 1    
    22   17   19 ar   
    23   19   20 ar   
    24   20   21 ar   
    25   21   22 ar   
@<TRIPOS>SUBSTRUCTURE
     1 CMP201      1 GROUP   
@<TRIPOS>SET
ATOM$ORANGE STATIC     ATOMS   COLORGROUP SYSTEM 
20 5 5 6 6 8 8 10 10 12 12 14 14 16 16 17 17 20 \
20 22 22 

