#    Name: 6mmq_1_CMP
#    Modification time : Fri May 22 19:28:44 2020

@<TRIPOS>MOLECULE
6mmq_1_CMP
   22    25     1     0     1
SMALL
NO_CHARGES


@<TRIPOS>ATOM
      1 P          -1.0870  -17.0150   -2.1300 P.3       1 CMP201      0.0000 
      2 O1P        -2.0970  -17.4480   -3.1610 O.co2     1 CMP201      0.0000 
      3 O2P         0.3820  -16.9040   -2.4480 O.co2     1 CMP201      0.0000 
      4 O5'        -1.1660  -18.0060   -0.8740 O.3       1 CMP201      0.0000 
      5 C5'        -0.8440  -17.5690    0.4460 C.3       1 CMP201      0.0000 
      6 C4'        -1.2980  -16.1440    0.6390 C.3       1 CMP201      0.0000 
      7 O4'        -0.7770  -15.5420    1.8450 O.3       1 CMP201      0.0000 
      8 C3'        -0.8270  -15.2040   -0.4340 C.3       1 CMP201      0.0000 
      9 O3'        -1.4680  -15.4900   -1.6540 O.3       1 CMP201      0.0000 
     10 C2'        -1.0920  -13.8430    0.2000 C.3       1 CMP201      0.0000 
     11 O2'        -2.4810  -13.5310    0.1800 O.3       1 CMP201      0.0000 
     12 C1'        -0.6840  -14.1340    1.6530 C.3       1 CMP201      0.0000 
     13 N9          0.6980  -13.7020    1.9390 N.pl3     1 CMP201      0.0000 
     14 C8          1.8230  -14.4410    1.7640 C.2       1 CMP201      0.0000 
     15 N7          2.9340  -13.7380    2.1180 N.2       1 CMP201      0.0000 
     16 C5          2.5270  -12.5170    2.5440 C.ar      1 CMP201      0.0000 
     17 C6          3.1690  -11.2730    3.0540 C.ar      1 CMP201      0.0000 
     18 N6          4.5170  -11.1450    3.2290 N.pl3     1 CMP201      0.0000 
     19 N1          2.3520  -10.2400    3.3720 N.ar      1 CMP201      0.0000 
     20 C2          1.0220  -10.3160    3.2300 C.ar      1 CMP201      0.0000 
     21 N3          0.3640  -11.3820    2.7680 N.ar      1 CMP201      0.0000 
     22 C4          1.0510  -12.5000    2.4130 C.ar      1 CMP201      0.0000 
@<TRIPOS>BOND
     1    1    2 ar   
     2    1    3 ar   
     3    1    4 1    
     4    1    9 1    
     5    4    5 1    
     6    5    6 1    
     7    6    7 1    
     8    6    8 1    
     9    7   12 1    
    10    8    9 1    
    11    8   10 1    
    12   10   11 1    
    13   10   12 1    
    14   12   13 1    
    15   13   14 1    
    16   13   22 1    
    17   14   15 2    
    18   15   16 1    
    19   16   17 ar   
    20   16   22 ar   
    21   17   18 1    
    22   17   19 ar   
    23   19   20 ar   
    24   20   21 ar   
    25   21   22 ar   
@<TRIPOS>SUBSTRUCTURE
     1 CMP201      1 GROUP   
@<TRIPOS>SET
ATOM$ORANGE STATIC     ATOMS   COLORGROUP SYSTEM 
20 5 5 6 6 8 8 10 10 12 12 14 14 16 16 17 17 20 \
20 22 22 

