#    Name: 6ecr_1_NAP
#    Modification time : Fri May 22 19:28:51 2020

@<TRIPOS>MOLECULE
6ecr_1_NAP
   48    52     1     0     1
SMALL
NO_CHARGES


@<TRIPOS>ATOM
      1 PA         -5.6790   47.4930   25.5000 P.3       1 NAP301      0.0000 
      2 O1A        -5.4150   46.5410   24.4150 O.co2     1 NAP301      0.0000 
      3 O2A        -7.0830   48.1120   25.9030 O.co2     1 NAP301      0.0000 
      4 O5B        -5.2980   46.5970   26.8180 O.3       1 NAP301      0.0000 
      5 C5B        -5.4360   47.1470   28.1420 C.3       1 NAP301      0.0000 
      6 C4B        -4.7820   46.1560   29.0780 C.3       1 NAP301      0.0000 
      7 O4B        -4.8680   46.6130   30.4480 O.3       1 NAP301      0.0000 
      8 C3B        -5.3770   44.7350   29.0410 C.3       1 NAP301      0.0000 
      9 O3B        -4.3990   43.7060   29.2120 O.3       1 NAP301      0.0000 
     10 C2B        -6.3850   44.8260   30.1810 C.3       1 NAP301      0.0000 
     11 O2B        -6.7510   43.5800   30.8110 O.3       1 NAP301      0.0000 
     12 C1B        -5.6050   45.6490   31.1910 C.3       1 NAP301      0.0000 
     13 N9A        -6.4590   46.3120   32.1640 N.pl3     1 NAP301      0.0000 
     14 C8A        -7.6430   46.9780   31.9470 C.2       1 NAP301      0.0000 
     15 N7A        -8.2510   47.3580   33.0440 N.2       1 NAP301      0.0000 
     16 C5A        -7.4140   46.9150   34.0540 C.ar      1 NAP301      0.0000 
     17 C6A        -7.5260   46.9300   35.4560 C.ar      1 NAP301      0.0000 
     18 N6A        -8.4890   47.5670   36.1100 N.pl3     1 NAP301      0.0000 
     19 N1A        -6.5540   46.3220   36.1710 N.ar      1 NAP301      0.0000 
     20 C2A        -5.5330   45.7700   35.5230 C.ar      1 NAP301      0.0000 
     21 N3A        -5.3070   45.7110   34.2080 N.ar      1 NAP301      0.0000 
     22 C4A        -6.2940   46.2860   33.5250 C.ar      1 NAP301      0.0000 
     23 O3         -4.6580   48.6850   25.3050 O.3       1 NAP301      0.0000 
     24 PN         -3.1590   48.8740   24.7530 P.3       1 NAP301      0.0000 
     25 O1N        -3.0780   48.9120   23.2710 O.co2     1 NAP301      0.0000 
     26 O2N        -2.1690   48.0170   25.4480 O.co2     1 NAP301      0.0000 
     27 O5D        -2.9470   50.3760   25.3250 O.3       1 NAP301      0.0000 
     28 C5D        -2.7230   50.6830   26.7300 C.3       1 NAP301      0.0000 
     29 C4D        -2.5070   52.1640   26.9780 C.3       1 NAP301      0.0000 
     30 O4D        -1.2570   52.5630   26.3630 O.3       1 NAP301      0.0000 
     31 C3D        -3.5860   53.0690   26.3570 C.3       1 NAP301      0.0000 
     32 O3D        -3.8550   54.2820   27.0620 O.3       1 NAP301      0.0000 
     33 C2D        -3.0030   53.3660   24.9710 C.3       1 NAP301      0.0000 
     34 O2D        -3.5530   54.5780   24.4750 O.3       1 NAP301      0.0000 
     35 C1D        -1.5060   53.4520   25.3010 C.3       1 NAP301      0.0000 
     36 N1N        -0.5990   53.0550   24.1010 N.pl3     1 NAP301      0.0000 
     37 C2N         0.1750   54.0550   23.6420 C.ar      1 NAP301      0.0000 
     38 C3N         0.8830   53.8990   22.4640 C.ar      1 NAP301      0.0000 
     39 C7N         1.9390   54.8780   22.0190 C.2       1 NAP301      0.0000 
     40 O7N         2.2960   54.8890   20.8160 O.2       1 NAP301      0.0000 
     41 N7N         2.3770   55.7760   22.8980 N.am      1 NAP301      0.0000 
     42 C4N         0.7470   52.6990   21.7610 C.ar      1 NAP301      0.0000 
     43 C5N        -0.0230   51.6740   22.2800 C.ar      1 NAP301      0.0000 
     44 C6N        -0.6790   51.8630   23.4750 C.ar      1 NAP301      0.0000 
     45 P2B        -7.3310   42.3760   29.9970 P.3       1 NAP301      0.0000 
     46 O1X        -7.7200   41.4750   31.0770 O.co2     1 NAP301      0.0000 
     47 O2X        -8.4290   42.8750   29.1030 O.co2     1 NAP301      0.0000 
     48 O3X        -6.2310   41.8090   29.1220 O.co2     1 NAP301      0.0000 
@<TRIPOS>BOND
     1    1    2 ar   
     2    1    3 ar   
     3    1    4 1    
     4    1   23 1    
     5    4    5 1    
     6    5    6 1    
     7    6    7 1    
     8    6    8 1    
     9    7   12 1    
    10    8    9 1    
    11    8   10 1    
    12   10   11 1    
    13   10   12 1    
    14   11   45 1    
    15   12   13 1    
    16   13   14 1    
    17   13   22 1    
    18   14   15 2    
    19   15   16 1    
    20   16   17 ar   
    21   16   22 ar   
    22   17   18 1    
    23   17   19 ar   
    24   19   20 ar   
    25   20   21 ar   
    26   21   22 ar   
    27   23   24 1    
    28   24   25 ar   
    29   24   26 ar   
    30   24   27 1    
    31   27   28 1    
    32   28   29 1    
    33   29   30 1    
    34   29   31 1    
    35   30   35 1    
    36   31   32 1    
    37   31   33 1    
    38   33   34 1    
    39   33   35 1    
    40   35   36 1    
    41   36   37 ar   
    42   36   44 ar   
    43   37   38 ar   
    44   38   39 1    
    45   38   42 ar   
    46   39   40 2    
    47   39   41 am   
    48   42   43 ar   
    49   43   44 ar   
    50   45   46 ar   
    51   45   47 ar   
    52   45   48 ar   
@<TRIPOS>SUBSTRUCTURE
     1 NAP301      1 GROUP   
@<TRIPOS>SET
ATOM$ORANGE STATIC     ATOMS   COLORGROUP SYSTEM 
42 5 5 6 6 8 8 10 10 12 12 14 14 16 16 17 17 20 \
20 22 22 28 28 29 29 31 31 33 33 35 35 37 37 38 38 39 \
39 42 42 43 43 44 44 

