#    Name: 6gs8_4_C2E_CAVITY_N1_12
#    Modification time : Fri May 22 19:28:47 2020

@<TRIPOS>MOLECULE
6gs8_4_C2E_CAVITY_N1_12
   95     0     5     0     0
SMALL
NO_CHARGES


@<TRIPOS>ATOM
      1 OG         51.9700   22.3200   -5.2000 O.3       1 SER1        0.0000 
      2 N          47.8400   24.7200   -7.7400 N.am      2 ALA2        0.0000 
      3 N          47.3700   26.1100   -7.4400 N.am      2 ALA2        0.0000 
      4 O          47.3600   22.7800   -7.0200 O.2       2 ALA2        0.0000 
      5 O          45.0000   23.0800   -4.6700 O.2       2 ALA2        0.0000 
      6 O          44.5300   24.4700   -4.3600 O.2       2 ALA2        0.0000 
      7 O          44.0500   22.5300   -3.6400 O.2       2 ALA2        0.0000 
      8 O          43.5800   23.9200   -3.3300 O.2       2 ALA2        0.0000 
      9 N          49.3700   23.4600   -7.0000 N.am      2 ALA2        0.0000 
     10 N          48.9000   24.8500   -6.6900 N.am      2 ALA2        0.0000 
     11 N          48.4300   26.2400   -6.3900 N.am      2 ALA2        0.0000 
     12 N          48.9000   21.5200   -6.2800 N.am      2 ALA2        0.0000 
     13 N          48.4300   22.9100   -5.9700 N.am      2 ALA2        0.0000 
     14 N          47.4900   25.6900   -5.3600 N.am      2 ALA2        0.0000 
     15 N          47.9500   20.9700   -5.2500 N.am      2 ALA2        0.0000 
     16 N          47.4800   22.3700   -4.9500 N.am      2 ALA2        0.0000 
     17 O          46.5400   25.1500   -4.3300 O.2       2 ALA2        0.0000 
     18 N          47.0000   20.4300   -4.2300 N.am      2 ALA2        0.0000 
     19 O          45.5900   24.6000   -3.3100 O.2       2 ALA2        0.0000 
     20 N          49.4900   23.0400   -4.9200 N.am      2 ALA2        0.0000 
     21 N          48.5400   22.4900   -3.9000 N.am      2 ALA2        0.0000 
     22 N          47.5900   21.9500   -2.8700 N.am      2 ALA2        0.0000 
     23 N          52.4400   20.9300   -5.5100 N.am      2 ALA2        0.0000 
     24 O          51.5000   23.7200   -4.9000 O.2       2 ALA2        0.0000 
     25 O          51.0300   25.1100   -4.5900 O.2       2 ALA2        0.0000 
     26 N          51.0200   21.7800   -4.1800 N.am      2 ALA2        0.0000 
     27 N          50.5500   23.1700   -3.8700 N.am      2 ALA2        0.0000 
     28 N          49.6000   22.6200   -2.8500 N.am      2 ALA2        0.0000 
     29 N          48.6600   22.0700   -1.8200 N.am      2 ALA2        0.0000 
     30 O          54.4500   18.2800   -5.0700 O.2       2 ALA2        0.0000 
     31 O          53.0300   19.1200   -3.7400 O.2       2 ALA2        0.0000 
     32 N          51.6100   19.9700   -2.4100 N.am      2 ALA2        0.0000 
     33 N          51.1400   21.3600   -2.1000 N.am      2 ALA2        0.0000 
     34 O          52.2100   24.8100   -1.4600 O.2       2 ALA2        0.0000 
     35 O          51.2600   24.2700   -0.4400 O.2       2 ALA2        0.0000 
     36 N          50.3100   23.7200    0.5900 N.am      2 ALA2        0.0000 
     37 N          49.8400   25.1100    0.8900 N.am      2 ALA2        0.0000 
     38 OD1        47.9600   27.6300   -6.0800 O.co2     3 ASP3        0.0000 
     39 OD1        47.4900   29.0200   -5.7700 O.co2     3 ASP3        0.0000 
     40 OD1        47.0100   27.0800   -5.0500 O.co2     3 ASP3        0.0000 
     41 OD1        46.5400   28.4800   -4.7500 O.co2     3 ASP3        0.0000 
     42 OD1        49.5000   26.3700   -5.3300 O.co2     3 ASP3        0.0000 
     43 OD1        48.5500   25.8200   -4.3100 O.co2     3 ASP3        0.0000 
     44 OD1        47.6000   25.2700   -3.2800 O.co2     3 ASP3        0.0000 
     45 OD1        47.1300   26.6700   -2.9800 O.co2     3 ASP3        0.0000 
     46 OD1        50.5600   26.5000   -4.2800 O.co2     3 ASP3        0.0000 
     47 OD1        49.6100   25.9500   -3.2600 O.co2     3 ASP3        0.0000 
     48 OD1        48.6600   25.4000   -2.2300 O.co2     3 ASP3        0.0000 
     49 OD1        48.1900   26.7900   -1.9300 O.co2     3 ASP3        0.0000 
     50 OD1        53.9800   19.6700   -4.7700 O.co2     3 ASP3        0.0000 
     51 OD1        53.5000   21.0600   -4.4600 O.co2     3 ASP3        0.0000 
     52 OD1        50.6700   26.0800   -2.2100 O.co2     3 ASP3        0.0000 
     53 OD1        49.7300   25.5300   -1.1800 O.co2     3 ASP3        0.0000 
     54 OD1        49.2600   26.9200   -0.8700 O.co2     3 ASP3        0.0000 
     55 CA         46.4200   22.2400   -6.0000 C.3       4 GLY6        0.0000 
     56 CA         45.9500   23.6300   -5.6900 C.3       4 GLY6        0.0000 
     57 CA         45.4700   21.6900   -4.9700 C.3       4 GLY6        0.0000 
     58 CA         49.3800   26.7900   -7.4100 C.3       4 GLY6        0.0000 
     59 CA         48.9100   28.1800   -7.1000 C.3       4 GLY6        0.0000 
     60 CA         47.9600   24.3000   -5.6700 C.3       4 GLY6        0.0000 
     61 CA         50.4400   26.9200   -6.3600 C.3       4 GLY6        0.0000 
     62 CA         50.9100   22.2000   -6.2600 C.3       4 GLY6        0.0000 
     63 CA         50.4400   23.5900   -5.9500 C.3       4 GLY6        0.0000 
     64 CA         49.9700   24.9800   -5.6400 C.3       4 GLY6        0.0000 
     65 CA         52.9100   19.5400   -5.8200 C.3       4 GLY6        0.0000 
     66 CA         53.0300   22.4500   -4.1500 C.3       4 GLY6        0.0000 
     67 CA         52.5600   23.8400   -3.8500 C.3       4 GLY6        0.0000 
     68 CA         52.0900   25.2300   -3.5400 C.3       4 GLY6        0.0000 
     69 CA         52.5600   20.5100   -3.4400 C.3       4 GLY6        0.0000 
     70 CA         52.0900   21.9100   -3.1300 C.3       4 GLY6        0.0000 
     71 CA         51.6200   23.3000   -2.8200 C.3       4 GLY6        0.0000 
     72 CA         50.6700   22.7500   -1.8000 C.3       4 GLY6        0.0000 
     73 CA         53.1600   25.3600   -2.4900 C.3       4 GLY6        0.0000 
     74 CA         51.7400   26.2100   -1.1600 C.3       4 GLY6        0.0000 
     75 CA         51.7300   22.8800   -0.7400 C.3       4 GLY6        0.0000 
     76 CA         50.7900   25.6600   -0.1300 C.3       4 GLY6        0.0000 
     77 CA         51.8400   22.4600    1.3300 C.3       4 GLY6        0.0000 
     78 DU         47.0100   23.7600   -4.6400 H         5 CUB7        0.0000 
     79 DU         46.0700   26.5400   -4.0300 H         5 CUB7        0.0000 
     80 DU         46.5300   21.8200   -3.9200 H         5 CUB7        0.0000 
     81 DU         46.0600   23.2100   -3.6200 H         5 CUB7        0.0000 
     82 DU         49.0200   24.4300   -4.6200 H         5 CUB7        0.0000 
     83 DU         48.0700   23.8800   -3.5900 H         5 CUB7        0.0000 
     84 DU         47.1200   23.3400   -2.5600 H         5 CUB7        0.0000 
     85 DU         46.6500   24.7300   -2.2600 H         5 CUB7        0.0000 
     86 DU         50.0800   24.5600   -3.5700 H         5 CUB7        0.0000 
     87 DU         49.1300   24.0100   -2.5400 H         5 CUB7        0.0000 
     88 DU         48.1900   23.4600   -1.5100 H         5 CUB7        0.0000 
     89 DU         47.7100   24.8600   -1.2100 H         5 CUB7        0.0000 
     90 DU         51.1400   24.6900   -2.5100 H         5 CUB7        0.0000 
     91 DU         50.2000   24.1400   -1.4900 H         5 CUB7        0.0000 
     92 DU         49.7200   22.2000   -0.7700 H         5 CUB7        0.0000 
     93 DU         49.2500   23.5900   -0.4600 H         5 CUB7        0.0000 
     94 DU         48.7800   24.9800   -0.1600 H         5 CUB7        0.0000 
     95 DU         48.3100   26.3700    0.1500 H         5 CUB7        0.0000 
@<TRIPOS>BOND
@<TRIPOS>SUBSTRUCTURE
     1 SER1        1 GROUP   
     2 ALA2        2 GROUP   
     3 ASP3       38 GROUP   
     4 GLY6       55 GROUP   
     5 CUB7       78 GROUP   
@<TRIPOS>SET

