#    Name: 6gs8_3_C2E_CAVITY_N1_4
#    Modification time : Fri May 22 19:28:37 2020

@<TRIPOS>MOLECULE
6gs8_3_C2E_CAVITY_N1_4
   26     0     3     0     0
SMALL
NO_CHARGES


@<TRIPOS>ATOM
      1 O          44.5300   24.4700   -4.3600 O.2       1 ALA2        0.0000 
      2 N          47.4900   25.6900   -5.3600 N.am      1 ALA2        0.0000 
      3 O          46.5400   25.1500   -4.3300 O.2       1 ALA2        0.0000 
      4 O          45.5900   24.6000   -3.3100 O.2       1 ALA2        0.0000 
      5 OD1        47.9600   27.6300   -6.0800 O.co2     2 ASP3        0.0000 
      6 OD1        47.4900   29.0200   -5.7700 O.co2     2 ASP3        0.0000 
      7 OD1        47.0100   27.0800   -5.0500 O.co2     2 ASP3        0.0000 
      8 OD1        46.5400   28.4800   -4.7500 O.co2     2 ASP3        0.0000 
      9 OD1        49.5000   26.3700   -5.3300 O.co2     2 ASP3        0.0000 
     10 OD1        48.5500   25.8200   -4.3100 O.co2     2 ASP3        0.0000 
     11 OD1        47.6000   25.2700   -3.2800 O.co2     2 ASP3        0.0000 
     12 OD1        47.1300   26.6700   -2.9800 O.co2     2 ASP3        0.0000 
     13 OD1        50.5600   26.5000   -4.2800 O.co2     2 ASP3        0.0000 
     14 OD1        49.6100   25.9500   -3.2600 O.co2     2 ASP3        0.0000 
     15 OD1        48.6600   25.4000   -2.2300 O.co2     2 ASP3        0.0000 
     16 OD1        48.1900   26.7900   -1.9300 O.co2     2 ASP3        0.0000 
     17 OD1        50.6700   26.0800   -2.2100 O.co2     2 ASP3        0.0000 
     18 OD1        49.7300   25.5300   -1.1800 O.co2     2 ASP3        0.0000 
     19 OD1        49.2600   26.9200   -0.8700 O.co2     2 ASP3        0.0000 
     20 DU         46.0700   26.5400   -4.0300 H         3 CUB7        0.0000 
     21 DU         48.0700   23.8800   -3.5900 H         3 CUB7        0.0000 
     22 DU         46.6500   24.7300   -2.2600 H         3 CUB7        0.0000 
     23 DU         49.1300   24.0100   -2.5400 H         3 CUB7        0.0000 
     24 DU         47.7100   24.8600   -1.2100 H         3 CUB7        0.0000 
     25 DU         48.7800   24.9800   -0.1600 H         3 CUB7        0.0000 
     26 DU         48.3100   26.3700    0.1500 H         3 CUB7        0.0000 
@<TRIPOS>BOND
@<TRIPOS>SUBSTRUCTURE
     1 ALA2        1 GROUP   
     2 ASP3        5 GROUP   
     3 CUB7       20 GROUP   
@<TRIPOS>SET

