#    Name: 6gs8_4_C2E
#    Modification time : Fri May 22 19:28:45 2020

@<TRIPOS>MOLECULE
6gs8_4_C2E
   46    52     1     0     0
SMALL
NO_CHARGES


@<TRIPOS>ATOM
      1 P1         45.4400   23.8740   -2.1640 P.3       1 C2E502      0.0000 
      2 O2P        44.5210   25.0580   -2.3520 O.co2     1 C2E502      0.0000 
      3 O1P        44.7620   22.5170   -2.1430 O.co2     1 C2E502      0.0000 
      4 O5'        46.6850   23.9980   -3.1760 O.3       1 C2E502      0.0000 
      5 C5'        47.5860   22.8510   -3.2190 C.3       1 C2E502      0.0000 
      6 C4'        48.8040   23.1650   -4.0440 C.3       1 C2E502      0.0000 
      7 O4'        48.3470   23.7140   -5.3040 O.3       1 C2E502      0.0000 
      8 C3'        49.7430   24.2140   -3.4530 C.3       1 C2E502      0.0000 
      9 O3'        50.6420   23.6430   -2.4610 O.3       1 C2E502      0.0000 
     10 C2'        50.3650   24.7900   -4.7340 C.3       1 C2E502      0.0000 
     11 O2'        51.3680   23.9690   -5.2800 O.3       1 C2E502      0.0000 
     12 C1'        49.2260   24.7210   -5.7450 C.3       1 C2E502      0.0000 
     13 N9         48.4880   25.9590   -5.8540 N.pl3     1 C2E502      0.0000 
     14 C8         47.1670   26.1980   -5.5540 C.2       1 C2E502      0.0000 
     15 N7         46.8020   27.4470   -5.7430 N.2       1 C2E502      0.0000 
     16 C5         47.9550   28.0590   -6.2260 C.2       1 C2E502      0.0000 
     17 C6         48.1710   29.4060   -6.6250 C.2       1 C2E502      0.0000 
     18 O6         47.3670   30.3540   -6.6560 O.2       1 C2E502      0.0000 
     19 N1         49.4820   29.5760   -7.0790 N.am      1 C2E502      0.0000 
     20 C2         50.4670   28.6070   -7.0890 C.2       1 C2E502      0.0000 
     21 N2         51.6700   29.0060   -7.5270 N.pl3     1 C2E502      0.0000 
     22 N3         50.2830   27.3410   -6.6890 N.2       1 C2E502      0.0000 
     23 C4         49.0010   27.1460   -6.2930 C.2       1 C2E502      0.0000 
     24 P11        51.1690   24.7030   -1.3490 P.3       1 C2E502      0.0000 
     25 O21        51.5110   25.9510   -2.1050 O.co2     1 C2E502      0.0000 
     26 O11        52.2980   24.2290   -0.4890 O.co2     1 C2E502      0.0000 
     27 O5A        49.9200   25.0420   -0.3720 O.3       1 C2E502      0.0000 
     28 C5A        49.1060   24.0800    0.3920 C.3       1 C2E502      0.0000 
     29 C4A        47.7590   24.6630    0.8050 C.3       1 C2E502      0.0000 
     30 O4A        47.8580   25.8970    1.5800 O.3       1 C2E502      0.0000 
     31 C3A        46.8350   25.0440   -0.3250 C.3       1 C2E502      0.0000 
     32 O3A        46.2700   23.8410   -0.7850 O.3       1 C2E502      0.0000 
     33 C2A        45.8370   25.9530    0.4080 C.3       1 C2E502      0.0000 
     34 O2A        44.9100   25.1570    1.1120 O.3       1 C2E502      0.0000 
     35 C1A        46.7420   26.7300    1.3520 C.3       1 C2E502      0.0000 
     36 N91        47.2300   28.0080    0.8480 N.pl3     1 C2E502      0.0000 
     37 C81        48.5130   28.3070    0.4620 C.2       1 C2E502      0.0000 
     38 N71        48.6940   29.5620    0.1080 N.2       1 C2E502      0.0000 
     39 C51        47.4480   30.1280    0.2950 C.2       1 C2E502      0.0000 
     40 C61        47.0380   31.4590    0.0910 C.2       1 C2E502      0.0000 
     41 O61        47.7060   32.4170   -0.3160 O.2       1 C2E502      0.0000 
     42 N11        45.6980   31.6290    0.4080 N.am      1 C2E502      0.0000 
     43 C21        44.8560   30.6420    0.8540 C.2       1 C2E502      0.0000 
     44 N21        43.6070   31.0140    1.1300 N.pl3     1 C2E502      0.0000 
     45 N31        45.2320   29.3730    1.0470 N.2       1 C2E502      0.0000 
     46 C41        46.5420   29.1890    0.7430 C.2       1 C2E502      0.0000 
@<TRIPOS>BOND
     1    1    2 ar   
     2    1    3 ar   
     3    1    4 1    
     4    1   32 1    
     5    4    5 1    
     6    5    6 1    
     7    6    7 1    
     8    6    8 1    
     9    7   12 1    
    10    8    9 1    
    11    8   10 1    
    12    9   24 1    
    13   10   11 1    
    14   10   12 1    
    15   12   13 1    
    16   13   14 1    
    17   13   23 1    
    18   14   15 2    
    19   15   16 1    
    20   16   17 1    
    21   16   23 2    
    22   17   18 2    
    23   17   19 am   
    24   19   20 1    
    25   20   21 1    
    26   20   22 2    
    27   22   23 1    
    28   24   25 ar   
    29   24   26 ar   
    30   24   27 1    
    31   27   28 1    
    32   28   29 1    
    33   29   30 1    
    34   29   31 1    
    35   30   35 1    
    36   31   32 1    
    37   31   33 1    
    38   33   34 1    
    39   33   35 1    
    40   35   36 1    
    41   36   37 1    
    42   36   46 1    
    43   37   38 2    
    44   38   39 1    
    45   39   40 1    
    46   39   46 2    
    47   40   41 2    
    48   40   42 am   
    49   42   43 1    
    50   43   44 1    
    51   43   45 2    
    52   45   46 1    
@<TRIPOS>SUBSTRUCTURE
     1 C2E502      1 GROUP   
@<TRIPOS>SET

