#    Name: 6gs8_6_C2E
#    Modification time : Fri May 22 19:28:57 2020

@<TRIPOS>MOLECULE
6gs8_6_C2E
   46    52     1     0     0
SMALL
NO_CHARGES


@<TRIPOS>ATOM
      1 P1         20.1420   18.5860   25.0310 P.3       1 C2E502      0.0000 
      2 O2P        19.7150   19.9600   24.5930 O.co2     1 C2E502      0.0000 
      3 O1P        20.0480   17.5240   23.9680 O.co2     1 C2E502      0.0000 
      4 O5'        21.6000   18.7090   25.6900 O.3       1 C2E502      0.0000 
      5 C5'        22.5970   17.6740   25.5910 C.3       1 C2E502      0.0000 
      6 C4'        23.6780   17.9190   26.6170 C.3       1 C2E502      0.0000 
      7 O4'        24.7000   18.7610   26.0080 O.3       1 C2E502      0.0000 
      8 C3'        23.2310   18.6680   27.8690 C.3       1 C2E502      0.0000 
      9 O3'        22.8940   17.8230   28.9550 O.3       1 C2E502      0.0000 
     10 C2'        24.5030   19.4180   28.2420 C.3       1 C2E502      0.0000 
     11 O2'        25.3640   18.5380   28.9210 O.3       1 C2E502      0.0000 
     12 C1'        25.0620   19.8200   26.8780 C.3       1 C2E502      0.0000 
     13 N9         24.5680   21.1270   26.4090 N.pl3     1 C2E502      0.0000 
     14 C8         23.5620   21.4180   25.5120 C.2       1 C2E502      0.0000 
     15 N7         23.3710   22.7050   25.3400 N.2       1 C2E502      0.0000 
     16 C5         24.3200   23.3090   26.1650 C.2       1 C2E502      0.0000 
     17 C6         24.6200   24.6770   26.3970 C.2       1 C2E502      0.0000 
     18 O6         24.1150   25.6990   25.9100 O.2       1 C2E502      0.0000 
     19 N1         25.6460   24.8170   27.3120 N.am      1 C2E502      0.0000 
     20 C2         26.3330   23.8050   27.9200 C.2       1 C2E502      0.0000 
     21 N2         27.3230   24.1580   28.7670 N.pl3     1 C2E502      0.0000 
     22 N3         26.0570   22.5250   27.7060 N.2       1 C2E502      0.0000 
     23 C4         25.0450   22.3490   26.8310 C.2       1 C2E502      0.0000 
     24 P11        22.1930   18.4990   30.2460 P.3       1 C2E502      0.0000 
     25 O21        22.8820   19.7500   30.7250 O.co2     1 C2E502      0.0000 
     26 O11        21.8740   17.4460   31.2630 O.co2     1 C2E502      0.0000 
     27 O5A        20.7360   18.8340   29.6720 O.3       1 C2E502      0.0000 
     28 C5A        19.8580   17.7560   29.3380 C.3       1 C2E502      0.0000 
     29 C4A        18.6930   18.3340   28.5830 C.3       1 C2E502      0.0000 
     30 O4A        18.1140   19.3990   29.3710 O.3       1 C2E502      0.0000 
     31 C3A        19.0620   19.0040   27.2780 C.3       1 C2E502      0.0000 
     32 O3A        19.2270   18.0570   26.2470 O.3       1 C2E502      0.0000 
     33 C2A        17.8890   19.9680   27.0800 C.3       1 C2E502      0.0000 
     34 O2A        16.7640   19.3850   26.4700 O.3       1 C2E502      0.0000 
     35 C1A        17.5520   20.3700   28.5140 C.3       1 C2E502      0.0000 
     36 N91        18.0100   21.6990   28.9290 N.pl3     1 C2E502      0.0000 
     37 C81        18.9690   22.0110   29.8580 C.2       1 C2E502      0.0000 
     38 N71        19.0740   23.2970   30.0970 N.2       1 C2E502      0.0000 
     39 C51        18.1090   23.8680   29.2840 C.2       1 C2E502      0.0000 
     40 C61        17.7490   25.2310   29.1210 C.2       1 C2E502      0.0000 
     41 O61        18.2300   26.2170   29.7020 O.2       1 C2E502      0.0000 
     42 N11        16.6940   25.3690   28.2160 N.am      1 C2E502      0.0000 
     43 C21        16.1130   24.3340   27.5160 C.2       1 C2E502      0.0000 
     44 N21        15.1160   24.6420   26.6750 N.pl3     1 C2E502      0.0000 
     45 N31        16.4360   23.0510   27.6840 N.2       1 C2E502      0.0000 
     46 C41        17.4440   22.8960   28.5700 C.2       1 C2E502      0.0000 
@<TRIPOS>BOND
     1    1    2 ar   
     2    1    3 ar   
     3    1    4 1    
     4    1   32 1    
     5    4    5 1    
     6    5    6 1    
     7    6    7 1    
     8    6    8 1    
     9    7   12 1    
    10    8    9 1    
    11    8   10 1    
    12    9   24 1    
    13   10   11 1    
    14   10   12 1    
    15   12   13 1    
    16   13   14 1    
    17   13   23 1    
    18   14   15 2    
    19   15   16 1    
    20   16   17 1    
    21   16   23 2    
    22   17   18 2    
    23   17   19 am   
    24   19   20 1    
    25   20   21 1    
    26   20   22 2    
    27   22   23 1    
    28   24   25 ar   
    29   24   26 ar   
    30   24   27 1    
    31   27   28 1    
    32   28   29 1    
    33   29   30 1    
    34   29   31 1    
    35   30   35 1    
    36   31   32 1    
    37   31   33 1    
    38   33   34 1    
    39   33   35 1    
    40   35   36 1    
    41   36   37 1    
    42   36   46 1    
    43   37   38 2    
    44   38   39 1    
    45   39   40 1    
    46   39   46 2    
    47   40   41 2    
    48   40   42 am   
    49   42   43 1    
    50   43   44 1    
    51   43   45 2    
    52   45   46 1    
@<TRIPOS>SUBSTRUCTURE
     1 C2E502      1 GROUP   
@<TRIPOS>SET

