#    Name: 6gs8_1_C2E_CAVITY_N1_4
#    Modification time : Fri May 22 19:28:15 2020

@<TRIPOS>MOLECULE
6gs8_1_C2E_CAVITY_N1_4
   34     0     6     0     0
SMALL
NO_CHARGES


@<TRIPOS>ATOM
      1 OG         32.3100   35.7200  -44.7600 O.3       1 SER1        0.0000 
      2 OG         33.3700   35.8500  -43.7100 O.3       1 SER1        0.0000 
      3 OG         32.4200   35.3000  -42.6800 O.3       1 SER1        0.0000 
      4 O          32.6600   34.7500  -47.1400 O.2       2 ALA2        0.0000 
      5 N          36.8000   35.6800  -45.0100 N.am      2 ALA2        0.0000 
      6 OD1        31.7100   34.2000  -46.1200 O.co2     3 ASP3        0.0000 
      7 OD1        33.2500   32.9400  -45.3700 O.co2     3 ASP3        0.0000 
      8 OD1        32.7800   34.3300  -45.0700 O.co2     3 ASP3        0.0000 
      9 OD1        31.8300   33.7800  -44.0400 O.co2     3 ASP3        0.0000 
     10 OD1        31.8100   27.1300  -43.2200 O.co2     3 ASP3        0.0000 
     11 OD1        34.3000   29.7400  -43.9100 O.co2     3 ASP3        0.0000 
     12 OD1        33.8300   31.1300  -43.6000 O.co2     3 ASP3        0.0000 
     13 OD1        33.3600   32.5200  -43.3000 O.co2     3 ASP3        0.0000 
     14 OD1        32.8900   33.9100  -42.9900 O.co2     3 ASP3        0.0000 
     15 OD1        33.8300   27.8000  -43.1900 O.co2     3 ASP3        0.0000 
     16 OD1        33.3600   29.1900  -42.8800 O.co2     3 ASP3        0.0000 
     17 OD1        32.8800   30.5800  -42.5800 O.co2     3 ASP3        0.0000 
     18 OD1        31.9400   33.3700  -41.9600 O.co2     3 ASP3        0.0000 
     19 OD1        32.8800   27.2500  -42.1700 O.co2     3 ASP3        0.0000 
     20 OD1        32.4100   28.6500  -41.8600 O.co2     3 ASP3        0.0000 
     21 OD1        33.9400   27.3800  -41.1100 O.co2     3 ASP3        0.0000 
     22 OD1        37.8600   35.8100  -43.9600 O.co2     3 ASP3        0.0000 
     23 NZ         33.2400   29.6100  -44.9600 N.4       4 LYS4        0.0000 
     24 NZ         32.2900   29.0700  -43.9300 N.4       4 LYS4        0.0000 
     25 NZ         34.7900   35.0100  -45.0400 N.4       4 LYS4        0.0000 
     26 NZ         34.7800   31.6800  -44.6300 N.4       4 LYS4        0.0000 
     27 NZ         34.3100   33.0700  -44.3200 N.4       4 LYS4        0.0000 
     28 NZ         36.3200   33.7400  -44.3000 N.4       4 LYS4        0.0000 
     29 NZ         35.8500   35.1300  -43.9900 N.4       4 LYS4        0.0000 
     30 NZ         35.8400   31.8100  -43.5800 N.4       4 LYS4        0.0000 
     31 CA         34.2000   33.4900  -46.4000 C.3       5 GLY6        0.0000 
     32 CA         33.7200   34.8800  -46.0900 C.3       5 GLY6        0.0000 
     33 CA         33.7200   31.5500  -45.6800 C.3       5 GLY6        0.0000 
     34 DU         33.8400   34.4600  -44.0100 H         6 CUB7        0.0000 
@<TRIPOS>BOND
@<TRIPOS>SUBSTRUCTURE
     1 SER1        1 GROUP   
     2 ALA2        4 GROUP   
     3 ASP3        6 GROUP   
     4 LYS4       23 GROUP   
     5 GLY6       31 GROUP   
     6 CUB7       34 GROUP   
@<TRIPOS>SET

