#    Name: 6gs8_2_C2E
#    Modification time : Fri May 22 19:28:24 2020

@<TRIPOS>MOLECULE
6gs8_2_C2E
   46    52     1     0     0
SMALL
NO_CHARGES


@<TRIPOS>ATOM
      1 P1         33.1390   20.3480  -38.5550 P.3       1 C2E403      0.0000 
      2 O2P        32.7280   21.7010  -38.0690 O.co2     1 C2E403      0.0000 
      3 O1P        32.7200   19.0120  -37.9690 O.co2     1 C2E403      0.0000 
      4 O5'        32.8620   20.3120  -40.1250 O.3       1 C2E403      0.0000 
      5 C5'        33.1250   19.0580  -40.7740 C.3       1 C2E403      0.0000 
      6 C4'        32.9830   19.2270  -42.2610 C.3       1 C2E403      0.0000 
      7 O4'        31.6790   19.7740  -42.5600 O.3       1 C2E403      0.0000 
      8 C3'        33.9740   20.1870  -42.8700 C.3       1 C2E403      0.0000 
      9 O3'        35.1930   19.5420  -43.1660 O.3       1 C2E403      0.0000 
     10 C2'        33.2460   20.5790  -44.1450 C.3       1 C2E403      0.0000 
     11 O2'        33.3750   19.6240  -45.1770 O.3       1 C2E403      0.0000 
     12 C1'        31.8120   20.6870  -43.6330 C.3       1 C2E403      0.0000 
     13 N9         31.4770   22.0340  -43.1820 N.pl3     1 C2E403      0.0000 
     14 C8         31.1960   22.4350  -41.9010 C.2       1 C2E403      0.0000 
     15 N7         30.8960   23.7050  -41.7990 N.2       1 C2E403      0.0000 
     16 C5         30.9420   24.1660  -43.1100 C.2       1 C2E403      0.0000 
     17 C6         30.7310   25.4720  -43.6230 C.2       1 C2E403      0.0000 
     18 O6         30.4220   26.5020  -43.0090 O.2       1 C2E403      0.0000 
     19 N1         30.8840   25.5010  -45.0010 N.am      1 C2E403      0.0000 
     20 C2         31.1900   24.4160  -45.7820 C.2       1 C2E403      0.0000 
     21 N2         31.3070   24.6440  -47.0880 N.pl3     1 C2E403      0.0000 
     22 N3         31.4530   23.1970  -45.3040 N.2       1 C2E403      0.0000 
     23 C4         31.3040   23.1440  -43.9630 C.2       1 C2E403      0.0000 
     24 P11        36.5090   20.4780  -43.1310 P.3       1 C2E403      0.0000 
     25 O21        36.3080   21.5790  -44.1210 O.co2     1 C2E403      0.0000 
     26 O11        37.8000   19.7100  -43.1810 O.co2     1 C2E403      0.0000 
     27 O5A        36.3830   20.8940  -41.5930 O.3       1 C2E403      0.0000 
     28 C5A        36.9710   20.0930  -40.5460 C.3       1 C2E403      0.0000 
     29 C4A        36.8330   20.8190  -39.2290 C.3       1 C2E403      0.0000 
     30 O4A        37.7080   21.9800  -39.1680 O.3       1 C2E403      0.0000 
     31 C3A        35.4450   21.3620  -38.9570 C.3       1 C2E403      0.0000 
     32 O3A        34.7250   20.2850  -38.4730 O.3       1 C2E403      0.0000 
     33 C2A        35.7510   22.4260  -37.9160 C.3       1 C2E403      0.0000 
     34 O2A        36.0500   21.8870  -36.6580 O.3       1 C2E403      0.0000 
     35 C1A        37.0620   22.9990  -38.4370 C.3       1 C2E403      0.0000 
     36 N91        36.9190   24.1570  -39.2950 N.pl3     1 C2E403      0.0000 
     37 C81        37.2020   24.2290  -40.6260 C.2       1 C2E403      0.0000 
     38 N71        37.0830   25.4330  -41.1160 N.2       1 C2E403      0.0000 
     39 C51        36.7160   26.1980  -40.0240 C.2       1 C2E403      0.0000 
     40 C61        36.4560   27.5850  -39.9370 C.2       1 C2E403      0.0000 
     41 O61        36.5190   28.4410  -40.8360 O.2       1 C2E403      0.0000 
     42 N11        36.1470   27.9490  -38.6250 N.am      1 C2E403      0.0000 
     43 C21        36.0670   27.0880  -37.5660 C.2       1 C2E403      0.0000 
     44 N21        35.7540   27.6210  -36.3900 N.pl3     1 C2E403      0.0000 
     45 N31        36.3240   25.7890  -37.6440 N.2       1 C2E403      0.0000 
     46 C41        36.6250   25.4200  -38.8990 C.2       1 C2E403      0.0000 
@<TRIPOS>BOND
     1    1    2 ar   
     2    1    3 ar   
     3    1    4 1    
     4    1   32 1    
     5    4    5 1    
     6    5    6 1    
     7    6    7 1    
     8    6    8 1    
     9    7   12 1    
    10    8    9 1    
    11    8   10 1    
    12    9   24 1    
    13   10   11 1    
    14   10   12 1    
    15   12   13 1    
    16   13   14 1    
    17   13   23 1    
    18   14   15 2    
    19   15   16 1    
    20   16   17 1    
    21   16   23 2    
    22   17   18 2    
    23   17   19 am   
    24   19   20 1    
    25   20   21 1    
    26   20   22 2    
    27   22   23 1    
    28   24   25 ar   
    29   24   26 ar   
    30   24   27 1    
    31   27   28 1    
    32   28   29 1    
    33   29   30 1    
    34   29   31 1    
    35   30   35 1    
    36   31   32 1    
    37   31   33 1    
    38   33   34 1    
    39   33   35 1    
    40   35   36 1    
    41   36   37 1    
    42   36   46 1    
    43   37   38 2    
    44   38   39 1    
    45   39   40 1    
    46   39   46 2    
    47   40   41 2    
    48   40   42 am   
    49   42   43 1    
    50   43   44 1    
    51   43   45 2    
    52   45   46 1    
@<TRIPOS>SUBSTRUCTURE
     1 C2E403      1 GROUP   
@<TRIPOS>SET

