#    Name: 6gs8_2_C2E_CAVITY_N1_8
#    Modification time : Fri May 22 19:28:26 2020

@<TRIPOS>MOLECULE
6gs8_2_C2E_CAVITY_N1_8
   77     0     5     0     0
SMALL
NO_CHARGES


@<TRIPOS>ATOM
      1 N          33.9300   14.3500  -48.0800 N.am      1 ALA2        0.0000 
      2 O          34.9900   17.8100  -47.4400 O.2       1 ALA2        0.0000 
      3 O          34.0500   17.2600  -46.4200 O.2       1 ALA2        0.0000 
      4 O          33.5800   18.6500  -46.1100 O.2       1 ALA2        0.0000 
      5 O          32.6300   21.4400  -45.4900 O.2       1 ALA2        0.0000 
      6 N          33.1000   16.7200  -45.3900 N.am      1 ALA2        0.0000 
      7 O          32.1600   19.5000  -44.7800 O.2       1 ALA2        0.0000 
      8 N          31.2200   22.2800  -44.1600 N.am      1 ALA2        0.0000 
      9 N          31.6800   17.5600  -44.0600 N.am      1 ALA2        0.0000 
     10 N          30.7400   20.3400  -43.4400 N.am      1 ALA2        0.0000 
     11 N          30.2700   21.7300  -43.1400 N.am      1 ALA2        0.0000 
     12 N          29.8000   23.1200  -42.8300 N.am      1 ALA2        0.0000 
     13 N          37.0100   18.4900  -47.4200 N.am      1 ALA2        0.0000 
     14 N          33.6900   18.2400  -44.0300 N.am      1 ALA2        0.0000 
     15 N          32.7400   17.6900  -43.0100 N.am      1 ALA2        0.0000 
     16 N          31.3300   21.8600  -42.0900 N.am      1 ALA2        0.0000 
     17 N          30.8600   23.2500  -41.7800 N.am      1 ALA2        0.0000 
     18 N          31.3200   18.5300  -41.6700 N.am      1 ALA2        0.0000 
     19 O          30.3800   21.3100  -41.0600 O.2       1 ALA2        0.0000 
     20 O          37.6000   20.0000  -46.0600 O.2       1 ALA2        0.0000 
     21 O          36.6500   19.4600  -45.0300 O.2       1 ALA2        0.0000 
     22 N          35.2200   16.9700  -43.2900 N.am      1 ALA2        0.0000 
     23 N          34.7500   18.3600  -42.9800 N.am      1 ALA2        0.0000 
     24 N          32.8600   17.2700  -40.9300 N.am      1 ALA2        0.0000 
     25 O          37.7100   19.5900  -43.9800 O.2       1 ALA2        0.0000 
     26 O          36.7600   19.0400  -42.9600 O.2       1 ALA2        0.0000 
     27 OD1        34.9900   14.4800  -47.0300 O.co2     2 ASP3        0.0000 
     28 OD1        34.5200   15.8700  -46.7200 O.co2     2 ASP3        0.0000 
     29 OD1        32.1600   22.8300  -45.1900 O.co2     2 ASP3        0.0000 
     30 OD1        30.2700   25.0600  -43.5500 O.co2     2 ASP3        0.0000 
     31 OD1        37.9500   15.7000  -48.0300 O.co2     2 ASP3        0.0000 
     32 OD1        36.5300   16.5500  -46.7000 O.co2     2 ASP3        0.0000 
     33 OD1        35.1100   17.3900  -45.3600 O.co2     2 ASP3        0.0000 
     34 OD1        33.7000   21.5600  -44.4400 O.co2     2 ASP3        0.0000 
     35 OD1        32.7500   21.0200  -43.4200 O.co2     2 ASP3        0.0000 
     36 OD1        32.2800   22.4100  -43.1100 O.co2     2 ASP3        0.0000 
     37 OD1        31.8100   23.8000  -42.8000 O.co2     2 ASP3        0.0000 
     38 OD1        31.3400   25.1900  -42.5000 O.co2     2 ASP3        0.0000 
     39 OD1        30.8700   26.5800  -42.1900 O.co2     2 ASP3        0.0000 
     40 OD1        30.3900   24.6400  -41.4700 O.co2     2 ASP3        0.0000 
     41 OD1        36.1800   20.8500  -44.7300 O.co2     2 ASP3        0.0000 
     42 OD1        36.1700   17.5200  -44.3100 O.co2     2 ASP3        0.0000 
     43 OD1        35.2300   20.3000  -43.7000 O.co2     2 ASP3        0.0000 
     44 OD1        34.7600   21.6900  -43.3900 O.co2     2 ASP3        0.0000 
     45 OD1        33.8100   21.1400  -42.3700 O.co2     2 ASP3        0.0000 
     46 OD1        32.4000   25.3200  -41.4500 O.co2     2 ASP3        0.0000 
     47 OD1        32.3900   21.9900  -41.0400 O.co2     2 ASP3        0.0000 
     48 OD1        35.8200   21.8200  -42.3400 O.co2     2 ASP3        0.0000 
     49 OD1        34.4000   22.6600  -41.0100 O.co2     2 ASP3        0.0000 
     50 NZ         32.5100   15.2000  -46.7500 N.4       3 LYS4        0.0000 
     51 NZ         32.0400   16.5900  -46.4400 N.4       3 LYS4        0.0000 
     52 CA         34.8700   14.9000  -49.1100 C.3       4 GLY6        0.0000 
     53 CA         33.4500   15.7500  -47.7700 C.3       4 GLY6        0.0000 
     54 CA         32.9800   13.8100  -47.0500 C.3       4 GLY6        0.0000 
     55 CA         36.4100   16.9700  -48.7700 C.3       4 GLY6        0.0000 
     56 CA         35.4700   16.4200  -47.7500 C.3       4 GLY6        0.0000 
     57 CA         31.6900   20.8900  -44.4700 C.3       4 GLY6        0.0000 
     58 CA         30.7500   23.6700  -43.8600 C.3       4 GLY6        0.0000 
     59 CA         31.2100   18.9500  -43.7500 C.3       4 GLY6        0.0000 
     60 CA         29.7900   19.7900  -42.4200 C.3       4 GLY6        0.0000 
     61 CA         37.4800   17.1000  -47.7200 C.3       4 GLY6        0.0000 
     62 CA         36.0600   17.9400  -46.3900 C.3       4 GLY6        0.0000 
     63 CA         35.5900   19.3300  -46.0800 C.3       4 GLY6        0.0000 
     64 CA         34.6400   18.7800  -45.0600 C.3       4 GLY6        0.0000 
     65 CA         34.1700   20.1700  -44.7500 C.3       4 GLY6        0.0000 
     66 CA         30.8500   19.9200  -41.3700 C.3       4 GLY6        0.0000 
     67 CA         37.1200   18.0700  -45.3400 C.3       4 GLY6        0.0000 
     68 CA         37.2400   17.6500  -43.2600 C.3       4 GLY6        0.0000 
     69 DU         33.2200   19.6300  -43.7300 H         5 CUB7        0.0000 
     70 DU         32.2700   19.0800  -42.7000 H         5 CUB7        0.0000 
     71 DU         31.8000   20.4700  -42.3900 H         5 CUB7        0.0000 
     72 DU         35.7000   18.9100  -44.0100 H         5 CUB7        0.0000 
     73 DU         34.2800   19.7500  -42.6700 H         5 CUB7        0.0000 
     74 DU         33.3300   19.2100  -41.6500 H         5 CUB7        0.0000 
     75 DU         32.8600   20.6000  -41.3400 H         5 CUB7        0.0000 
     76 DU         31.9200   20.0500  -40.3200 H         5 CUB7        0.0000 
     77 DU         36.2900   20.4300  -42.6500 H         5 CUB7        0.0000 
@<TRIPOS>BOND
@<TRIPOS>SUBSTRUCTURE
     1 ALA2        1 GROUP   
     2 ASP3       27 GROUP   
     3 LYS4       50 GROUP   
     4 GLY6       52 GROUP   
     5 CUB7       69 GROUP   
@<TRIPOS>SET

