#    Name: 6gs8_1_C2E
#    Modification time : Fri May 22 19:28:13 2020

@<TRIPOS>MOLECULE
6gs8_1_C2E
   46    52     1     0     0
SMALL
NO_CHARGES


@<TRIPOS>ATOM
      1 P1         34.4950   31.6420  -43.7420 P.3       1 C2E402      0.0000 
      2 O2P        35.1530   30.5850  -44.5670 O.co2     1 C2E402      0.0000 
      3 O1P        33.4330   32.4930  -44.3630 O.co2     1 C2E402      0.0000 
      4 O5'        33.8830   31.0030  -42.4190 O.3       1 C2E402      0.0000 
      5 C5'        33.0740   31.9810  -41.7200 C.3       1 C2E402      0.0000 
      6 C4'        32.7820   31.4900  -40.3250 C.3       1 C2E402      0.0000 
      7 O4'        31.9290   30.3270  -40.4110 O.3       1 C2E402      0.0000 
      8 C3'        33.9840   31.0030  -39.5550 C.3       1 C2E402      0.0000 
      9 O3'        34.5580   32.0830  -38.8920 O.3       1 C2E402      0.0000 
     10 C2'        33.3390   30.0570  -38.5590 C.3       1 C2E402      0.0000 
     11 O2'        32.8520   30.7910  -37.4660 O.3       1 C2E402      0.0000 
     12 C1'        32.2540   29.3990  -39.4040 C.3       1 C2E402      0.0000 
     13 N9         32.6940   28.1730  -40.0490 N.pl3     1 C2E402      0.0000 
     14 C8         33.2180   28.0380  -41.3130 C.2       1 C2E402      0.0000 
     15 N7         33.5690   26.8070  -41.6070 N.2       1 C2E402      0.0000 
     16 C5         33.2590   26.0910  -40.4570 C.2       1 C2E402      0.0000 
     17 C6         33.3930   24.7080  -40.1700 C.2       1 C2E402      0.0000 
     18 O6         33.8380   23.8000  -40.8670 O.2       1 C2E402      0.0000 
     19 N1         32.9410   24.3930  -38.9070 N.am      1 C2E402      0.0000 
     20 C2         32.4430   25.2850  -38.0060 C.2       1 C2E402      0.0000 
     21 N2         32.0990   24.7510  -36.8320 N.pl3     1 C2E402      0.0000 
     22 N3         32.2970   26.5900  -38.2530 N.2       1 C2E402      0.0000 
     23 C4         32.7220   26.9210  -39.4940 C.2       1 C2E402      0.0000 
     24 P11        35.9720   31.8860  -38.1870 P.3       1 C2E402      0.0000 
     25 O21        36.0670   30.5050  -37.6180 O.co2     1 C2E402      0.0000 
     26 O11        36.2200   33.0670  -37.2970 O.co2     1 C2E402      0.0000 
     27 O5A        36.9220   32.0390  -39.4640 O.3       1 C2E402      0.0000 
     28 C5A        36.6930   33.1800  -40.2890 C.3       1 C2E402      0.0000 
     29 C4A        37.3850   32.9520  -41.6010 C.3       1 C2E402      0.0000 
     30 O4A        38.7670   32.5450  -41.3860 O.3       1 C2E402      0.0000 
     31 C3A        36.7570   31.8620  -42.4700 C.3       1 C2E402      0.0000 
     32 O3A        35.7440   32.4940  -43.2320 O.3       1 C2E402      0.0000 
     33 C2A        37.9500   31.4330  -43.3100 C.3       1 C2E402      0.0000 
     34 O2A        38.1660   32.3590  -44.3470 O.3       1 C2E402      0.0000 
     35 C1A        39.1250   31.5570  -42.3380 C.3       1 C2E402      0.0000 
     36 N91        39.4320   30.3060  -41.6530 N.pl3     1 C2E402      0.0000 
     37 C81        39.0840   29.9540  -40.3710 C.2       1 C2E402      0.0000 
     38 N71        39.4760   28.7520  -40.0400 N.2       1 C2E402      0.0000 
     39 C51        40.0870   28.2650  -41.1970 C.2       1 C2E402      0.0000 
     40 C61        40.6830   27.0010  -41.4620 C.2       1 C2E402      0.0000 
     41 O61        40.8190   26.0190  -40.7210 O.2       1 C2E402      0.0000 
     42 N11        41.1310   26.9200  -42.7610 N.am      1 C2E402      0.0000 
     43 C21        41.0590   27.9110  -43.6930 C.2       1 C2E402      0.0000 
     44 N21        41.6040   27.6190  -44.8860 N.pl3     1 C2E402      0.0000 
     45 N31        40.5240   29.1100  -43.4520 N.2       1 C2E402      0.0000 
     46 C41        40.0580   29.2120  -42.1910 C.2       1 C2E402      0.0000 
@<TRIPOS>BOND
     1    1    2 ar   
     2    1    3 ar   
     3    1    4 1    
     4    1   32 1    
     5    4    5 1    
     6    5    6 1    
     7    6    7 1    
     8    6    8 1    
     9    7   12 1    
    10    8    9 1    
    11    8   10 1    
    12    9   24 1    
    13   10   11 1    
    14   10   12 1    
    15   12   13 1    
    16   13   14 1    
    17   13   23 1    
    18   14   15 2    
    19   15   16 1    
    20   16   17 1    
    21   16   23 2    
    22   17   18 2    
    23   17   19 am   
    24   19   20 1    
    25   20   21 1    
    26   20   22 2    
    27   22   23 1    
    28   24   25 ar   
    29   24   26 ar   
    30   24   27 1    
    31   27   28 1    
    32   28   29 1    
    33   29   30 1    
    34   29   31 1    
    35   30   35 1    
    36   31   32 1    
    37   31   33 1    
    38   33   34 1    
    39   33   35 1    
    40   35   36 1    
    41   36   37 1    
    42   36   46 1    
    43   37   38 2    
    44   38   39 1    
    45   39   40 1    
    46   39   46 2    
    47   40   41 2    
    48   40   42 am   
    49   42   43 1    
    50   43   44 1    
    51   43   45 2    
    52   45   46 1    
@<TRIPOS>SUBSTRUCTURE
     1 C2E402      1 GROUP   
@<TRIPOS>SET

