#    Name: 6gs8_10_C2E
#    Modification time : Fri May 22 19:29:29 2020

@<TRIPOS>MOLECULE
6gs8_10_C2E
   46    52     1     0     0
SMALL
NO_CHARGES


@<TRIPOS>ATOM
      1 P1        -32.7210   19.5610  -18.6540 P.3       1 C2E502      0.0000 
      2 O2P       -32.1200   20.9060  -18.3410 O.co2     1 C2E502      0.0000 
      3 O1P       -31.9800   18.2880  -18.3750 O.co2     1 C2E502      0.0000 
      4 O5'       -34.0170   19.4860  -17.7070 O.3       1 C2E502      0.0000 
      5 C5'       -35.0370   18.4780  -17.8010 C.3       1 C2E502      0.0000 
      6 C4'       -36.2540   18.9500  -17.0420 C.3       1 C2E502      0.0000 
      7 O4'       -35.8890   19.3950  -15.7060 O.3       1 C2E502      0.0000 
      8 C3'       -36.9580   20.1450  -17.6680 C.3       1 C2E502      0.0000 
      9 O3'       -37.8670   19.6710  -18.6290 O.3       1 C2E502      0.0000 
     10 C2'       -37.6820   20.7400  -16.4710 C.3       1 C2E502      0.0000 
     11 O2'       -38.8690   20.0030  -16.2880 O.3       1 C2E502      0.0000 
     12 C1'       -36.6590   20.5330  -15.3570 C.3       1 C2E502      0.0000 
     13 N9        -35.7830   21.6830  -15.1750 N.pl3     1 C2E502      0.0000 
     14 C8        -34.4620   21.8120  -15.5020 C.2       1 C2E502      0.0000 
     15 N7        -33.9670   22.9920  -15.1860 N.2       1 C2E502      0.0000 
     16 C5        -35.0180   23.6840  -14.6130 C.2       1 C2E502      0.0000 
     17 C6        -35.0870   24.9990  -14.0910 C.2       1 C2E502      0.0000 
     18 O6        -34.2060   25.8720  -13.9820 O.2       1 C2E502      0.0000 
     19 N1        -36.3770   25.2910  -13.6650 N.am      1 C2E502      0.0000 
     20 C2        -37.4450   24.4330  -13.6690 C.2       1 C2E502      0.0000 
     21 N2        -38.5820   24.8940  -13.1260 N.pl3     1 C2E502      0.0000 
     22 N3        -37.3810   23.1840  -14.1360 N.2       1 C2E502      0.0000 
     23 C4        -36.1430   22.8810  -14.6010 C.2       1 C2E502      0.0000 
     24 P11       -38.2870   20.7230  -19.7740 P.3       1 C2E502      0.0000 
     25 O21       -38.8370   21.9740  -19.1590 O.co2     1 C2E502      0.0000 
     26 O11       -39.0840   19.9650  -20.8150 O.co2     1 C2E502      0.0000 
     27 O5A       -36.9160   21.0880  -20.5400 O.3       1 C2E502      0.0000 
     28 C5A       -36.2100   20.0340  -21.2340 C.3       1 C2E502      0.0000 
     29 C4A       -34.8670   20.5440  -21.6890 C.3       1 C2E502      0.0000 
     30 O4A       -35.0000   21.8420  -22.3100 O.3       1 C2E502      0.0000 
     31 C3A       -33.8570   20.7770  -20.5930 C.3       1 C2E502      0.0000 
     32 O3A       -33.2830   19.5250  -20.1680 O.3       1 C2E502      0.0000 
     33 C2A       -32.8760   21.7050  -21.3170 C.3       1 C2E502      0.0000 
     34 O2A       -32.0150   21.0750  -22.2310 O.3       1 C2E502      0.0000 
     35 C1A       -33.8090   22.5790  -22.1260 C.3       1 C2E502      0.0000 
     36 N91       -34.1500   23.8600  -21.5200 N.pl3     1 C2E502      0.0000 
     37 C81       -35.4100   24.2280  -21.1160 C.2       1 C2E502      0.0000 
     38 N71       -35.4920   25.4740  -20.7320 N.2       1 C2E502      0.0000 
     39 C51       -34.2170   25.9660  -20.9180 C.2       1 C2E502      0.0000 
     40 C61       -33.7400   27.2720  -20.6900 C.2       1 C2E502      0.0000 
     41 O61       -34.3980   28.2710  -20.3620 O.2       1 C2E502      0.0000 
     42 N11       -32.3950   27.3810  -21.0440 N.am      1 C2E502      0.0000 
     43 C21       -31.6140   26.3440  -21.4990 C.2       1 C2E502      0.0000 
     44 N21       -30.3360   26.6500  -21.7530 N.pl3     1 C2E502      0.0000 
     45 N31       -32.0620   25.0990  -21.7180 N.2       1 C2E502      0.0000 
     46 C41       -33.3760   24.9910  -21.4070 C.2       1 C2E502      0.0000 
@<TRIPOS>BOND
     1    1    2 ar   
     2    1    3 ar   
     3    1    4 1    
     4    1   32 1    
     5    4    5 1    
     6    5    6 1    
     7    6    7 1    
     8    6    8 1    
     9    7   12 1    
    10    8    9 1    
    11    8   10 1    
    12    9   24 1    
    13   10   11 1    
    14   10   12 1    
    15   12   13 1    
    16   13   14 1    
    17   13   23 1    
    18   14   15 2    
    19   15   16 1    
    20   16   17 1    
    21   16   23 2    
    22   17   18 2    
    23   17   19 am   
    24   19   20 1    
    25   20   21 1    
    26   20   22 2    
    27   22   23 1    
    28   24   25 ar   
    29   24   26 ar   
    30   24   27 1    
    31   27   28 1    
    32   28   29 1    
    33   29   30 1    
    34   29   31 1    
    35   30   35 1    
    36   31   32 1    
    37   31   33 1    
    38   33   34 1    
    39   33   35 1    
    40   35   36 1    
    41   36   37 1    
    42   36   46 1    
    43   37   38 2    
    44   38   39 1    
    45   39   40 1    
    46   39   46 2    
    47   40   41 2    
    48   40   42 am   
    49   42   43 1    
    50   43   44 1    
    51   43   45 2    
    52   45   46 1    
@<TRIPOS>SUBSTRUCTURE
     1 C2E502      1 GROUP   
@<TRIPOS>SET

