#    Name: 6gs8_1_C2E_CAVITY_N1_12
#    Modification time : Fri May 22 19:28:15 2020

@<TRIPOS>MOLECULE
6gs8_1_C2E_CAVITY_N1_12
   70     0     7     0     0
SMALL
NO_CHARGES


@<TRIPOS>ATOM
      1 OG         31.2400   35.5900  -45.8100 O.3       1 SER1        0.0000 
      2 OG         33.2500   36.2700  -45.7800 O.3       1 SER1        0.0000 
      3 OG         32.3100   35.7200  -44.7600 O.3       1 SER1        0.0000 
      4 OG         33.3700   35.8500  -43.7100 O.3       1 SER1        0.0000 
      5 OG         32.9000   37.2400  -43.4000 O.3       1 SER1        0.0000 
      6 OG         32.4200   35.3000  -42.6800 O.3       1 SER1        0.0000 
      7 O          32.6600   34.7500  -47.1400 O.2       2 ALA2        0.0000 
      8 N          32.1900   36.1400  -46.8300 N.am      2 ALA2        0.0000 
      9 O          32.7800   37.6600  -45.4800 O.2       2 ALA2        0.0000 
     10 N          34.3200   39.7300  -45.1400 N.am      2 ALA2        0.0000 
     11 N          33.8500   41.1200  -44.8400 N.am      2 ALA2        0.0000 
     12 N          33.3800   39.1800  -44.1200 N.am      2 ALA2        0.0000 
     13 N          36.8000   35.6800  -45.0100 N.am      2 ALA2        0.0000 
     14 N          34.4400   39.3100  -43.0700 N.am      2 ALA2        0.0000 
     15 N          33.9700   40.7000  -42.7600 N.am      2 ALA2        0.0000 
     16 N          33.0200   40.1500  -41.7400 N.am      2 ALA2        0.0000 
     17 OD1        31.7100   34.2000  -46.1200 O.co2     3 ASP3        0.0000 
     18 OD1        33.2500   32.9400  -45.3700 O.co2     3 ASP3        0.0000 
     19 OD1        32.7800   34.3300  -45.0700 O.co2     3 ASP3        0.0000 
     20 OD1        31.8300   33.7800  -44.0400 O.co2     3 ASP3        0.0000 
     21 OD1        31.8100   27.1300  -43.2200 O.co2     3 ASP3        0.0000 
     22 OD1        34.3000   29.7400  -43.9100 O.co2     3 ASP3        0.0000 
     23 OD1        33.8300   31.1300  -43.6000 O.co2     3 ASP3        0.0000 
     24 OD1        33.3600   32.5200  -43.3000 O.co2     3 ASP3        0.0000 
     25 OD1        32.8900   33.9100  -42.9900 O.co2     3 ASP3        0.0000 
     26 OD1        33.8300   27.8000  -43.1900 O.co2     3 ASP3        0.0000 
     27 OD1        33.3600   29.1900  -42.8800 O.co2     3 ASP3        0.0000 
     28 OD1        32.8800   30.5800  -42.5800 O.co2     3 ASP3        0.0000 
     29 OD1        31.9400   33.3700  -41.9600 O.co2     3 ASP3        0.0000 
     30 OD1        32.8800   27.2500  -42.1700 O.co2     3 ASP3        0.0000 
     31 OD1        32.4100   28.6500  -41.8600 O.co2     3 ASP3        0.0000 
     32 OD1        33.9400   27.3800  -41.1100 O.co2     3 ASP3        0.0000 
     33 OD1        38.3400   37.7500  -44.6800 O.co2     3 ASP3        0.0000 
     34 OD1        37.8600   35.8100  -43.9600 O.co2     3 ASP3        0.0000 
     35 OD1        37.3900   37.2000  -43.6600 O.co2     3 ASP3        0.0000 
     36 NZ         33.2400   29.6100  -44.9600 N.4       4 LYS4        0.0000 
     37 NZ         32.2900   29.0700  -43.9300 N.4       4 LYS4        0.0000 
     38 NZ         35.2700   40.2700  -46.1700 N.4       4 LYS4        0.0000 
     39 NZ         35.7400   35.5500  -46.0700 N.4       4 LYS4        0.0000 
     40 NZ         34.7900   35.0100  -45.0400 N.4       4 LYS4        0.0000 
     41 NZ         34.7800   31.6800  -44.6300 N.4       4 LYS4        0.0000 
     42 NZ         34.3100   33.0700  -44.3200 N.4       4 LYS4        0.0000 
     43 NZ         36.3300   40.4000  -45.1200 N.4       4 LYS4        0.0000 
     44 NZ         35.8600   41.7900  -44.8100 N.4       4 LYS4        0.0000 
     45 NZ         34.9200   41.2400  -43.7900 N.4       4 LYS4        0.0000 
     46 NZ         36.3200   33.7400  -44.3000 N.4       4 LYS4        0.0000 
     47 NZ         35.8500   35.1300  -43.9900 N.4       4 LYS4        0.0000 
     48 NZ         35.8400   31.8100  -43.5800 N.4       4 LYS4        0.0000 
     49 CZ         34.2000   36.8200  -46.8100 C.ar      5 PHE5        0.0000 
     50 CZ         33.7300   38.2100  -46.5000 C.ar      5 PHE5        0.0000 
     51 CZ         35.7400   38.8800  -46.4800 C.ar      5 PHE5        0.0000 
     52 CZ         37.2800   37.6200  -45.7300 C.ar      5 PHE5        0.0000 
     53 CZ         36.8000   39.0100  -45.4300 C.ar      5 PHE5        0.0000 
     54 CZ         37.8700   39.1400  -44.3800 C.ar      5 PHE5        0.0000 
     55 CA         34.6700   35.4300  -47.1200 C.3       6 GLY6        0.0000 
     56 CA         34.2000   33.4900  -46.4000 C.3       6 GLY6        0.0000 
     57 CA         33.7200   34.8800  -46.0900 C.3       6 GLY6        0.0000 
     58 CA         33.7200   31.5500  -45.6800 C.3       6 GLY6        0.0000 
     59 CA         36.2100   37.4900  -46.7800 C.3       6 GLY6        0.0000 
     60 CA         33.8500   37.7900  -44.4300 C.3       6 GLY6        0.0000 
     61 CA         33.9600   37.3700  -42.3500 C.3       6 GLY6        0.0000 
     62 DU         35.2600   36.9400  -45.7600 H         7 CUB7        0.0000 
     63 DU         34.7900   38.3400  -45.4500 H         7 CUB7        0.0000 
     64 DU         34.3200   36.4000  -44.7300 H         7 CUB7        0.0000 
     65 DU         33.8400   34.4600  -44.0100 H         7 CUB7        0.0000 
     66 DU         36.3300   37.0700  -44.7100 H         7 CUB7        0.0000 
     67 DU         35.8600   38.4600  -44.4000 H         7 CUB7        0.0000 
     68 DU         35.3900   39.8500  -44.0900 H         7 CUB7        0.0000 
     69 DU         34.9100   37.9200  -43.3800 H         7 CUB7        0.0000 
     70 DU         36.9200   38.5900  -43.3500 H         7 CUB7        0.0000 
@<TRIPOS>BOND
@<TRIPOS>SUBSTRUCTURE
     1 SER1        1 GROUP   
     2 ALA2        7 GROUP   
     3 ASP3       17 GROUP   
     4 LYS4       36 GROUP   
     5 PHE5       49 GROUP   
     6 GLY6       55 GROUP   
     7 CUB7       62 GROUP   
@<TRIPOS>SET

