#    Name: 6gs8_8_C2E
#    Modification time : Fri May 22 19:29:08 2020

@<TRIPOS>MOLECULE
6gs8_8_C2E
   46    52     1     0     0
SMALL
NO_CHARGES


@<TRIPOS>ATOM
      1 P1        -18.5170   16.3970   18.3870 P.3       1 C2E502      0.0000 
      2 O2P       -17.8260   17.6680   17.9980 O.co2     1 C2E502      0.0000 
      3 O1P       -17.8860   15.0610   18.0450 O.co2     1 C2E502      0.0000 
      4 O5'       -18.6650   16.4900   19.9850 O.3       1 C2E502      0.0000 
      5 C5'       -18.1750   15.3530   20.7810 C.3       1 C2E502      0.0000 
      6 C4'       -18.3620   15.5850   22.2610 C.3       1 C2E502      0.0000 
      7 O4'       -17.1350   16.1700   22.7460 O.3       1 C2E502      0.0000 
      8 C3'       -19.4610   16.5430   22.7130 C.3       1 C2E502      0.0000 
      9 O3'       -20.7070   15.8710   22.8900 O.3       1 C2E502      0.0000 
     10 C2'       -18.8590   17.0830   24.0160 C.3       1 C2E502      0.0000 
     11 O2'       -18.9100   16.1470   25.0620 O.3       1 C2E502      0.0000 
     12 C1'       -17.3940   17.2360   23.6380 C.3       1 C2E502      0.0000 
     13 N9        -17.0400   18.5030   22.9880 N.pl3     1 C2E502      0.0000 
     14 C8        -16.7210   18.7180   21.6670 C.2       1 C2E502      0.0000 
     15 N7        -16.4360   19.9650   21.3860 N.2       1 C2E502      0.0000 
     16 C5        -16.5420   20.6180   22.5990 C.2       1 C2E502      0.0000 
     17 C6        -16.3450   21.9860   22.9160 C.2       1 C2E502      0.0000 
     18 O6        -16.0380   22.9320   22.1660 O.2       1 C2E502      0.0000 
     19 N1        -16.5700   22.2040   24.2790 N.am      1 C2E502      0.0000 
     20 C2        -16.8910   21.2460   25.2130 C.2       1 C2E502      0.0000 
     21 N2        -17.0200   21.6660   26.4810 N.pl3     1 C2E502      0.0000 
     22 N3        -17.0960   19.9650   24.9170 N.2       1 C2E502      0.0000 
     23 C4        -16.9150   19.7280   23.5950 C.2       1 C2E502      0.0000 
     24 P11       -22.0120   16.8140   22.8620 P.3       1 C2E502      0.0000 
     25 O21       -21.7730   17.9670   23.7810 O.co2     1 C2E502      0.0000 
     26 O11       -23.3550   16.1740   23.0800 O.co2     1 C2E502      0.0000 
     27 O5A       -22.0590   17.2300   21.3040 O.3       1 C2E502      0.0000 
     28 C5A       -22.3540   16.2310   20.2860 C.3       1 C2E502      0.0000 
     29 C4A       -22.2340   16.8320   18.9090 C.3       1 C2E502      0.0000 
     30 O4A       -23.1070   17.9860   18.7970 O.3       1 C2E502      0.0000 
     31 C3A       -20.8560   17.3580   18.5040 C.3       1 C2E502      0.0000 
     32 O3A       -20.0300   16.3930   17.8660 O.3       1 C2E502      0.0000 
     33 C2A       -21.2450   18.3050   17.3840 C.3       1 C2E502      0.0000 
     34 O2A       -21.4730   17.4850   16.2680 O.3       1 C2E502      0.0000 
     35 C1A       -22.5450   18.9170   17.8920 C.3       1 C2E502      0.0000 
     36 N91       -22.4060   20.2060   18.5740 N.pl3     1 C2E502      0.0000 
     37 C81       -22.6160   20.4540   19.9040 C.2       1 C2E502      0.0000 
     38 N71       -22.5110   21.7170   20.2250 N.2       1 C2E502      0.0000 
     39 C51       -22.2200   22.3380   19.0370 C.2       1 C2E502      0.0000 
     40 C61       -22.0010   23.7030   18.7840 C.2       1 C2E502      0.0000 
     41 O61       -22.0590   24.6340   19.5890 O.2       1 C2E502      0.0000 
     42 N11       -21.7600   23.9430   17.4370 N.am      1 C2E502      0.0000 
     43 C21       -21.6740   22.9750   16.4710 C.2       1 C2E502      0.0000 
     44 N21       -21.4000   23.4070   15.2400 N.pl3     1 C2E502      0.0000 
     45 N31       -21.8850   21.6800   16.6990 N.2       1 C2E502      0.0000 
     46 C41       -22.1520   21.4330   18.0060 C.2       1 C2E502      0.0000 
@<TRIPOS>BOND
     1    1    2 ar   
     2    1    3 ar   
     3    1    4 1    
     4    1   32 1    
     5    4    5 1    
     6    5    6 1    
     7    6    7 1    
     8    6    8 1    
     9    7   12 1    
    10    8    9 1    
    11    8   10 1    
    12    9   24 1    
    13   10   11 1    
    14   10   12 1    
    15   12   13 1    
    16   13   14 1    
    17   13   23 1    
    18   14   15 2    
    19   15   16 1    
    20   16   17 1    
    21   16   23 2    
    22   17   18 2    
    23   17   19 am   
    24   19   20 1    
    25   20   21 1    
    26   20   22 2    
    27   22   23 1    
    28   24   25 ar   
    29   24   26 ar   
    30   24   27 1    
    31   27   28 1    
    32   28   29 1    
    33   29   30 1    
    34   29   31 1    
    35   30   35 1    
    36   31   32 1    
    37   31   33 1    
    38   33   34 1    
    39   33   35 1    
    40   35   36 1    
    41   36   37 1    
    42   36   46 1    
    43   37   38 2    
    44   38   39 1    
    45   39   40 1    
    46   39   46 2    
    47   40   41 2    
    48   40   42 am   
    49   42   43 1    
    50   43   44 1    
    51   43   45 2    
    52   45   46 1    
@<TRIPOS>SUBSTRUCTURE
     1 C2E502      1 GROUP   
@<TRIPOS>SET

