#    Name: 6gs8_6_C2E_CAVITY_N1_8
#    Modification time : Fri May 22 19:28:59 2020

@<TRIPOS>MOLECULE
6gs8_6_C2E_CAVITY_N1_8
   78     0     6     0     0
SMALL
NO_CHARGES


@<TRIPOS>ATOM
      1 OG         26.2700   17.6700   27.7900 O.3       1 SER1        0.0000 
      2 N          22.6100   22.0100   24.5300 N.am      2 ALA2        0.0000 
      3 N          23.5500   15.9000   24.3300 N.am      2 ALA2        0.0000 
      4 N          25.0900   17.9600   24.6600 N.am      2 ALA2        0.0000 
      5 N          24.1500   20.7400   25.2700 N.am      2 ALA2        0.0000 
      6 N          24.1400   17.4100   25.6800 N.am      2 ALA2        0.0000 
      7 N          23.1900   16.8700   26.7100 N.am      2 ALA2        0.0000 
      8 N          25.6800   19.4800   26.0200 N.am      2 ALA2        0.0000 
      9 N          25.2100   20.8700   26.3200 N.am      2 ALA2        0.0000 
     10 N          25.2000   17.5400   26.7300 N.am      2 ALA2        0.0000 
     11 N          24.2600   16.9900   27.7600 N.am      2 ALA2        0.0000 
     12 N          23.7800   15.0600   28.4800 N.am      2 ALA2        0.0000 
     13 N          26.7400   16.2800   27.4800 N.am      2 ALA2        0.0000 
     14 O          25.8000   19.0600   28.0900 O.2       2 ALA2        0.0000 
     15 O          25.3200   20.4500   28.4000 O.2       2 ALA2        0.0000 
     16 OD1        22.1400   23.4000   24.8400 O.co2     3 ASP3        0.0000 
     17 OD1        21.6700   21.4600   25.5500 O.co2     3 ASP3        0.0000 
     18 OD1        24.6200   22.6800   24.5500 O.co2     3 ASP3        0.0000 
     19 OD1        23.6800   25.4600   25.1700 O.co2     3 ASP3        0.0000 
     20 OD1        22.2700   29.6300   26.0900 O.co2     3 ASP3        0.0000 
     21 OD1        23.6800   22.1300   25.5800 O.co2     3 ASP3        0.0000 
     22 OD1        23.2100   23.5200   25.8900 O.co2     3 ASP3        0.0000 
     23 OD1        22.7400   24.9100   26.1900 O.co2     3 ASP3        0.0000 
     24 OD1        22.2600   26.3100   26.5000 O.co2     3 ASP3        0.0000 
     25 OD1        21.7900   27.7000   26.8100 O.co2     3 ASP3        0.0000 
     26 OD1        21.3200   29.0900   27.1100 O.co2     3 ASP3        0.0000 
     27 OD1        23.2000   20.2000   26.3000 O.co2     3 ASP3        0.0000 
     28 OD1        22.7300   21.5900   26.6000 O.co2     3 ASP3        0.0000 
     29 OD1        21.7900   24.3700   27.2200 O.co2     3 ASP3        0.0000 
     30 OD1        22.2500   19.6500   27.3200 O.co2     3 ASP3        0.0000 
     31 OD1        25.2200   24.2000   25.9100 O.co2     3 ASP3        0.0000 
     32 OD1        24.7400   22.2600   26.6300 O.co2     3 ASP3        0.0000 
     33 OD1        24.2700   23.6500   26.9400 O.co2     3 ASP3        0.0000 
     34 OD1        23.8000   25.0400   27.2400 O.co2     3 ASP3        0.0000 
     35 OD1        23.3300   26.4300   27.5500 O.co2     3 ASP3        0.0000 
     36 OD1        22.8600   27.8200   27.8600 O.co2     3 ASP3        0.0000 
     37 OD1        22.3900   29.2100   28.1600 O.co2     3 ASP3        0.0000 
     38 OD1        21.9200   30.6100   28.4700 O.co2     3 ASP3        0.0000 
     39 OD1        24.2600   20.3200   27.3500 O.co2     3 ASP3        0.0000 
     40 OD1        21.9100   27.2800   28.8800 O.co2     3 ASP3        0.0000 
     41 OD1        21.4400   28.6700   29.1900 O.co2     3 ASP3        0.0000 
     42 OD1        23.7800   18.3900   28.0700 O.co2     3 ASP3        0.0000 
     43 OD1        23.3100   19.7800   28.3700 O.co2     3 ASP3        0.0000 
     44 OD1        23.3100   16.4500   28.7900 O.co2     3 ASP3        0.0000 
     45 OD1        22.8400   17.8400   29.0900 O.co2     3 ASP3        0.0000 
     46 OD1        22.3700   19.2300   29.4000 O.co2     3 ASP3        0.0000 
     47 OD1        25.8000   22.3900   27.6800 O.co2     3 ASP3        0.0000 
     48 OD1        25.3300   23.7800   27.9900 O.co2     3 ASP3        0.0000 
     49 OD1        23.4500   29.3400   29.2200 O.co2     3 ASP3        0.0000 
     50 OD1        22.9700   27.4000   29.9300 O.co2     3 ASP3        0.0000 
     51 OD1        22.5000   28.8000   30.2400 O.co2     3 ASP3        0.0000 
     52 OD1        25.3200   17.1200   28.8100 O.co2     3 ASP3        0.0000 
     53 OD1        24.8500   18.5100   29.1200 O.co2     3 ASP3        0.0000 
     54 OD1        24.3800   19.9000   29.4200 O.co2     3 ASP3        0.0000 
     55 OD1        23.4300   19.3600   30.4500 O.co2     3 ASP3        0.0000 
     56 OD1        26.3900   23.9100   29.0400 O.co2     3 ASP3        0.0000 
     57 NZ         24.7500   25.5900   26.2200 N.4       4 LYS4        0.0000 
     58 NZ         24.2800   26.9800   26.5300 N.4       4 LYS4        0.0000 
     59 NZ         26.2800   24.3300   26.9600 N.4       4 LYS4        0.0000 
     60 NZ         23.9200   27.9500   28.9100 N.4       4 LYS4        0.0000 
     61 NZ         27.3400   24.4500   28.0100 N.4       4 LYS4        0.0000 
     62 CA         24.6200   19.3500   24.9700 C.3       5 GLY6        0.0000 
     63 CA         25.6900   22.8100   25.6000 C.3       5 GLY6        0.0000 
     64 CA         26.1500   18.0900   25.7100 C.3       5 GLY6        0.0000 
     65 CA         26.7500   22.9400   26.6600 C.3       5 GLY6        0.0000 
     66 CA         27.2100   18.2200   26.7600 C.3       5 GLY6        0.0000 
     67 CA         26.7400   19.6100   27.0700 C.3       5 GLY6        0.0000 
     68 CA         26.2700   21.0000   27.3700 C.3       5 GLY6        0.0000 
     69 CA         26.8700   22.5200   28.7300 C.3       5 GLY6        0.0000 
     70 DU         23.0800   17.2900   24.6300 H         6 CUB7        0.0000 
     71 DU         22.6100   18.6800   24.9400 H         6 CUB7        0.0000 
     72 DU         22.1400   20.0700   25.2500 H         6 CUB7        0.0000 
     73 DU         21.1900   19.5200   26.2700 H         6 CUB7        0.0000 
     74 DU         20.2400   18.9700   27.3000 H         6 CUB7        0.0000 
     75 DU         23.6700   18.8000   25.9900 H         6 CUB7        0.0000 
     76 DU         22.7200   18.2600   27.0200 H         6 CUB7        0.0000 
     77 DU         21.7700   17.7100   28.0400 H         6 CUB7        0.0000 
     78 DU         24.7300   18.9300   27.0400 H         6 CUB7        0.0000 
@<TRIPOS>BOND
@<TRIPOS>SUBSTRUCTURE
     1 SER1        1 GROUP   
     2 ALA2        2 GROUP   
     3 ASP3       16 GROUP   
     4 LYS4       57 GROUP   
     5 GLY6       62 GROUP   
     6 CUB7       70 GROUP   
@<TRIPOS>SET

