#    Name: 6gs8_3_C2E
#    Modification time : Fri May 22 19:28:35 2020

@<TRIPOS>MOLECULE
6gs8_3_C2E
   46    52     1     0     0
SMALL
NO_CHARGES


@<TRIPOS>ATOM
      1 P1         49.0410   35.5240   -3.5950 P.3       1 C2E501      0.0000 
      2 O2P        50.0530   34.4480   -3.3550 O.co2     1 C2E501      0.0000 
      3 O1P        49.2890   36.5400   -4.6770 O.co2     1 C2E501      0.0000 
      4 O5'        47.5970   34.7950   -3.6560 O.3       1 C2E501      0.0000 
      5 C5'        46.4320   35.6000   -3.9650 C.3       1 C2E501      0.0000 
      6 C4'        45.1590   34.8920   -3.5680 C.3       1 C2E501      0.0000 
      7 O4'        44.9820   33.6460   -4.3050 O.3       1 C2E501      0.0000 
      8 C3'        45.0670   34.4800   -2.0980 C.3       1 C2E501      0.0000 
      9 O3'        44.5530   35.5180   -1.2710 O.3       1 C2E501      0.0000 
     10 C2'        44.0270   33.3630   -2.1720 C.3       1 C2E501      0.0000 
     11 O2'        42.7580   33.8940   -2.4060 O.3       1 C2E501      0.0000 
     12 C1'        44.4010   32.6710   -3.4570 C.3       1 C2E501      0.0000 
     13 N9         45.3830   31.6430   -3.2400 N.pl3     1 C2E501      0.0000 
     14 C8         46.7270   31.7770   -3.4410 C.2       1 C2E501      0.0000 
     15 N7         47.3770   30.6550   -3.2780 N.2       1 C2E501      0.0000 
     16 C5         46.3940   29.7400   -2.9150 C.2       1 C2E501      0.0000 
     17 C6         46.4960   28.3660   -2.5980 C.2       1 C2E501      0.0000 
     18 O6         47.4800   27.6260   -2.6110 O.2       1 C2E501      0.0000 
     19 N1         45.2770   27.8060   -2.2970 N.am      1 C2E501      0.0000 
     20 C2         44.0930   28.4690   -2.2900 C.2       1 C2E501      0.0000 
     21 N2         43.0600   27.7040   -1.9620 N.pl3     1 C2E501      0.0000 
     22 N3         43.9540   29.7660   -2.5960 N.2       1 C2E501      0.0000 
     23 C4         45.1550   30.3380   -2.8910 C.2       1 C2E501      0.0000 
     24 P11        44.8960   35.4370    0.2890 P.3       1 C2E501      0.0000 
     25 O21        44.6620   34.0960    0.9170 O.co2     1 C2E501      0.0000 
     26 O11        44.2930   36.6130    0.9870 O.co2     1 C2E501      0.0000 
     27 O5A        46.4660   35.6950    0.2590 O.3       1 C2E501      0.0000 
     28 C5A        46.9540   37.0390    0.0830 C.3       1 C2E501      0.0000 
     29 C4A        48.4560   36.9890   -0.0240 C.3       1 C2E501      0.0000 
     30 O4A        48.9980   36.6260    1.2680 O.3       1 C2E501      0.0000 
     31 C3A        49.0400   35.9430   -0.9840 C.3       1 C2E501      0.0000 
     32 O3A        48.9810   36.4730   -2.3050 O.3       1 C2E501      0.0000 
     33 C2A        50.4390   35.8880   -0.4230 C.3       1 C2E501      0.0000 
     34 O2A        51.0880   37.1250   -0.6660 O.3       1 C2E501      0.0000 
     35 C1A        50.1460   35.8270    1.0750 C.3       1 C2E501      0.0000 
     36 N91        49.8890   34.5160    1.6560 N.pl3     1 C2E501      0.0000 
     37 C81        48.6700   34.0230    2.0380 C.2       1 C2E501      0.0000 
     38 N71        48.7280   32.8270    2.5790 N.2       1 C2E501      0.0000 
     39 C51        50.0820   32.5290    2.5820 C.2       1 C2E501      0.0000 
     40 C61        50.7410   31.3700    3.0530 C.2       1 C2E501      0.0000 
     41 O61        50.2580   30.3570    3.5810 O.2       1 C2E501      0.0000 
     42 N11        52.1080   31.4970    2.8900 N.am      1 C2E501      0.0000 
     43 C21        52.7490   32.5570    2.2930 C.2       1 C2E501      0.0000 
     44 N21        54.0860   32.4730    2.2260 N.pl3     1 C2E501      0.0000 
     45 N31        52.1340   33.6480    1.8340 N.2       1 C2E501      0.0000 
     46 C41        50.8040   33.5680    2.0290 C.2       1 C2E501      0.0000 
@<TRIPOS>BOND
     1    1    2 ar   
     2    1    3 ar   
     3    1    4 1    
     4    1   32 1    
     5    4    5 1    
     6    5    6 1    
     7    6    7 1    
     8    6    8 1    
     9    7   12 1    
    10    8    9 1    
    11    8   10 1    
    12    9   24 1    
    13   10   11 1    
    14   10   12 1    
    15   12   13 1    
    16   13   14 1    
    17   13   23 1    
    18   14   15 2    
    19   15   16 1    
    20   16   17 1    
    21   16   23 2    
    22   17   18 2    
    23   17   19 am   
    24   19   20 1    
    25   20   21 1    
    26   20   22 2    
    27   22   23 1    
    28   24   25 ar   
    29   24   26 ar   
    30   24   27 1    
    31   27   28 1    
    32   28   29 1    
    33   29   30 1    
    34   29   31 1    
    35   30   35 1    
    36   31   32 1    
    37   31   33 1    
    38   33   34 1    
    39   33   35 1    
    40   35   36 1    
    41   36   37 1    
    42   36   46 1    
    43   37   38 2    
    44   38   39 1    
    45   39   40 1    
    46   39   46 2    
    47   40   41 2    
    48   40   42 am   
    49   42   43 1    
    50   43   44 1    
    51   43   45 2    
    52   45   46 1    
@<TRIPOS>SUBSTRUCTURE
     1 C2E501      1 GROUP   
@<TRIPOS>SET

