#    Name: 6gs8_9_C2E_CAVITY_N1_6
#    Modification time : Fri May 22 19:29:20 2020

@<TRIPOS>MOLECULE
6gs8_9_C2E_CAVITY_N1_6
   55     0     5     0     0
SMALL
NO_CHARGES


@<TRIPOS>ATOM
      1 O         -39.0400   20.6800  -20.0100 O.2       1 ALA2        0.0000 
      2 O         -39.2800   21.2300  -15.5600 O.2       1 ALA2        0.0000 
      3 O         -38.2200   21.3600  -14.5000 O.2       1 ALA2        0.0000 
      4 O         -33.8500   18.4100  -16.4300 O.2       1 ALA2        0.0000 
      5 N         -34.7900   21.1900  -15.8100 N.am      1 ALA2        0.0000 
      6 N         -35.7400   20.6400  -14.7900 N.am      1 ALA2        0.0000 
      7 N         -36.6800   20.0900  -13.7600 N.am      1 ALA2        0.0000 
      8 N         -37.1600   21.4800  -13.4500 N.am      1 ALA2        0.0000 
      9 OD1       -37.9800   20.8000  -18.9600 O.co2     2 ASP3        0.0000 
     10 OD1       -38.4500   22.2000  -18.6600 O.co2     2 ASP3        0.0000 
     11 OD1       -39.4000   21.6500  -17.6300 O.co2     2 ASP3        0.0000 
     12 OD1       -36.9100   20.9300  -17.9100 O.co2     2 ASP3        0.0000 
     13 OD1       -37.8600   20.3900  -16.8900 O.co2     2 ASP3        0.0000 
     14 OD1       -38.3300   21.7800  -16.5800 O.co2     2 ASP3        0.0000 
     15 OD1       -34.4200   26.8700  -19.0200 O.co2     2 ASP3        0.0000 
     16 OD1       -35.8500   21.0600  -16.8600 O.co2     2 ASP3        0.0000 
     17 OD1       -37.2700   21.9000  -15.5300 O.co2     2 ASP3        0.0000 
     18 OD1       -37.7400   23.2900  -15.2200 O.co2     2 ASP3        0.0000 
     19 OD1       -33.8300   25.0600  -17.2500 O.co2     2 ASP3        0.0000 
     20 OD1       -34.3000   26.4500  -16.9400 O.co2     2 ASP3        0.0000 
     21 OD1       -34.7700   27.8500  -16.6400 O.co2     2 ASP3        0.0000 
     22 OD1       -34.3100   23.1300  -16.5300 O.co2     2 ASP3        0.0000 
     23 OD1       -34.7800   24.5200  -16.2200 O.co2     2 ASP3        0.0000 
     24 OD1       -35.2500   25.9100  -15.9200 O.co2     2 ASP3        0.0000 
     25 OD1       -35.7200   27.3000  -15.6100 O.co2     2 ASP3        0.0000 
     26 OD1       -35.2600   22.5800  -15.5000 O.co2     2 ASP3        0.0000 
     27 OD1       -35.7300   23.9700  -15.2000 O.co2     2 ASP3        0.0000 
     28 OD1       -36.2000   25.3600  -14.8900 O.co2     2 ASP3        0.0000 
     29 OD1       -36.6800   23.4200  -14.1700 O.co2     2 ASP3        0.0000 
     30 OD1       -32.7600   28.5200  -16.6100 O.co2     2 ASP3        0.0000 
     31 OD1       -33.2400   26.5800  -15.8900 O.co2     2 ASP3        0.0000 
     32 OD1       -33.7100   27.9700  -15.5800 O.co2     2 ASP3        0.0000 
     33 OD1       -32.7800   21.8600  -15.7900 O.co2     2 ASP3        0.0000 
     34 OD1       -33.7200   24.6400  -15.1700 O.co2     2 ASP3        0.0000 
     35 OD1       -34.1900   26.0400  -14.8700 O.co2     2 ASP3        0.0000 
     36 OD1       -34.6600   27.4300  -14.5600 O.co2     2 ASP3        0.0000 
     37 OD1       -34.2000   22.7100  -14.4500 O.co2     2 ASP3        0.0000 
     38 OD1       -34.6700   24.1000  -14.1500 O.co2     2 ASP3        0.0000 
     39 OD1       -35.1400   22.1600  -13.4300 O.co2     2 ASP3        0.0000 
     40 OD1       -35.6100   23.5500  -13.1200 O.co2     2 ASP3        0.0000 
     41 OD1       -34.0700   25.6200  -12.7900 O.co2     2 ASP3        0.0000 
     42 NZ        -37.1500   24.8100  -13.8700 N.4       3 LYS4        0.0000 
     43 NZ        -35.1400   25.4900  -13.8400 N.4       3 LYS4        0.0000 
     44 NZ        -36.0900   24.9400  -12.8100 N.4       3 LYS4        0.0000 
     45 CA        -39.5100   22.0700  -19.7100 C.3       4 GLY6        0.0000 
     46 CA        -38.6900   22.7500  -14.2000 C.3       4 GLY6        0.0000 
     47 CA        -35.2700   19.2500  -15.0900 C.3       4 GLY6        0.0000 
     48 DU        -38.4500   18.8700  -18.2500 H         5 CUB7        0.0000 
     49 DU        -38.9200   20.2600  -17.9400 H         5 CUB7        0.0000 
     50 DU        -35.3800   19.6700  -17.1700 H         5 CUB7        0.0000 
     51 DU        -35.8600   17.7300  -16.4500 H         5 CUB7        0.0000 
     52 DU        -36.3300   19.1200  -16.1400 H         5 CUB7        0.0000 
     53 DU        -36.8000   20.5100  -15.8400 H         5 CUB7        0.0000 
     54 DU        -37.7500   19.9700  -14.8100 H         5 CUB7        0.0000 
     55 DU        -36.2100   22.0300  -14.4800 H         5 CUB7        0.0000 
@<TRIPOS>BOND
@<TRIPOS>SUBSTRUCTURE
     1 ALA2        1 GROUP   
     2 ASP3        9 GROUP   
     3 LYS4       42 GROUP   
     4 GLY6       45 GROUP   
     5 CUB7       48 GROUP   
@<TRIPOS>SET

