#    Name: 6gs8_9_C2E_CAVITY_N1_4
#    Modification time : Fri May 22 19:29:20 2020

@<TRIPOS>MOLECULE
6gs8_9_C2E_CAVITY_N1_4
   25     0     4     0     0
SMALL
NO_CHARGES


@<TRIPOS>ATOM
      1 N         -34.7900   21.1900  -15.8100 N.am      1 ALA2        0.0000 
      2 OD1       -36.9100   20.9300  -17.9100 O.co2     2 ASP3        0.0000 
      3 OD1       -34.4200   26.8700  -19.0200 O.co2     2 ASP3        0.0000 
      4 OD1       -35.8500   21.0600  -16.8600 O.co2     2 ASP3        0.0000 
      5 OD1       -33.8300   25.0600  -17.2500 O.co2     2 ASP3        0.0000 
      6 OD1       -34.3000   26.4500  -16.9400 O.co2     2 ASP3        0.0000 
      7 OD1       -34.7700   27.8500  -16.6400 O.co2     2 ASP3        0.0000 
      8 OD1       -34.3100   23.1300  -16.5300 O.co2     2 ASP3        0.0000 
      9 OD1       -34.7800   24.5200  -16.2200 O.co2     2 ASP3        0.0000 
     10 OD1       -35.2500   25.9100  -15.9200 O.co2     2 ASP3        0.0000 
     11 OD1       -35.7200   27.3000  -15.6100 O.co2     2 ASP3        0.0000 
     12 OD1       -35.2600   22.5800  -15.5000 O.co2     2 ASP3        0.0000 
     13 OD1       -35.7300   23.9700  -15.2000 O.co2     2 ASP3        0.0000 
     14 OD1       -36.2000   25.3600  -14.8900 O.co2     2 ASP3        0.0000 
     15 OD1       -32.7600   28.5200  -16.6100 O.co2     2 ASP3        0.0000 
     16 OD1       -33.2400   26.5800  -15.8900 O.co2     2 ASP3        0.0000 
     17 OD1       -33.7100   27.9700  -15.5800 O.co2     2 ASP3        0.0000 
     18 OD1       -32.7800   21.8600  -15.7900 O.co2     2 ASP3        0.0000 
     19 OD1       -33.7200   24.6400  -15.1700 O.co2     2 ASP3        0.0000 
     20 OD1       -34.1900   26.0400  -14.8700 O.co2     2 ASP3        0.0000 
     21 OD1       -34.6600   27.4300  -14.5600 O.co2     2 ASP3        0.0000 
     22 OD1       -34.2000   22.7100  -14.4500 O.co2     2 ASP3        0.0000 
     23 OD1       -34.6700   24.1000  -14.1500 O.co2     2 ASP3        0.0000 
     24 NZ        -35.1400   25.4900  -13.8400 N.4       3 LYS4        0.0000 
     25 DU        -35.3800   19.6700  -17.1700 H         4 CUB7        0.0000 
@<TRIPOS>BOND
@<TRIPOS>SUBSTRUCTURE
     1 ALA2        1 GROUP   
     2 ASP3        2 GROUP   
     3 LYS4       24 GROUP   
     4 CUB7       25 GROUP   
@<TRIPOS>SET

