#    Name: 6gs8_9_C2E
#    Modification time : Fri May 22 19:29:19 2020

@<TRIPOS>MOLECULE
6gs8_9_C2E
   46    52     1     0     0
SMALL
NO_CHARGES


@<TRIPOS>ATOM
      1 P1        -35.6590   31.3410  -17.1180 P.3       1 C2E501      0.0000 
      2 O2P       -36.7160   30.2830  -17.3050 O.co2     1 C2E501      0.0000 
      3 O1P       -35.5910   32.0990  -15.8200 O.co2     1 C2E501      0.0000 
      4 O5'       -34.2050   30.6980  -17.2230 O.3       1 C2E501      0.0000 
      5 C5'       -33.0880   31.4530  -16.7180 C.3       1 C2E501      0.0000 
      6 C4'       -31.8650   30.6180  -16.9700 C.3       1 C2E501      0.0000 
      7 O4'       -31.9830   29.3770  -16.2300 O.3       1 C2E501      0.0000 
      8 C3'       -31.7030   30.1890  -18.4200 C.3       1 C2E501      0.0000 
      9 O3'       -31.0770   31.2270  -19.1800 O.3       1 C2E501      0.0000 
     10 C2'       -30.8630   28.9210  -18.2700 C.3       1 C2E501      0.0000 
     11 O2'       -29.5060   29.2350  -18.1420 O.3       1 C2E501      0.0000 
     12 C1'       -31.4010   28.3270  -16.9770 C.3       1 C2E501      0.0000 
     13 N9        -32.4070   27.3080  -17.2140 N.pl3     1 C2E501      0.0000 
     14 C8        -33.7740   27.4000  -17.1100 C.2       1 C2E501      0.0000 
     15 N7        -34.3930   26.2720  -17.3730 N.2       1 C2E501      0.0000 
     16 C5        -33.3630   25.3880  -17.6900 C.2       1 C2E501      0.0000 
     17 C6        -33.3940   24.0190  -18.0740 C.2       1 C2E501      0.0000 
     18 O6        -34.3420   23.2360  -18.1950 O.2       1 C2E501      0.0000 
     19 N1        -32.1260   23.5290  -18.2970 N.am      1 C2E501      0.0000 
     20 C2        -30.9770   24.2430  -18.1980 C.2       1 C2E501      0.0000 
     21 N2        -29.8860   23.5380  -18.4900 N.pl3     1 C2E501      0.0000 
     22 N3        -30.9080   25.5200  -17.8320 N.2       1 C2E501      0.0000 
     23 C4        -32.1400   26.0220  -17.5970 C.2       1 C2E501      0.0000 
     24 P11       -31.3250   31.1150  -20.7640 P.3       1 C2E501      0.0000 
     25 O21       -31.0550   29.7140  -21.2240 O.co2     1 C2E501      0.0000 
     26 O11       -30.6200   32.3010  -21.3390 O.co2     1 C2E501      0.0000 
     27 O5A       -32.8720   31.4670  -20.9170 O.3       1 C2E501      0.0000 
     28 C5A       -33.3190   32.8330  -20.7430 C.3       1 C2E501      0.0000 
     29 C4A       -34.8330   32.8240  -20.6910 C.3       1 C2E501      0.0000 
     30 O4A       -35.3700   32.4910  -22.0050 O.3       1 C2E501      0.0000 
     31 C3A       -35.4400   31.7990  -19.7180 C.3       1 C2E501      0.0000 
     32 O3A       -35.5530   32.3330  -18.3850 O.3       1 C2E501      0.0000 
     33 C2A       -36.7930   31.5750  -20.3640 C.3       1 C2E501      0.0000 
     34 O2A       -37.6210   32.6650  -20.0410 O.3       1 C2E501      0.0000 
     35 C1A       -36.4830   31.6490  -21.8600 C.3       1 C2E501      0.0000 
     36 N91       -36.2290   30.3590  -22.4820 N.pl3     1 C2E501      0.0000 
     37 C81       -35.0440   29.7660  -22.8420 C.2       1 C2E501      0.0000 
     38 N71       -35.1900   28.5950  -23.4140 N.2       1 C2E501      0.0000 
     39 C51       -36.5630   28.3900  -23.3890 C.2       1 C2E501      0.0000 
     40 C61       -37.3340   27.2770  -23.8380 C.2       1 C2E501      0.0000 
     41 O61       -36.9410   26.2270  -24.3900 O.2       1 C2E501      0.0000 
     42 N11       -38.7060   27.4830  -23.5860 N.am      1 C2E501      0.0000 
     43 C21       -39.2580   28.6160  -23.0160 C.2       1 C2E501      0.0000 
     44 N21       -40.5920   28.6400  -22.9060 N.pl3     1 C2E501      0.0000 
     45 N31       -38.5360   29.6610  -22.5980 N.2       1 C2E501      0.0000 
     46 C41       -37.2080   29.4720  -22.8160 C.2       1 C2E501      0.0000 
@<TRIPOS>BOND
     1    1    2 ar   
     2    1    3 ar   
     3    1    4 1    
     4    1   32 1    
     5    4    5 1    
     6    5    6 1    
     7    6    7 1    
     8    6    8 1    
     9    7   12 1    
    10    8    9 1    
    11    8   10 1    
    12    9   24 1    
    13   10   11 1    
    14   10   12 1    
    15   12   13 1    
    16   13   14 1    
    17   13   23 1    
    18   14   15 2    
    19   15   16 1    
    20   16   17 1    
    21   16   23 2    
    22   17   18 2    
    23   17   19 am   
    24   19   20 1    
    25   20   21 1    
    26   20   22 2    
    27   22   23 1    
    28   24   25 ar   
    29   24   26 ar   
    30   24   27 1    
    31   27   28 1    
    32   28   29 1    
    33   29   30 1    
    34   29   31 1    
    35   30   35 1    
    36   31   32 1    
    37   31   33 1    
    38   33   34 1    
    39   33   35 1    
    40   35   36 1    
    41   36   37 1    
    42   36   46 1    
    43   37   38 2    
    44   38   39 1    
    45   39   40 1    
    46   39   46 2    
    47   40   41 2    
    48   40   42 am   
    49   42   43 1    
    50   43   44 1    
    51   43   45 2    
    52   45   46 1    
@<TRIPOS>SUBSTRUCTURE
     1 C2E501      1 GROUP   
@<TRIPOS>SET

