#    Name: 6gs8_10_C2E_CAVITY_N1_ALL
#    Modification time : Fri May 22 19:29:31 2020

@<TRIPOS>MOLECULE
6gs8_10_C2E_CAVITY_N1_ALL
   77     0     5     0     0
SMALL
NO_CHARGES


@<TRIPOS>ATOM
      1 O         -41.0500   20.0000  -20.0400 O.2       1 ALA2        0.0000 
      2 O         -39.0400   20.6800  -20.0100 O.2       1 ALA2        0.0000 
      3 O         -39.9900   20.1300  -18.9900 O.2       1 ALA2        0.0000 
      4 N         -39.4000   18.3200  -17.2200 N.am      1 ALA2        0.0000 
      5 N         -40.3500   17.7700  -16.1900 N.am      1 ALA2        0.0000 
      6 O         -40.8200   19.1600  -15.8900 O.2       1 ALA2        0.0000 
      7 N         -41.3000   17.2200  -15.1700 N.am      1 ALA2        0.0000 
      8 N         -37.8700   17.0600  -16.4800 N.am      1 ALA2        0.0000 
      9 N         -38.3400   18.4500  -16.1700 N.am      1 ALA2        0.0000 
     10 O         -38.8100   19.8400  -15.8600 O.2       1 ALA2        0.0000 
     11 O         -39.2800   21.2300  -15.5600 O.2       1 ALA2        0.0000 
     12 N         -39.2900   17.9000  -15.1400 N.am      1 ALA2        0.0000 
     13 O         -39.7600   19.2900  -14.8400 O.2       1 ALA2        0.0000 
     14 N         -36.8100   17.1800  -15.4300 N.am      1 ALA2        0.0000 
     15 O         -38.2200   21.3600  -14.5000 O.2       1 ALA2        0.0000 
     16 N         -37.7500   16.6400  -14.4000 N.am      1 ALA2        0.0000 
     17 O         -33.8500   18.4100  -16.4300 O.2       1 ALA2        0.0000 
     18 N         -34.7900   21.1900  -15.8100 N.am      1 ALA2        0.0000 
     19 N         -35.7400   20.6400  -14.7900 N.am      1 ALA2        0.0000 
     20 N         -36.6800   20.0900  -13.7600 N.am      1 ALA2        0.0000 
     21 N         -37.1600   21.4800  -13.4500 N.am      1 ALA2        0.0000 
     22 O         -37.6300   22.8800  -13.1500 O.2       1 ALA2        0.0000 
     23 OD1       -40.4600   18.1900  -18.2700 O.co2     2 ASP3        0.0000 
     24 OD1       -40.9400   19.5800  -17.9600 O.co2     2 ASP3        0.0000 
     25 OD1       -37.9800   20.8000  -18.9600 O.co2     2 ASP3        0.0000 
     26 OD1       -38.4500   22.2000  -18.6600 O.co2     2 ASP3        0.0000 
     27 OD1       -39.4000   21.6500  -17.6300 O.co2     2 ASP3        0.0000 
     28 OD1       -36.9100   20.9300  -17.9100 O.co2     2 ASP3        0.0000 
     29 OD1       -37.8600   20.3900  -16.8900 O.co2     2 ASP3        0.0000 
     30 OD1       -38.3300   21.7800  -16.5800 O.co2     2 ASP3        0.0000 
     31 OD1       -34.4200   26.8700  -19.0200 O.co2     2 ASP3        0.0000 
     32 OD1       -35.8500   21.0600  -16.8600 O.co2     2 ASP3        0.0000 
     33 OD1       -37.2700   21.9000  -15.5300 O.co2     2 ASP3        0.0000 
     34 OD1       -37.7400   23.2900  -15.2200 O.co2     2 ASP3        0.0000 
     35 OD1       -33.8300   25.0600  -17.2500 O.co2     2 ASP3        0.0000 
     36 OD1       -34.3000   26.4500  -16.9400 O.co2     2 ASP3        0.0000 
     37 OD1       -34.7700   27.8500  -16.6400 O.co2     2 ASP3        0.0000 
     38 OD1       -34.3100   23.1300  -16.5300 O.co2     2 ASP3        0.0000 
     39 OD1       -34.7800   24.5200  -16.2200 O.co2     2 ASP3        0.0000 
     40 OD1       -35.2500   25.9100  -15.9200 O.co2     2 ASP3        0.0000 
     41 OD1       -35.7200   27.3000  -15.6100 O.co2     2 ASP3        0.0000 
     42 OD1       -35.2600   22.5800  -15.5000 O.co2     2 ASP3        0.0000 
     43 OD1       -35.7300   23.9700  -15.2000 O.co2     2 ASP3        0.0000 
     44 OD1       -36.2000   25.3600  -14.8900 O.co2     2 ASP3        0.0000 
     45 OD1       -36.6800   23.4200  -14.1700 O.co2     2 ASP3        0.0000 
     46 OD1       -32.7600   28.5200  -16.6100 O.co2     2 ASP3        0.0000 
     47 OD1       -33.2400   26.5800  -15.8900 O.co2     2 ASP3        0.0000 
     48 OD1       -33.7100   27.9700  -15.5800 O.co2     2 ASP3        0.0000 
     49 OD1       -32.7800   21.8600  -15.7900 O.co2     2 ASP3        0.0000 
     50 OD1       -33.7200   24.6400  -15.1700 O.co2     2 ASP3        0.0000 
     51 OD1       -34.1900   26.0400  -14.8700 O.co2     2 ASP3        0.0000 
     52 OD1       -34.6600   27.4300  -14.5600 O.co2     2 ASP3        0.0000 
     53 OD1       -34.2000   22.7100  -14.4500 O.co2     2 ASP3        0.0000 
     54 OD1       -34.6700   24.1000  -14.1500 O.co2     2 ASP3        0.0000 
     55 OD1       -35.1400   22.1600  -13.4300 O.co2     2 ASP3        0.0000 
     56 OD1       -35.6100   23.5500  -13.1200 O.co2     2 ASP3        0.0000 
     57 NZ        -37.1500   24.8100  -13.8700 N.4       3 LYS4        0.0000 
     58 NZ        -35.1400   25.4900  -13.8400 N.4       3 LYS4        0.0000 
     59 NZ        -36.0900   24.9400  -12.8100 N.4       3 LYS4        0.0000 
     60 CA        -39.5100   22.0700  -19.7100 C.3       4 GLY6        0.0000 
     61 CA        -39.5200   18.7400  -19.3000 C.3       4 GLY6        0.0000 
     62 CA        -40.4600   21.5200  -18.6800 C.3       4 GLY6        0.0000 
     63 CA        -39.8700   19.7100  -16.9100 C.3       4 GLY6        0.0000 
     64 CA        -38.6900   22.7500  -14.2000 C.3       4 GLY6        0.0000 
     65 CA        -38.2200   18.0300  -14.0900 C.3       4 GLY6        0.0000 
     66 CA        -38.7000   19.4200  -13.7900 C.3       4 GLY6        0.0000 
     67 CA        -34.7900   17.8600  -15.4000 C.3       4 GLY6        0.0000 
     68 CA        -35.2700   19.2500  -15.0900 C.3       4 GLY6        0.0000 
     69 DU        -38.4500   18.8700  -18.2500 H         5 CUB7        0.0000 
     70 DU        -38.9200   20.2600  -17.9400 H         5 CUB7        0.0000 
     71 DU        -35.3800   19.6700  -17.1700 H         5 CUB7        0.0000 
     72 DU        -35.8600   17.7300  -16.4500 H         5 CUB7        0.0000 
     73 DU        -36.3300   19.1200  -16.1400 H         5 CUB7        0.0000 
     74 DU        -36.8000   20.5100  -15.8400 H         5 CUB7        0.0000 
     75 DU        -37.2800   18.5700  -15.1200 H         5 CUB7        0.0000 
     76 DU        -37.7500   19.9700  -14.8100 H         5 CUB7        0.0000 
     77 DU        -36.2100   22.0300  -14.4800 H         5 CUB7        0.0000 
@<TRIPOS>BOND
@<TRIPOS>SUBSTRUCTURE
     1 ALA2        1 GROUP   
     2 ASP3       23 GROUP   
     3 LYS4       57 GROUP   
     4 GLY6       60 GROUP   
     5 CUB7       69 GROUP   
@<TRIPOS>SET

