#    Name: 6gs8_8_C2E_CAVITY_N1_12
#    Modification time : Fri May 22 19:29:10 2020

@<TRIPOS>MOLECULE
6gs8_8_C2E_CAVITY_N1_12
   72     0     5     0     0
SMALL
NO_CHARGES


@<TRIPOS>ATOM
      1 O         -16.2900   14.7400   19.7900 O.2       1 ALA2        0.0000 
      2 O         -16.7600   16.1300   20.1000 O.2       1 ALA2        0.0000 
      3 O         -17.2300   17.5200   20.4100 O.2       1 ALA2        0.0000 
      4 N         -17.2300   14.1900   20.8200 N.am      1 ALA2        0.0000 
      5 N         -18.6500   15.0400   22.1500 N.am      1 ALA2        0.0000 
      6 N         -19.6000   14.4900   23.1800 N.am      1 ALA2        0.0000 
      7 N         -15.6900   19.5900   20.7400 N.am      1 ALA2        0.0000 
      8 N         -16.1700   17.6500   21.4600 N.am      1 ALA2        0.0000 
      9 N         -16.6400   19.0400   21.7600 N.am      1 ALA2        0.0000 
     10 N         -16.1700   14.3200   21.8700 N.am      1 ALA2        0.0000 
     11 N         -16.6400   15.7100   22.1700 N.am      1 ALA2        0.0000 
     12 N         -17.5900   15.1600   23.2000 N.am      1 ALA2        0.0000 
     13 N         -18.5400   14.6200   24.2300 N.am      1 ALA2        0.0000 
     14 N         -15.5700   19.1700   22.8100 N.am      1 ALA2        0.0000 
     15 O         -15.5800   15.8400   23.2300 O.2       1 ALA2        0.0000 
     16 N         -16.5200   18.6200   23.8400 N.am      1 ALA2        0.0000 
     17 N         -17.0000   16.6800   24.5600 N.am      1 ALA2        0.0000 
     18 N         -17.4800   14.7400   25.2800 N.am      1 ALA2        0.0000 
     19 O         -17.9500   16.1300   25.5800 O.2       1 ALA2        0.0000 
     20 OD1       -20.1700   22.9600   20.5800 O.co2     2 ASP3        0.0000 
     21 OD1       -19.7100   18.2400   20.6900 O.co2     2 ASP3        0.0000 
     22 OD1       -15.8000   20.0100   18.6600 O.co2     2 ASP3        0.0000 
     23 OD1       -17.2100   24.1800   19.5800 O.co2     2 ASP3        0.0000 
     24 OD1       -17.2200   20.8500   19.9900 O.co2     2 ASP3        0.0000 
     25 OD1       -17.6900   22.2400   20.3000 O.co2     2 ASP3        0.0000 
     26 OD1       -18.1600   23.6300   20.6100 O.co2     2 ASP3        0.0000 
     27 OD1       -17.7000   18.9100   20.7100 O.co2     2 ASP3        0.0000 
     28 OD1       -18.1700   20.3000   21.0200 O.co2     2 ASP3        0.0000 
     29 OD1       -19.5800   24.4700   21.9400 O.co2     2 ASP3        0.0000 
     30 OD1       -20.0500   25.8700   22.2500 O.co2     2 ASP3        0.0000 
     31 OD1       -18.6500   18.3600   21.7400 O.co2     2 ASP3        0.0000 
     32 OD1       -19.5900   17.8200   22.7600 O.co2     2 ASP3        0.0000 
     33 OD1       -20.0700   15.8800   23.4800 O.co2     2 ASP3        0.0000 
     34 OD1       -16.1500   27.6300   20.2200 O.co2     2 ASP3        0.0000 
     35 OD1       -16.6200   25.7000   20.9400 O.co2     2 ASP3        0.0000 
     36 OD1       -17.0900   27.0900   21.2500 O.co2     2 ASP3        0.0000 
     37 OD1       -16.1600   20.9800   21.0400 O.co2     2 ASP3        0.0000 
     38 OD1       -16.6300   22.3700   21.3500 O.co2     2 ASP3        0.0000 
     39 OD1       -17.1000   23.7600   21.6600 O.co2     2 ASP3        0.0000 
     40 OD1       -17.5700   25.1500   21.9700 O.co2     2 ASP3        0.0000 
     41 OD1       -18.0400   26.5400   22.2700 O.co2     2 ASP3        0.0000 
     42 OD1       -17.1100   20.4300   22.0700 O.co2     2 ASP3        0.0000 
     43 OD1       -17.5800   21.8200   22.3800 O.co2     2 ASP3        0.0000 
     44 OD1       -18.5200   24.6000   22.9900 O.co2     2 ASP3        0.0000 
     45 OD1       -17.5800   18.4900   22.7900 O.co2     2 ASP3        0.0000 
     46 OD1       -18.5300   17.9400   23.8100 O.co2     2 ASP3        0.0000 
     47 OD1       -19.0100   16.0100   24.5300 O.co2     2 ASP3        0.0000 
     48 OD1       -19.4900   14.0700   25.2500 O.co2     2 ASP3        0.0000 
     49 OD1       -15.5600   25.8200   21.9900 O.co2     2 ASP3        0.0000 
     50 OD1       -15.5700   22.5000   22.4000 O.co2     2 ASP3        0.0000 
     51 OD1       -16.5100   25.2800   23.0200 O.co2     2 ASP3        0.0000 
     52 OD1       -16.0400   20.5600   23.1200 O.co2     2 ASP3        0.0000 
     53 OD1       -16.9900   20.0100   24.1500 O.co2     2 ASP3        0.0000 
     54 OD1       -17.4600   21.4000   24.4500 O.co2     2 ASP3        0.0000 
     55 OD1       -18.4200   14.2000   26.3000 O.co2     2 ASP3        0.0000 
     56 NZ        -18.9900   25.9900   23.3000 N.4       3 LYS4        0.0000 
     57 NZ        -16.0400   23.8900   22.7100 N.4       3 LYS4        0.0000 
     58 NZ        -16.5100   21.9500   23.4300 N.4       3 LYS4        0.0000 
     59 CA        -15.2200   14.8700   20.8400 C.3       4 GLY6        0.0000 
     60 CA        -15.6900   16.2600   21.1500 C.3       4 GLY6        0.0000 
     61 CA        -19.4800   17.4000   24.8400 C.3       4 GLY6        0.0000 
     62 CA        -15.1000   17.7800   22.5100 C.3       4 GLY6        0.0000 
     63 CA        -16.5300   15.2900   24.2500 C.3       4 GLY6        0.0000 
     64 CA        -17.4700   18.0700   24.8700 C.3       4 GLY6        0.0000 
     65 CA        -17.9400   19.4600   25.1700 C.3       4 GLY6        0.0000 
     66 CA        -15.9300   20.1400   25.2000 C.3       4 GLY6        0.0000 
     67 DU        -18.6300   25.0200   20.9100 H         5 CUB7        0.0000 
     68 DU        -17.7100   15.5800   21.1200 H         5 CUB7        0.0000 
     69 DU        -18.1800   16.9700   21.4300 H         5 CUB7        0.0000 
     70 DU        -19.1200   16.4300   22.4600 H         5 CUB7        0.0000 
     71 DU        -17.1100   17.1000   22.4800 H         5 CUB7        0.0000 
     72 DU        -18.0600   16.5500   23.5100 H         5 CUB7        0.0000 
@<TRIPOS>BOND
@<TRIPOS>SUBSTRUCTURE
     1 ALA2        1 GROUP   
     2 ASP3       20 GROUP   
     3 LYS4       56 GROUP   
     4 GLY6       59 GROUP   
     5 CUB7       67 GROUP   
@<TRIPOS>SET

