#    Name: 6gmd_1_ATP
#    Modification time : Fri May 22 19:26:19 2020

@<TRIPOS>MOLECULE
6gmd_1_ATP
   19    21     1     0     1
SMALL
NO_CHARGES


@<TRIPOS>ATOM
      1 O5'         5.0890  157.2210  391.9090 O.3       1 ATP403      0.0000 
      2 C5'         5.3930  158.5210  391.3550 C.3       1 ATP403      0.0000 
      3 C4'         6.3780  159.3160  392.1900 C.3       1 ATP403      0.0000 
      4 O4'         7.0930  160.2620  391.3650 O.3       1 ATP403      0.0000 
      5 C3'         5.8260  160.1460  393.3460 C.3       1 ATP403      0.0000 
      6 O3'         6.7670  160.1430  394.4150 O.3       1 ATP403      0.0000 
      7 C2'         5.6090  161.5440  392.7290 C.3       1 ATP403      0.0000 
      8 O2'         5.9380  162.6080  393.6180 O.3       1 ATP403      0.0000 
      9 C1'         6.5530  161.5660  391.5120 C.3       1 ATP403      0.0000 
     10 N9          5.9200  161.9710  390.2500 N.pl3     1 ATP403      0.0000 
     11 C8          5.2440  161.1590  389.3750 C.2       1 ATP403      0.0000 
     12 N7          4.7470  161.7830  388.3350 N.2       1 ATP403      0.0000 
     13 C5          5.1330  163.1010  388.5280 C.ar      1 ATP403      0.0000 
     14 C6          4.9400  164.2700  387.7580 C.ar      1 ATP403      0.0000 
     15 N6          4.2970  164.2870  386.5880 N.pl3     1 ATP403      0.0000 
     16 N1          5.4640  165.4290  388.2290 N.ar      1 ATP403      0.0000 
     17 C2          6.1390  165.4070  389.3870 C.ar      1 ATP403      0.0000 
     18 N3          6.3910  164.3670  390.1920 N.ar      1 ATP403      0.0000 
     19 C4          5.8570  163.2350  389.7050 C.ar      1 ATP403      0.0000 
@<TRIPOS>BOND
     1    1    2 1    
     2    2    3 1    
     3    3    4 1    
     4    3    5 1    
     5    4    9 1    
     6    5    6 1    
     7    5    7 1    
     8    7    8 1    
     9    7    9 1    
    10    9   10 1    
    11   10   11 1    
    12   10   19 1    
    13   11   12 2    
    14   12   13 1    
    15   13   14 ar   
    16   13   19 ar   
    17   14   15 1    
    18   14   16 ar   
    19   16   17 ar   
    20   17   18 ar   
    21   18   19 ar   
@<TRIPOS>SUBSTRUCTURE
     1 ATP403      1 GROUP   
@<TRIPOS>SET
ATOM$ORANGE STATIC     ATOMS   COLORGROUP SYSTEM 
20 2 2 3 3 5 5 7 7 9 9 11 11 13 13 14 14 17 \
17 19 19 

