#    Name: 6ax0_1_28E
#    Modification time : Fri May 22 19:28:13 2020

@<TRIPOS>MOLECULE
6ax0_1_28E
   21    23     1     0     0
SMALL
NO_CHARGES


@<TRIPOS>ATOM
      1 OAB         9.5940    3.2830    9.1830 O.3       1 28E202      0.0000 
      2 CAT         8.5450    2.5010    8.7840 C.ar      1 28E202      0.0000 
      3 CAK         8.5940    1.8130    7.5640 C.ar      1 28E202      0.0000 
      4 CAY         7.5170    1.0230    7.1580 C.ar      1 28E202      0.0000 
      5 OAG         7.5940    0.3610    5.9710 O.3       1 28E202      0.0000 
      6 CBD         6.3890    0.9170    7.9700 C.ar      1 28E202      0.0000 
      7 CAP         5.1980    0.0680    7.5490 C.3       1 28E202      0.0000 
      8 CAN         7.4100    2.3950    9.5860 C.ar      1 28E202      0.0000 
      9 CBC         6.3410    1.6080    9.1820 C.ar      1 28E202      0.0000 
     10 OAR         5.2370    1.5300    9.9970 O.3       1 28E202      0.0000 
     11 CBF         3.9910    1.2870    9.3660 C.3       1 28E202      0.0000 
     12 CBE         4.1650   -0.0560    8.6590 C.3       1 28E202      0.0000 
     13 OAQ         4.6070   -1.0760    9.5520 O.3       1 28E202      0.0000 
     14 CBA         2.8140    1.3470   10.2830 C.ar      1 28E202      0.0000 
     15 CAO         1.6510    1.9520    9.7980 C.ar      1 28E202      0.0000 
     16 CAV         0.5100    2.0490   10.5890 C.ar      1 28E202      0.0000 
     17 OAD        -0.6090    2.6370   10.1050 O.3       1 28E202      0.0000 
     18 CAU         0.4990    1.5520   11.8780 C.ar      1 28E202      0.0000 
     19 OAC        -0.6420    1.6790   12.6160 O.3       1 28E202      0.0000 
     20 CAI         1.6560    0.9490   12.3860 C.ar      1 28E202      0.0000 
     21 CAJ         2.8110    0.8470   11.5940 C.ar      1 28E202      0.0000 
@<TRIPOS>BOND
     1    1    2 1    
     2    2    3 ar   
     3    2    8 ar   
     4    3    4 ar   
     5    4    5 1    
     6    4    6 ar   
     7    6    7 1    
     8    6    9 ar   
     9    7   12 1    
    10    8    9 ar   
    11    9   10 1    
    12   10   11 1    
    13   11   12 1    
    14   11   14 1    
    15   12   13 1    
    16   14   15 ar   
    17   14   21 ar   
    18   15   16 ar   
    19   16   17 1    
    20   16   18 ar   
    21   18   19 1    
    22   18   20 ar   
    23   20   21 ar   
@<TRIPOS>SUBSTRUCTURE
     1 28E202      1 GROUP   
@<TRIPOS>SET

