#    Name: 6ax0_2_28E
#    Modification time : Fri May 22 19:28:18 2020

@<TRIPOS>MOLECULE
6ax0_2_28E
   21    23     1     0     0
SMALL
NO_CHARGES


@<TRIPOS>ATOM
      1 OAB         9.1760   23.7300    9.6540 O.3       1 28E202      0.0000 
      2 CAT         8.7490   24.5190    8.6250 C.ar      1 28E202      0.0000 
      3 CAK         7.5330   25.2110    8.7010 C.ar      1 28E202      0.0000 
      4 CAY         7.1080   26.0100    7.6330 C.ar      1 28E202      0.0000 
      5 OAG         5.9240   26.6790    7.7270 O.3       1 28E202      0.0000 
      6 CBD         7.8980   26.1100    6.4910 C.ar      1 28E202      0.0000 
      7 CAP         7.4670   26.9670    5.3200 C.3       1 28E202      0.0000 
      8 CAN         9.5240   24.6210    7.4770 C.ar      1 28E202      0.0000 
      9 CBC         9.1030   25.4120    6.4250 C.ar      1 28E202      0.0000 
     10 OAR         9.9010   25.4760    5.3190 O.3       1 28E202      0.0000 
     11 CBF         9.2760   25.7680    4.0810 C.3       1 28E202      0.0000 
     12 CBE         8.5930   27.1190    4.3010 C.3       1 28E202      0.0000 
     13 OAQ         9.5090   28.1010    4.7860 O.3       1 28E202      0.0000 
     14 CBA        10.2380   25.6790    2.9450 C.ar      1 28E202      0.0000 
     15 CAO         9.8060   25.1060    1.7470 C.ar      1 28E202      0.0000 
     16 CAV        10.6730   24.9930    0.6610 C.ar      1 28E202      0.0000 
     17 OAD        10.2390   24.4490   -0.5010 O.3       1 28E202      0.0000 
     18 CAU        11.9840   25.4350    0.7540 C.ar      1 28E202      0.0000 
     19 OAC        12.8210   25.3120   -0.3160 O.3       1 28E202      0.0000 
     20 CAI        12.4320   25.9950    1.9490 C.ar      1 28E202      0.0000 
     21 CAJ        11.5670   26.1130    3.0410 C.ar      1 28E202      0.0000 
@<TRIPOS>BOND
     1    1    2 1    
     2    2    3 ar   
     3    2    8 ar   
     4    3    4 ar   
     5    4    5 1    
     6    4    6 ar   
     7    6    7 1    
     8    6    9 ar   
     9    7   12 1    
    10    8    9 ar   
    11    9   10 1    
    12   10   11 1    
    13   11   12 1    
    14   11   14 1    
    15   12   13 1    
    16   14   15 ar   
    17   14   21 ar   
    18   15   16 ar   
    19   16   17 1    
    20   16   18 ar   
    21   18   19 1    
    22   18   20 ar   
    23   20   21 ar   
@<TRIPOS>SUBSTRUCTURE
     1 28E202      1 GROUP   
@<TRIPOS>SET

