#    Name: 6ehh_4_2GE_CAVITY_N1_4
#    Modification time : Fri May 22 19:25:46 2020

@<TRIPOS>MOLECULE
6ehh_4_2GE_CAVITY_N1_4
   71     0     6     0     0
SMALL
NO_CHARGES


@<TRIPOS>ATOM
      1 N           6.7900  -30.8600   19.9100 N.am      1 ALA2        0.0000 
      2 N           7.7400  -30.8400   18.7600 N.am      1 ALA2        0.0000 
      3 N           5.9600  -29.8000   19.2500 N.am      1 ALA2        0.0000 
      4 O           6.9100  -29.7800   18.0900 O.2       1 ALA2        0.0000 
      5 O           7.8700  -29.7700   16.9300 O.2       1 ALA2        0.0000 
      6 N           4.1800  -28.7500   19.7400 N.am      1 ALA2        0.0000 
      7 O           5.1300  -28.7400   18.5800 O.2       1 ALA2        0.0000 
      8 O           7.9900  -28.6900   15.1100 O.2       1 ALA2        0.0000 
      9 N           7.6000  -29.8000   20.6000 N.am      1 ALA2        0.0000 
     10 N           8.5500  -29.7800   19.4400 N.am      1 ALA2        0.0000 
     11 O           6.9000  -27.6600   18.1100 O.2       1 ALA2        0.0000 
     12 O           7.8500  -27.6500   16.9500 O.2       1 ALA2        0.0000 
     13 O           8.8100  -27.6300   15.7900 O.2       1 ALA2        0.0000 
     14 O           7.0300  -26.5900   16.2800 O.2       1 ALA2        0.0000 
     15 O           7.9800  -26.5700   15.1200 O.2       1 ALA2        0.0000 
     16 O           6.4900  -26.6400   23.6100 O.2       1 ALA2        0.0000 
     17 OD1         4.0400  -27.7100   21.5800 O.co2     2 ASP3        0.0000 
     18 OD1         4.9900  -27.6900   20.4200 O.co2     2 ASP3        0.0000 
     19 OD1         5.9500  -27.6800   19.2600 O.co2     2 ASP3        0.0000 
     20 OD1         4.8500  -26.6400   22.2600 O.co2     2 ASP3        0.0000 
     21 OD1         5.8000  -26.6300   21.1000 O.co2     2 ASP3        0.0000 
     22 OD1         6.7600  -26.6100   19.9500 O.co2     2 ASP3        0.0000 
     23 OD1         5.9300  -25.5500   19.2800 O.co2     2 ASP3        0.0000 
     24 OD1         5.6600  -25.5800   22.9400 O.co2     2 ASP3        0.0000 
     25 OD1         5.7900  -24.5100   21.1200 O.co2     2 ASP3        0.0000 
     26 NZ         10.7100  -27.6000   13.4700 N.4       3 LYS4        0.0000 
     27 NZ         10.7000  -25.4800   13.4900 N.4       3 LYS4        0.0000 
     28 CZ          9.7700  -29.7400   14.6200 C.ar      4 PHE5        0.0000 
     29 CZ          8.9500  -28.6800   13.9500 C.ar      4 PHE5        0.0000 
     30 CZ         10.5800  -28.6800   15.3000 C.ar      4 PHE5        0.0000 
     31 CZ          9.7600  -27.6200   14.6300 C.ar      4 PHE5        0.0000 
     32 CZ          8.9300  -26.5600   13.9700 C.ar      4 PHE5        0.0000 
     33 CZ          7.5800  -27.6700   20.6100 C.ar      4 PHE5        0.0000 
     34 CZ         11.4000  -27.6100   15.9800 C.ar      4 PHE5        0.0000 
     35 CZ         11.5200  -26.5400   14.1600 C.ar      4 PHE5        0.0000 
     36 CZ          6.8800  -25.5400   18.1200 C.ar      4 PHE5        0.0000 
     37 CZ          7.8400  -25.5200   16.9600 C.ar      4 PHE5        0.0000 
     38 CZ          8.7900  -25.5100   15.8100 C.ar      4 PHE5        0.0000 
     39 CZ          9.7400  -25.4900   14.6500 C.ar      4 PHE5        0.0000 
     40 CZ         11.6500  -25.4700   12.3300 C.ar      4 PHE5        0.0000 
     41 CZ          7.4400  -26.6300   22.4500 C.ar      4 PHE5        0.0000 
     42 CZ          6.6200  -25.5700   21.7900 C.ar      4 PHE5        0.0000 
     43 CZ          7.5700  -25.5500   20.6300 C.ar      4 PHE5        0.0000 
     44 CZ         12.3400  -25.4800   14.8400 C.ar      4 PHE5        0.0000 
     45 CZ          6.7400  -24.4900   19.9600 C.ar      4 PHE5        0.0000 
     46 CZ         11.5100  -24.4200   14.1700 C.ar      4 PHE5        0.0000 
     47 CZ          7.4300  -24.5100   22.4700 C.ar      4 PHE5        0.0000 
     48 CZ          8.3800  -24.4900   21.3100 C.ar      4 PHE5        0.0000 
     49 CA          5.1500  -30.8600   18.5700 C.3       5 GLY6        0.0000 
     50 CA          8.6900  -30.8300   17.6000 C.3       5 GLY6        0.0000 
     51 CA          9.6500  -30.8100   16.4400 C.3       5 GLY6        0.0000 
     52 CA          8.8200  -29.7500   15.7700 C.3       5 GLY6        0.0000 
     53 CA          9.5000  -29.7700   18.2800 C.3       5 GLY6        0.0000 
     54 CA         10.4600  -29.7500   17.1200 C.3       5 GLY6        0.0000 
     55 CA          5.8200  -28.7500   21.0900 C.3       5 GLY6        0.0000 
     56 CA          8.6800  -28.7100   17.6100 C.3       5 GLY6        0.0000 
     57 CA          9.6300  -28.6900   16.4600 C.3       5 GLY6        0.0000 
     58 CA          5.6800  -27.7000   22.9300 C.3       5 GLY6        0.0000 
     59 CA          6.6300  -27.6900   21.7700 C.3       5 GLY6        0.0000 
     60 CA          8.5400  -27.6600   19.4500 C.3       5 GLY6        0.0000 
     61 CA          7.7100  -26.6000   18.7900 C.3       5 GLY6        0.0000 
     62 CA          8.6600  -26.5800   17.6300 C.3       5 GLY6        0.0000 
     63 CA          9.6200  -26.5700   16.4700 C.3       5 GLY6        0.0000 
     64 CA         10.5700  -26.5500   15.3100 C.3       5 GLY6        0.0000 
     65 CA          8.5200  -25.5400   19.4700 C.3       5 GLY6        0.0000 
     66 CA         11.3800  -25.4900   16.0000 C.3       5 GLY6        0.0000 
     67 CA         10.5600  -24.4300   15.3300 C.3       5 GLY6        0.0000 
     68 CA          6.4700  -24.5200   23.6300 C.3       5 GLY6        0.0000 
     69 CA          6.6000  -23.4500   21.8000 C.3       5 GLY6        0.0000 
     70 DU          6.7700  -28.7400   19.9300 H         6 CUB7        0.0000 
     71 DU          7.7200  -28.7200   18.7700 H         6 CUB7        0.0000 
@<TRIPOS>BOND
@<TRIPOS>SUBSTRUCTURE
     1 ALA2        1 GROUP   
     2 ASP3       17 GROUP   
     3 LYS4       26 GROUP   
     4 PHE5       28 GROUP   
     5 GLY6       49 GROUP   
     6 CUB7       70 GROUP   
@<TRIPOS>SET

