#    Name: 6ehh_1_2GE
#    Modification time : Fri May 22 19:25:35 2020

@<TRIPOS>MOLECULE
6ehh_1_2GE
   19    21     1     0     0
SMALL
NO_CHARGES


@<TRIPOS>ATOM
      1 C13        10.2600   -4.6220   11.7090           1 2GE201      0.0000 
      2 C17         9.1520   -7.7720   12.3360           1 2GE201      0.0000 
      3 N01         8.5260   -1.6820    9.3040           1 2GE201      0.0000 
      4 C02         9.1310   -2.7080   10.1470           1 2GE201      0.0000 
      5 N03        10.4500   -2.7060   10.3140           1 2GE201      0.0000 
      6 C04        11.0300   -3.6340   11.0720           1 2GE201      0.0000 
      7 C05        12.5590   -3.5590   11.2280           1 2GE201      0.0000 
      8 C06        13.1170   -2.3320   11.5970           1 2GE201      0.0000 
      9 C07        14.4960   -2.2070   11.7420           1 2GE201      0.0000 
     10 C08        15.3300   -3.3010   11.5130           1 2GE201      0.0000 
     11 C09        14.7750   -4.5260   11.1410           1 2GE201      0.0000 
     12 CL1        15.8380   -5.9330   10.8450           1 2GE201      0.0000 
     13 C11        13.3930   -4.6600   10.9940           1 2GE201      0.0000 
     14 CL2        12.7330   -6.2500   10.5170           1 2GE201      0.0000 
     15 C14         8.8710   -4.5880   11.4950           1 2GE201      0.0000 
     16 N15         7.9630   -5.5650   12.0910           1 2GE201      0.0000 
     17 C16         8.4520   -6.5910   13.0040           1 2GE201      0.0000 
     18 C18         7.7340   -7.9340   12.8950           1 2GE201      0.0000 
     19 N19         8.3620   -3.6300   10.7240           1 2GE201      0.0000 
@<TRIPOS>BOND
     1    1    6 du   
     2    1   15 du   
     3    2   17 du   
     4    2   18 du   
     5    3    4 du   
     6    4    5 du   
     7    4   19 du   
     8    5    6 du   
     9    6    7 du   
    10    7    8 du   
    11    7   13 du   
    12    8    9 du   
    13    9   10 du   
    14   10   11 du   
    15   11   12 du   
    16   11   13 du   
    17   13   14 du   
    18   15   16 du   
    19   15   19 du   
    20   16   17 du   
    21   17   18 du   
@<TRIPOS>SUBSTRUCTURE
     1 2GE201      1 GROUP   
@<TRIPOS>SET

