#    Name: 6ehh_2_2GE
#    Modification time : Fri May 22 19:25:38 2020

@<TRIPOS>MOLECULE
6ehh_2_2GE
   19    21     1     0     0
SMALL
NO_CHARGES


@<TRIPOS>ATOM
      1 C13       -16.2610   -5.6580   30.1300           1 2GE201      0.0000 
      2 C17       -14.2350   -9.2130   28.4860           1 2GE201      0.0000 
      3 N01       -13.9610   -2.8660   32.2170           1 2GE201      0.0000 
      4 C02       -14.7620   -3.8410   31.4850           1 2GE201      0.0000 
      5 N03       -16.0800   -3.6700   31.4200           1 2GE201      0.0000 
      6 C04       -16.8410   -4.5460   30.7600           1 2GE201      0.0000 
      7 C05       -18.3630   -4.3130   30.7150           1 2GE201      0.0000 
      8 C06       -18.8530   -3.0690   30.3050           1 2GE201      0.0000 
      9 C07       -20.2300   -2.8400   30.2700           1 2GE201      0.0000 
     10 C08       -21.1240   -3.8440   30.6490           1 2GE201      0.0000 
     11 C09       -20.6330   -5.0840   31.0700           1 2GE201      0.0000 
     12 CL1       -21.7350   -6.4000   31.5700           1 2GE201      0.0000 
     13 C11       -19.2610   -5.3190   31.1040           1 2GE201      0.0000 
     14 CL2       -18.7110   -6.9310   31.6480           1 2GE201      0.0000 
     15 C14       -14.8660   -5.8000   30.2240           1 2GE201      0.0000 
     16 N15       -14.1740   -6.9360   29.6070           1 2GE201      0.0000 
     17 C16       -14.8650   -7.8320   28.6770           1 2GE201      0.0000 
     18 C18       -15.5130   -9.0610   29.3150           1 2GE201      0.0000 
     19 N19       -14.1700   -4.8830   30.9020           1 2GE201      0.0000 
@<TRIPOS>BOND
     1    1    6 du   
     2    1   15 du   
     3    2   17 du   
     4    2   18 du   
     5    3    4 du   
     6    4    5 du   
     7    4   19 du   
     8    5    6 du   
     9    6    7 du   
    10    7    8 du   
    11    7   13 du   
    12    8    9 du   
    13    9   10 du   
    14   10   11 du   
    15   11   12 du   
    16   11   13 du   
    17   13   14 du   
    18   15   16 du   
    19   15   19 du   
    20   16   17 du   
    21   17   18 du   
@<TRIPOS>SUBSTRUCTURE
     1 2GE201      1 GROUP   
@<TRIPOS>SET

