#    Name: 6ehh_3_2GE_CAVITY_N1_12
#    Modification time : Fri May 22 19:25:43 2020

@<TRIPOS>MOLECULE
6ehh_3_2GE_CAVITY_N1_12
   71     0     6     0     0
SMALL
NO_CHARGES


@<TRIPOS>ATOM
      1 N         -23.2500  -29.7900   -8.6900 N.am      1 ALA2        0.0000 
      2 N         -22.3000  -29.7800   -9.8400 N.am      1 ALA2        0.0000 
      3 N         -20.6600  -29.7800   -8.5000 N.am      1 ALA2        0.0000 
      4 N         -21.4800  -28.7200   -9.1600 N.am      1 ALA2        0.0000 
      5 N         -18.0700  -29.7600   -8.3100 N.am      1 ALA2        0.0000 
      6 O         -22.7100  -28.7600   -4.3400 O.2       1 ALA2        0.0000 
      7 O         -21.7500  -28.7500   -5.5000 O.2       1 ALA2        0.0000 
      8 O         -20.8000  -28.7300   -6.6600 O.2       1 ALA2        0.0000 
      9 O         -19.8500  -28.7200   -7.8100 O.2       1 ALA2        0.0000 
     10 N         -18.8900  -28.7000   -8.9700 N.am      1 ALA2        0.0000 
     11 O         -22.5800  -27.6900   -6.1600 O.2       1 ALA2        0.0000 
     12 O         -21.6300  -27.6700   -7.3200 O.2       1 ALA2        0.0000 
     13 O         -18.2100  -28.7100   -6.4700 O.2       1 ALA2        0.0000 
     14 O         -21.9000  -27.7000   -3.6600 O.2       1 ALA2        0.0000 
     15 O         -19.0300  -27.6500   -7.1300 O.2       1 ALA2        0.0000 
     16 O         -21.7700  -26.6200   -5.4800 O.2       1 ALA2        0.0000 
     17 O         -20.8100  -26.6100   -6.6400 O.2       1 ALA2        0.0000 
     18 O         -23.5500  -25.5800   -4.9900 O.2       1 ALA2        0.0000 
     19 N         -19.0500  -25.5300   -7.1200 N.am      1 ALA2        0.0000 
     20 N         -19.8800  -24.4700   -7.7800 N.am      1 ALA2        0.0000 
     21 OD1       -17.2600  -28.7000   -7.6200 O.co2     2 ASP3        0.0000 
     22 OD1       -18.0800  -27.6400   -8.2900 O.co2     2 ASP3        0.0000 
     23 OD1       -19.8600  -26.5900   -7.8000 O.co2     2 ASP3        0.0000 
     24 OD1       -20.6900  -25.5300   -8.4700 O.co2     2 ASP3        0.0000 
     25 OD1       -19.7300  -25.5200   -9.6200 O.co2     2 ASP3        0.0000 
     26 NZ        -24.5000  -25.5900   -3.8300 N.4       3 LYS4        0.0000 
     27 CZ        -25.3000  -28.7800   -4.5300 C.ar      4 PHE5        0.0000 
     28 CZ        -22.3100  -27.6600   -9.8300 C.ar      4 PHE5        0.0000 
     29 CZ        -21.3600  -27.6400  -10.9900 C.ar      4 PHE5        0.0000 
     30 CZ        -24.4900  -27.7200   -3.8500 C.ar      4 PHE5        0.0000 
     31 CZ        -25.3100  -26.6600   -4.5200 C.ar      4 PHE5        0.0000 
     32 CZ        -21.5000  -26.6000   -9.1500 C.ar      4 PHE5        0.0000 
     33 CZ        -20.5500  -26.5800  -10.3100 C.ar      4 PHE5        0.0000 
     34 CZ        -23.6700  -26.6500   -3.1700 C.ar      4 PHE5        0.0000 
     35 CZ        -22.7200  -26.6400   -4.3200 C.ar      4 PHE5        0.0000 
     36 CZ        -25.3300  -24.5300   -4.5000 C.ar      4 PHE5        0.0000 
     37 CZ        -21.5100  -24.4700   -9.1300 C.ar      4 PHE5        0.0000 
     38 CZ        -20.5600  -24.4600  -10.2900 C.ar      4 PHE5        0.0000 
     39 CZ        -23.6900  -24.5300   -3.1500 C.ar      4 PHE5        0.0000 
     40 CZ        -22.7400  -24.5200   -4.3100 C.ar      4 PHE5        0.0000 
     41 CZ        -21.7800  -24.5000   -5.4700 C.ar      4 PHE5        0.0000 
     42 CZ        -20.8300  -24.4900   -6.6300 C.ar      4 PHE5        0.0000 
     43 CZ        -25.4700  -23.4900   -2.6600 C.ar      4 PHE5        0.0000 
     44 CZ        -24.5200  -23.4700   -3.8200 C.ar      4 PHE5        0.0000 
     45 CZ        -23.5600  -23.4600   -4.9800 C.ar      4 PHE5        0.0000 
     46 CZ        -22.6100  -23.4400   -6.1300 C.ar      4 PHE5        0.0000 
     47 CZ        -25.3400  -22.4100   -4.4800 C.ar      4 PHE5        0.0000 
     48 CA        -23.5200  -29.8200   -5.0200 C.3       5 GLY6        0.0000 
     49 CA        -22.5600  -29.8100   -6.1800 C.3       5 GLY6        0.0000 
     50 CA        -21.6100  -29.7900   -7.3400 C.3       5 GLY6        0.0000 
     51 CA        -24.3400  -28.7600   -5.6900 C.3       5 GLY6        0.0000 
     52 CA        -23.3900  -28.7500   -6.8500 C.3       5 GLY6        0.0000 
     53 CA        -20.5300  -28.7000  -10.3200 C.3       5 GLY6        0.0000 
     54 CA        -25.1700  -27.7000   -6.3600 C.3       5 GLY6        0.0000 
     55 CA        -24.2200  -27.6900   -7.5100 C.3       5 GLY6        0.0000 
     56 CA        -23.2600  -27.6700   -8.6700 C.3       5 GLY6        0.0000 
     57 CA        -19.0200  -29.7800   -7.1500 C.3       5 GLY6        0.0000 
     58 CA        -23.6600  -28.7800   -3.1800 C.3       5 GLY6        0.0000 
     59 CA        -19.7200  -27.6400   -9.6400 C.3       5 GLY6        0.0000 
     60 CA        -24.3600  -26.6400   -5.6700 C.3       5 GLY6        0.0000 
     61 CA        -23.4100  -26.6300   -6.8300 C.3       5 GLY6        0.0000 
     62 CA        -22.4500  -26.6100   -7.9900 C.3       5 GLY6        0.0000 
     63 CA        -25.1800  -25.5800   -6.3400 C.3       5 GLY6        0.0000 
     64 CA        -22.3200  -25.5400   -9.8100 C.3       5 GLY6        0.0000 
     65 CA        -22.5900  -25.5600   -6.1500 C.3       5 GLY6        0.0000 
     66 CA        -21.6400  -25.5500   -7.3100 C.3       5 GLY6        0.0000 
     67 CA        -24.3700  -24.5200   -5.6600 C.3       5 GLY6        0.0000 
     68 CA        -26.1500  -23.4700   -5.1700 C.3       5 GLY6        0.0000 
     69 DU        -22.4400  -28.7300   -8.0000 H         6 CUB7        0.0000 
     70 DU        -23.5300  -27.7000   -5.0100 H         6 CUB7        0.0000 
     71 DU        -20.6700  -27.6600   -8.4800 H         6 CUB7        0.0000 
@<TRIPOS>BOND
@<TRIPOS>SUBSTRUCTURE
     1 ALA2        1 GROUP   
     2 ASP3       21 GROUP   
     3 LYS4       26 GROUP   
     4 PHE5       27 GROUP   
     5 GLY6       48 GROUP   
     6 CUB7       69 GROUP   
@<TRIPOS>SET

