#    Name: 6ehh_4_2GE
#    Modification time : Fri May 22 19:25:45 2020

@<TRIPOS>MOLECULE
6ehh_4_2GE
   19    21     1     0     0
SMALL
NO_CHARGES


@<TRIPOS>ATOM
      1 C13         9.4170  -27.6550   15.3300           1 2GE201      0.0000 
      2 C17        11.4030  -24.3090   13.3940           1 2GE201      0.0000 
      3 N01         7.6760  -30.5580   12.8910           1 2GE201      0.0000 
      4 C02         8.2890  -29.5420   13.7390           1 2GE201      0.0000 
      5 N03         8.0500  -29.5770   15.0470           1 2GE201      0.0000 
      6 C04         8.5840  -28.6570   15.8440           1 2GE201      0.0000 
      7 C05         8.3050  -28.7270   17.3530           1 2GE201      0.0000 
      8 C06         8.5920  -29.9250   18.0090           1 2GE201      0.0000 
      9 C07         8.3650  -30.0450   19.3780           1 2GE201      0.0000 
     10 C08         7.8500  -28.9680   20.0980           1 2GE201      0.0000 
     11 C09         7.5660  -27.7730   19.4380           1 2GE201      0.0000 
     12 CL1         6.9100  -26.3930   20.3490           1 2GE201      0.0000 
     13 C11         7.7890  -27.6420   18.0690           1 2GE201      0.0000 
     14 CL2         7.4010  -26.0830   17.2780           1 2GE201      0.0000 
     15 C14         9.6390  -27.6550   13.9450           1 2GE201      0.0000 
     16 N15        10.4800  -26.6450   13.3000           1 2GE201      0.0000 
     17 C16        11.2290  -25.6620   14.0820           1 2GE201      0.0000 
     18 C18        10.4310  -24.4540   14.5680           1 2GE201      0.0000 
     19 N19         9.0640  -28.6020   13.1980           1 2GE201      0.0000 
@<TRIPOS>BOND
     1    1    6 du   
     2    1   15 du   
     3    2   17 du   
     4    2   18 du   
     5    3    4 du   
     6    4    5 du   
     7    4   19 du   
     8    5    6 du   
     9    6    7 du   
    10    7    8 du   
    11    7   13 du   
    12    8    9 du   
    13    9   10 du   
    14   10   11 du   
    15   11   12 du   
    16   11   13 du   
    17   13   14 du   
    18   15   16 du   
    19   15   19 du   
    20   16   17 du   
    21   17   18 du   
@<TRIPOS>SUBSTRUCTURE
     1 2GE201      1 GROUP   
@<TRIPOS>SET

