#    Name: 6ehh_3_2GE
#    Modification time : Fri May 22 19:25:42 2020

@<TRIPOS>MOLECULE
6ehh_3_2GE
   19    21     1     0     0
SMALL
NO_CHARGES


@<TRIPOS>ATOM
      1 C13       -23.7210  -26.3790   -4.5870           1 2GE201      0.0000 
      2 C17       -25.4200  -22.6480   -3.2460           1 2GE201      0.0000 
      3 N01       -22.5480  -29.1220   -1.6720           1 2GE201      0.0000 
      4 C02       -22.9630  -28.1580   -2.6830           1 2GE201      0.0000 
      5 N03       -22.5510  -28.3410   -3.9310           1 2GE201      0.0000 
      6 C04       -22.9040  -27.4810   -4.8830           1 2GE201      0.0000 
      7 C05       -22.4240  -27.7310   -6.3230           1 2GE201      0.0000 
      8 C06       -22.6460  -28.9920   -6.8820           1 2GE201      0.0000 
      9 C07       -22.2260  -29.2630   -8.1830           1 2GE201      0.0000 
     10 C08       -21.5870  -28.2790   -8.9360           1 2GE201      0.0000 
     11 C09       -21.3650  -27.0180   -8.3760           1 2GE201      0.0000 
     12 CL1       -20.5450  -25.7450   -9.3140           1 2GE201      0.0000 
     13 C11       -21.7780  -26.7390   -7.0760           1 2GE201      0.0000 
     14 CL2       -21.4630  -25.1040   -6.4270           1 2GE201      0.0000 
     15 C14       -24.1330  -26.2160   -3.2530           1 2GE201      0.0000 
     16 N15       -24.9730  -25.0860   -2.8420           1 2GE201      0.0000 
     17 C16       -25.4360  -24.0750   -3.7960           1 2GE201      0.0000 
     18 C18       -24.4050  -23.0710   -4.3140           1 2GE201      0.0000 
     19 N19       -23.7320  -27.1160   -2.3480           1 2GE201      0.0000 
@<TRIPOS>BOND
     1    1    6 du   
     2    1   15 du   
     3    2   17 du   
     4    2   18 du   
     5    3    4 du   
     6    4    5 du   
     7    4   19 du   
     8    5    6 du   
     9    6    7 du   
    10    7    8 du   
    11    7   13 du   
    12    8    9 du   
    13    9   10 du   
    14   10   11 du   
    15   11   12 du   
    16   11   13 du   
    17   13   14 du   
    18   15   16 du   
    19   15   19 du   
    20   16   17 du   
    21   17   18 du   
@<TRIPOS>SUBSTRUCTURE
     1 2GE201      1 GROUP   
@<TRIPOS>SET

