#    Name: 5zj5_1_NAI
#    Modification time : Fri May 22 19:24:21 2020

@<TRIPOS>MOLECULE
5zj5_1_NAI
   44    48     1     0     1
SMALL
NO_CHARGES


@<TRIPOS>ATOM
      1 PA        -88.2360   15.6770   17.8880 P.3       1 NAI301      0.0000 
      2 O1A       -86.9240   14.9170   17.6100 O.co2     1 NAI301      0.0000 
      3 O2A       -88.2030   17.1530   17.6630 O.co2     1 NAI301      0.0000 
      4 O5B       -88.6290   15.4880   19.4570 O.3       1 NAI301      0.0000 
      5 C5B       -88.7260   14.2040   20.0380 C.3       1 NAI301      0.0000 
      6 C4B       -88.2110   14.3570   21.4590 C.3       1 NAI301      0.0000 
      7 O4B       -86.8330   14.7120   21.4620 O.3       1 NAI301      0.0000 
      8 C3B       -88.8890   15.4590   22.2670 C.3       1 NAI301      0.0000 
      9 O3B       -90.1010   14.9710   22.8550 O.3       1 NAI301      0.0000 
     10 C2B       -87.8490   15.7550   23.3110 C.3       1 NAI301      0.0000 
     11 O2B       -87.9460   14.6680   24.2380 O.3       1 NAI301      0.0000 
     12 C1B       -86.5300   15.5520   22.5910 C.3       1 NAI301      0.0000 
     13 N9A       -85.9000   16.7600   22.0310 N.pl3     1 NAI301      0.0000 
     14 C8A       -86.2790   17.4060   20.9080 C.2       1 NAI301      0.0000 
     15 N7A       -85.4450   18.4390   20.6390 N.2       1 NAI301      0.0000 
     16 C5A       -84.4760   18.4720   21.5970 C.ar      1 NAI301      0.0000 
     17 C6A       -83.2950   19.3160   21.8700 C.ar      1 NAI301      0.0000 
     18 N6A       -82.9490   20.3550   21.0780 N.pl3     1 NAI301      0.0000 
     19 N1A       -82.5590   18.9960   22.9560 N.ar      1 NAI301      0.0000 
     20 C2A       -82.9110   17.9550   23.7490 C.ar      1 NAI301      0.0000 
     21 N3A       -83.9610   17.1450   23.5620 N.ar      1 NAI301      0.0000 
     22 C4A       -84.7850   17.3570   22.4970 C.ar      1 NAI301      0.0000 
     23 O3        -89.3930   14.9570   17.1040 O.3       1 NAI301      0.0000 
     24 PN        -90.9430   15.3110   17.2880 P.3       1 NAI301      0.0000 
     25 O1N       -91.1390   16.8000   17.5150 O.co2     1 NAI301      0.0000 
     26 O2N       -91.5110   14.3640   18.2990 O.co2     1 NAI301      0.0000 
     27 O5D       -91.4700   14.8760   15.8520 O.3       1 NAI301      0.0000 
     28 C5D       -90.9360   15.4640   14.6600 C.3       1 NAI301      0.0000 
     29 C4D       -91.6880   14.7640   13.5460 C.3       1 NAI301      0.0000 
     30 O4D       -92.9230   14.3600   14.1520 O.3       1 NAI301      0.0000 
     31 C3D       -92.0270   15.7040   12.3990 C.3       1 NAI301      0.0000 
     32 O3D       -91.2180   15.4770   11.2470 O.3       1 NAI301      0.0000 
     33 C2D       -93.4690   15.3620   12.0920 C.3       1 NAI301      0.0000 
     34 O2D       -93.5290   14.3070   11.1010 O.3       1 NAI301      0.0000 
     35 C1D       -94.0310   14.9430   13.4550 C.3       1 NAI301      0.0000 
     36 N1N       -94.6760   16.0950   14.1530 N.pl3     1 NAI301      0.0000 
     37 C2N       -94.5270   16.3390   15.4770 C.2       1 NAI301      0.0000 
     38 C3N       -95.1400   17.4390   16.1090 C.2       1 NAI301      0.0000 
     39 C7N       -95.0340   17.7290   17.5790 C.2       1 NAI301      0.0000 
     40 O7N       -95.9980   18.3250   18.0700 O.2       1 NAI301      0.0000 
     41 N7N       -93.9800   17.3170   18.3050 N.am      1 NAI301      0.0000 
     42 C4N       -96.0050   18.4020   15.3510 C.3       1 NAI301      0.0000 
     43 C5N       -96.0920   18.0230   13.9450 C.2       1 NAI301      0.0000 
     44 C6N       -95.4330   16.9160   13.4190 C.2       1 NAI301      0.0000 
@<TRIPOS>BOND
     1    1    2 ar   
     2    1    3 ar   
     3    1    4 1    
     4    1   23 1    
     5    4    5 1    
     6    5    6 1    
     7    6    7 1    
     8    6    8 1    
     9    7   12 1    
    10    8    9 1    
    11    8   10 1    
    12   10   11 1    
    13   10   12 1    
    14   12   13 1    
    15   13   14 1    
    16   13   22 1    
    17   14   15 2    
    18   15   16 1    
    19   16   17 ar   
    20   16   22 ar   
    21   17   18 1    
    22   17   19 ar   
    23   19   20 ar   
    24   20   21 ar   
    25   21   22 ar   
    26   23   24 1    
    27   24   25 ar   
    28   24   26 ar   
    29   24   27 1    
    30   27   28 1    
    31   28   29 1    
    32   29   30 1    
    33   29   31 1    
    34   30   35 1    
    35   31   32 1    
    36   31   33 1    
    37   33   34 1    
    38   33   35 1    
    39   35   36 1    
    40   36   37 1    
    41   36   44 1    
    42   37   38 2    
    43   38   39 1    
    44   38   42 1    
    45   39   40 2    
    46   39   41 am   
    47   42   43 1    
    48   43   44 2    
@<TRIPOS>SUBSTRUCTURE
     1 NAI301      1 GROUP   
@<TRIPOS>SET
ATOM$ORANGE STATIC     ATOMS   COLORGROUP SYSTEM 
42 5 5 6 6 8 8 10 10 12 12 14 14 16 16 17 17 20 \
20 22 22 28 28 29 29 31 31 33 33 35 35 37 37 38 38 39 \
39 42 42 43 43 44 44 

