#    Name: 5zj5_1_NAI_CAVITY_N1_6
#    Modification time : Fri May 22 19:24:23 2020

@<TRIPOS>MOLECULE
5zj5_1_NAI_CAVITY_N1_6
   74     0     6     0     0
SMALL
NO_CHARGES


@<TRIPOS>ATOM
      1 OG        -97.5900   12.7700   18.2200 O.3       1 SER1        0.0000 
      2 OG        -97.1500   12.9600   16.8000 O.3       1 SER1        0.0000 
      3 OG        -93.9100   15.5000   14.9800 O.3       1 SER1        0.0000 
      4 OG        -93.4700   15.6900   13.5500 O.3       1 SER1        0.0000 
      5 OG        -94.7400   16.7500   16.4700 O.3       1 SER1        0.0000 
      6 OG        -94.3000   16.9400   15.0500 O.3       1 SER1        0.0000 
      7 OG        -95.1300   18.1900   16.5500 O.3       1 SER1        0.0000 
      8 OG        -94.7000   18.3900   15.1300 O.3       1 SER1        0.0000 
      9 OG        -91.2600   14.7900   12.5300 O.3       1 SER1        0.0000 
     10 OG        -92.9700   15.6500   16.8700 O.3       1 SER1        0.0000 
     11 OG        -92.5300   15.8500   15.4500 O.3       1 SER1        0.0000 
     12 OG        -92.0900   16.0400   14.0300 O.3       1 SER1        0.0000 
     13 OG        -91.5900   16.0000   17.3400 O.3       1 SER1        0.0000 
     14 OG        -90.7100   16.3900   14.5000 O.3       1 SER1        0.0000 
     15 N         -97.9800   14.2100   18.2900 N.am      2 ALA2        0.0000 
     16 O         -97.1100   14.6000   15.4500 O.2       2 ALA2        0.0000 
     17 O         -93.2400   11.2000   11.4300 O.2       2 ALA2        0.0000 
     18 O         -94.5000   12.2600   14.3500 O.2       2 ALA2        0.0000 
     19 O         -94.0700   12.4500   12.9300 O.2       2 ALA2        0.0000 
     20 N         -93.6300   12.6500   11.5000 N.am      2 ALA2        0.0000 
     21 O         -95.3300   13.5100   15.8500 O.2       2 ALA2        0.0000 
     22 O         -94.9000   13.7000   14.4300 O.2       2 ALA2        0.0000 
     23 N         -94.4600   13.9000   13.0000 N.am      2 ALA2        0.0000 
     24 O         -95.7300   14.9500   15.9200 O.2       2 ALA2        0.0000 
     25 O         -95.2900   15.1500   14.5000 O.2       2 ALA2        0.0000 
     26 N         -94.8500   15.3400   13.0800 N.am      2 ALA2        0.0000 
     27 O         -91.4600   10.1100   11.8200 O.2       2 ALA2        0.0000 
     28 N         -91.8600   11.5500   11.9000 N.am      2 ALA2        0.0000 
     29 N         -92.2500   13.0000   11.9800 N.am      2 ALA2        0.0000 
     30 N         -93.0800   14.2500   13.4800 N.am      2 ALA2        0.0000 
     31 N         -92.6400   14.4400   12.0600 N.am      2 ALA2        0.0000 
     32 O         -95.5700   18.0000   17.9700 O.2       2 ALA2        0.0000 
     33 O         -91.7400   12.9600   15.2900 O.2       2 ALA2        0.0000 
     34 N         -90.8200   14.9900   11.1100 N.am      2 ALA2        0.0000 
     35 N         -93.4100   15.4600   18.2900 N.am      2 ALA2        0.0000 
     36 N         -93.8000   16.9000   18.3700 N.am      2 ALA2        0.0000 
     37 O         -90.7600   14.7500   15.8400 O.2       2 ALA2        0.0000 
     38 N         -90.3200   14.9500   14.4200 N.am      2 ALA2        0.0000 
     39 N         -89.8800   15.1400   13.0000 N.am      2 ALA2        0.0000 
     40 NZ        -95.2500   16.7900   13.1600 N.4       3 LYS4        0.0000 
     41 NZ        -93.0400   15.8900   12.1300 N.4       3 LYS4        0.0000 
     42 NZ        -91.6600   16.2400   12.6100 N.4       3 LYS4        0.0000 
     43 CZ        -95.0500   10.6600   12.3800 C.ar      4 PHE5        0.0000 
     44 CZ        -92.8400    9.7600   11.3500 C.ar      4 PHE5        0.0000 
     45 CZ        -93.6700   11.0100   12.8500 C.ar      4 PHE5        0.0000 
     46 CA        -97.5500   14.4100   16.8700 C.3       5 GLY6        0.0000 
     47 CA        -97.0600   16.2400   14.1100 C.3       5 GLY6        0.0000 
     48 CA        -96.6000   14.5600   18.7700 C.3       5 GLY6        0.0000 
     49 CA        -97.0000   16.0100   18.8400 C.3       5 GLY6        0.0000 
     50 CA        -96.5600   16.2000   17.4200 C.3       5 GLY6        0.0000 
     51 CA        -96.1200   16.4000   16.0000 C.3       5 GLY6        0.0000 
     52 CA        -95.6800   16.5900   14.5800 C.3       5 GLY6        0.0000 
     53 CA        -96.9500   17.6500   17.5000 C.3       5 GLY6        0.0000 
     54 CA        -96.5100   17.8400   16.0800 C.3       5 GLY6        0.0000 
     55 CA        -96.0800   18.0400   14.6600 C.3       5 GLY6        0.0000 
     56 CA        -92.2000   14.6400   10.6300 C.3       5 GLY6        0.0000 
     57 CA        -95.2200   14.9100   19.2400 C.3       5 GLY6        0.0000 
     58 CA        -95.1800   16.5500   17.9000 C.3       5 GLY6        0.0000 
     59 CA        -93.8700   17.1400   13.6300 C.3       5 GLY6        0.0000 
     60 CA        -90.9100   11.7100   13.7900 C.3       5 GLY6        0.0000 
     61 CA        -91.3100   13.1500   13.8700 C.3       5 GLY6        0.0000 
     62 CA        -90.8700   13.3500   12.4500 C.3       5 GLY6        0.0000 
     63 DU        -95.7700   13.3100   17.2700 H         6 CUB7        0.0000 
     64 DU        -96.1700   14.7600   17.3500 H         6 CUB7        0.0000 
     65 DU        -92.2900   11.3600   13.3200 H         6 CUB7        0.0000 
     66 DU        -93.1200   12.6100   14.8200 H         6 CUB7        0.0000 
     67 DU        -92.6900   12.8000   13.4000 H         6 CUB7        0.0000 
     68 DU        -93.9500   13.8600   16.3200 H         6 CUB7        0.0000 
     69 DU        -93.5200   14.0500   14.9000 H         6 CUB7        0.0000 
     70 DU        -94.7900   15.1100   17.8200 H         6 CUB7        0.0000 
     71 DU        -94.3500   15.3000   16.4000 H         6 CUB7        0.0000 
     72 DU        -92.5800   14.2100   16.7900 H         6 CUB7        0.0000 
     73 DU        -92.1400   14.4000   15.3700 H         6 CUB7        0.0000 
     74 DU        -91.7000   14.6000   13.9500 H         6 CUB7        0.0000 
@<TRIPOS>BOND
@<TRIPOS>SUBSTRUCTURE
     1 SER1        1 GROUP   
     2 ALA2       15 GROUP   
     3 LYS4       40 GROUP   
     4 PHE5       43 GROUP   
     5 GLY6       46 GROUP   
     6 CUB7       63 GROUP   
@<TRIPOS>SET

