#    Name: 6a3b_1_GTP
#    Modification time : Fri May 22 19:29:33 2020

@<TRIPOS>MOLECULE
6a3b_1_GTP
   32    34     1     0     1
SMALL
NO_CHARGES


@<TRIPOS>ATOM
      1 PG         60.1250  -15.6040   28.1500 P.3       1 GTP301      0.0000 
      2 O1G        60.3690  -16.7500   27.2250 O.co2     1 GTP301      0.0000 
      3 O2G        61.1810  -14.5370   28.1250 O.co2     1 GTP301      0.0000 
      4 O3G        59.7040  -16.0580   29.5110 O.co2     1 GTP301      0.0000 
      5 O3B        58.8340  -14.9000   27.5150 O.3       1 GTP301      0.0000 
      6 PB         58.4350  -13.3850   27.8140 P.3       1 GTP301      0.0000 
      7 O1B        57.5670  -13.4030   29.0220 O.co2     1 GTP301      0.0000 
      8 O2B        59.6510  -12.5230   27.7890 O.co2     1 GTP301      0.0000 
      9 O3A        57.5240  -12.9910   26.5670 O.3       1 GTP301      0.0000 
     10 PA         57.9470  -11.8600   25.5230 P.3       1 GTP301      0.0000 
     11 O1A        58.2240  -10.5790   26.2290 O.co2     1 GTP301      0.0000 
     12 O2A        58.9990  -12.4330   24.6380 O.co2     1 GTP301      0.0000 
     13 O5'        56.6330  -11.6290   24.6490 O.3       1 GTP301      0.0000 
     14 C5'        56.0010  -12.6860   23.9440 C.3       1 GTP301      0.0000 
     15 C4'        55.1330  -12.1230   22.8280 C.3       1 GTP301      0.0000 
     16 O4'        53.9860  -11.4690   23.3650 O.3       1 GTP301      0.0000 
     17 C3'        55.8720  -11.0930   21.9990 C.3       1 GTP301      0.0000 
     18 O3'        55.6690  -11.3730   20.6170 O.3       1 GTP301      0.0000 
     19 C2'        55.1940   -9.7880   22.3080 C.3       1 GTP301      0.0000 
     20 O2'        55.1540   -8.9660   21.1490 O.3       1 GTP301      0.0000 
     21 C1'        53.8070  -10.2100   22.7330 C.3       1 GTP301      0.0000 
     22 N9         53.2550   -9.2190   23.6730 N.pl3     1 GTP301      0.0000 
     23 C8         53.8810   -8.7310   24.7490 C.2       1 GTP301      0.0000 
     24 N7         53.1050   -7.8360   25.3910 N.2       1 GTP301      0.0000 
     25 C5         51.9530   -7.7440   24.7200 C.2       1 GTP301      0.0000 
     26 C6         50.6960   -6.9840   24.8600 C.2       1 GTP301      0.0000 
     27 O6         50.5340   -6.1860   25.7970 O.2       1 GTP301      0.0000 
     28 N1         49.7420   -7.1750   23.9480 N.am      1 GTP301      0.0000 
     29 C2         49.8930   -8.0270   22.9250 C.2       1 GTP301      0.0000 
     30 N2         48.8760   -8.1560   22.0500 N.pl3     1 GTP301      0.0000 
     31 N3         51.0150   -8.7590   22.7350 N.2       1 GTP301      0.0000 
     32 C4         52.0580   -8.6580   23.5840 C.2       1 GTP301      0.0000 
@<TRIPOS>BOND
     1    1    2 ar   
     2    1    3 ar   
     3    1    4 ar   
     4    1    5 1    
     5    5    6 1    
     6    6    7 ar   
     7    6    8 ar   
     8    6    9 1    
     9    9   10 1    
    10   10   11 ar   
    11   10   12 ar   
    12   10   13 1    
    13   13   14 1    
    14   14   15 1    
    15   15   16 1    
    16   15   17 1    
    17   16   21 1    
    18   17   18 1    
    19   17   19 1    
    20   19   20 1    
    21   19   21 1    
    22   21   22 1    
    23   22   23 1    
    24   22   32 1    
    25   23   24 2    
    26   24   25 1    
    27   25   26 1    
    28   25   32 2    
    29   26   27 2    
    30   26   28 am   
    31   28   29 1    
    32   29   30 1    
    33   29   31 2    
    34   31   32 1    
@<TRIPOS>SUBSTRUCTURE
     1 GTP301      1 GROUP   
@<TRIPOS>SET
ATOM$ORANGE STATIC     ATOMS   COLORGROUP SYSTEM 
20 14 14 15 15 17 17 19 19 21 21 23 23 25 25 26 26 29 \
29 32 32 

