#    Name: 6a3b_1_GTP_CAVITY_N1_6
#    Modification time : Fri May 22 19:29:35 2020

@<TRIPOS>MOLECULE
6a3b_1_GTP_CAVITY_N1_6
   81     0     7     0     0
SMALL
NO_CHARGES


@<TRIPOS>ATOM
      1 OG         55.5400  -10.9900   22.1500 O.3       1 SER1        0.0000 
      2 OG         56.9200  -11.2900   23.7400 O.3       1 SER1        0.0000 
      3 OG         55.6000   -8.9000   22.5000 O.3       1 SER1        0.0000 
      4 OG         55.1200  -10.2300   24.0900 O.3       1 SER1        0.0000 
      5 OG         54.4600   -9.0300   23.4700 O.3       1 SER1        0.0000 
      6 OG         59.4300  -11.4600   24.3500 O.3       1 SER1        0.0000 
      7 OG         58.7700  -10.2700   23.7400 O.3       1 SER1        0.0000 
      8 OG         58.2900  -11.6000   25.3200 O.3       1 SER1        0.0000 
      9 N          55.9600  -11.7500   20.2200 N.am      2 ALA2        0.0000 
     10 N          54.8200  -11.8800   21.1800 N.am      2 ALA2        0.0000 
     11 N          54.1600  -10.6800   20.5700 N.am      2 ALA2        0.0000 
     12 N          53.5000   -9.4800   19.9500 N.am      2 ALA2        0.0000 
     13 N          54.3400  -13.2100   22.7600 N.am      2 ALA2        0.0000 
     14 N          56.6800  -10.8500   21.1900 N.am      2 ALA2        0.0000 
     15 N          54.8800   -9.7900   21.5400 N.am      2 ALA2        0.0000 
     16 N          54.2200   -8.5900   20.9200 N.am      2 ALA2        0.0000 
     17 N          55.0600  -12.3200   23.7300 N.am      2 ALA2        0.0000 
     18 N          58.0600  -11.1600   22.7700 N.am      2 ALA2        0.0000 
     19 N          57.4000   -9.9600   22.1500 N.am      2 ALA2        0.0000 
     20 O          56.4400  -12.6200   25.3200 O.2       2 ALA2        0.0000 
     21 O          61.7100  -11.2000   22.4200 O.2       2 ALA2        0.0000 
     22 N          61.0500  -10.0000   21.8100 N.am      2 ALA2        0.0000 
     23 N          60.5700  -11.3300   23.3900 N.am      2 ALA2        0.0000 
     24 N          59.9100  -10.1300   22.7700 N.am      2 ALA2        0.0000 
     25 O          52.2300   -7.2000   25.7600 O.2       2 ALA2        0.0000 
     26 N          64.2300  -11.3700   23.0400 N.am      2 ALA2        0.0000 
     27 OD1        50.5000  -10.6400   20.9100 O.co2     3 ASP3        0.0000 
     28 OD1        49.1800   -8.2400   19.6800 O.co2     3 ASP3        0.0000 
     29 OD1        53.6800  -12.0100   22.1500 O.co2     3 ASP3        0.0000 
     30 OD1        53.0200  -10.8100   21.5300 O.co2     3 ASP3        0.0000 
     31 OD1        51.8800  -10.9400   22.5000 O.co2     3 ASP3        0.0000 
     32 OD1        51.2200   -9.7500   21.8800 O.co2     3 ASP3        0.0000 
     33 OD1        54.4000  -11.1200   23.1200 O.co2     3 ASP3        0.0000 
     34 OD1        63.5700  -10.1800   22.4200 O.co2     3 ASP3        0.0000 
     35 OD1        62.4300  -10.3100   23.3900 O.co2     3 ASP3        0.0000 
     36 OD1        61.7700   -9.1100   22.7800 O.co2     3 ASP3        0.0000 
     37 NZ         48.7600   -7.4800   21.6200 N.4       4 LYS4        0.0000 
     38 NZ         49.4800   -6.5900   22.5900 N.4       4 LYS4        0.0000 
     39 NZ         49.7200   -7.0300   25.1400 N.4       4 LYS4        0.0000 
     40 CZ         52.8400   -8.2800   19.3400 C.ar      5 PHE5        0.0000 
     41 CZ         52.1800   -7.0900   18.7200 C.ar      5 PHE5        0.0000 
     42 CZ         51.7000   -8.4200   20.3000 C.ar      5 PHE5        0.0000 
     43 CZ         51.0400   -7.2200   19.6900 C.ar      5 PHE5        0.0000 
     44 CZ         53.0800   -8.7200   21.8900 C.ar      5 PHE5        0.0000 
     45 CZ         51.2800   -7.6600   22.2400 C.ar      5 PHE5        0.0000 
     46 CZ         50.6200   -6.4600   21.6200 C.ar      5 PHE5        0.0000 
     47 CZ         58.7200  -12.3600   23.3900 C.ar      5 PHE5        0.0000 
     48 CZ         57.5800  -12.4900   24.3500 C.ar      5 PHE5        0.0000 
     49 CZ         53.8000   -7.8300   22.8600 C.ar      5 PHE5        0.0000 
     50 CZ         52.6600   -7.9600   23.8200 C.ar      5 PHE5        0.0000 
     51 CZ         52.0000   -6.7600   23.2100 C.ar      5 PHE5        0.0000 
     52 CA         49.3600  -10.7700   21.8800 C.3       6 GLY6        0.0000 
     53 CA         48.7000   -9.5700   21.2700 C.3       6 GLY6        0.0000 
     54 CA         48.0400   -8.3700   20.6500 C.3       6 GLY6        0.0000 
     55 CA         55.4800  -13.0800   21.8000 C.3       6 GLY6        0.0000 
     56 CA         49.9000   -7.3500   20.6500 C.3       6 GLY6        0.0000 
     57 CA         49.4200   -8.6800   22.2300 C.3       6 GLY6        0.0000 
     58 CA         48.2800   -8.8100   23.2000 C.3       6 GLY6        0.0000 
     59 CA         56.2000  -12.1800   22.7700 C.3       6 GLY6        0.0000 
     60 CA         55.7200  -13.5100   24.3500 C.3       6 GLY6        0.0000 
     61 CA         52.6000  -10.0500   23.4700 C.3       6 GLY6        0.0000 
     62 CA         51.9400   -8.8500   22.8500 C.3       6 GLY6        0.0000 
     63 CA         50.8000   -8.9900   23.8200 C.3       6 GLY6        0.0000 
     64 CA         50.1400   -7.7900   23.2000 C.3       6 GLY6        0.0000 
     65 CA         49.0000   -7.9200   24.1700 C.3       6 GLY6        0.0000 
     66 CA         55.7800  -11.4200   24.7000 C.3       6 GLY6        0.0000 
     67 CA         53.9800  -10.3600   25.0500 C.3       6 GLY6        0.0000 
     68 CA         53.3200   -9.1600   24.4400 C.3       6 GLY6        0.0000 
     69 CA         52.1800   -9.2900   25.4000 C.3       6 GLY6        0.0000 
     70 CA         51.5200   -8.0900   24.7900 C.3       6 GLY6        0.0000 
     71 CA         50.8600   -6.8900   24.1700 C.3       6 GLY6        0.0000 
     72 CA         54.0300   -8.2700   25.4100 C.3       6 GLY6        0.0000 
     73 CA         53.3700   -7.0700   24.7900 C.3       6 GLY6        0.0000 
     74 CA         61.2900  -10.4400   24.3600 C.3       6 GLY6        0.0000 
     75 CA         60.6300   -9.2400   23.7400 C.3       6 GLY6        0.0000 
     76 DU         51.6400  -10.5100   19.9500 H         7 CUB7        0.0000 
     77 DU         50.9800   -9.3100   19.3300 H         7 CUB7        0.0000 
     78 DU         49.8400   -9.4400   20.3000 H         7 CUB7        0.0000 
     79 DU         52.3600   -9.6100   20.9200 H         7 CUB7        0.0000 
     80 DU         50.5600   -8.5500   21.2700 H         7 CUB7        0.0000 
     81 DU         53.7400   -9.9200   22.5000 H         7 CUB7        0.0000 
@<TRIPOS>BOND
@<TRIPOS>SUBSTRUCTURE
     1 SER1        1 GROUP   
     2 ALA2        9 GROUP   
     3 ASP3       27 GROUP   
     4 LYS4       37 GROUP   
     5 PHE5       40 GROUP   
     6 GLY6       52 GROUP   
     7 CUB7       76 GROUP   
@<TRIPOS>SET

