#    Name: 5ya8_3_NAD_CAVITY_N1_6
#    Modification time : Fri May 22 19:15:10 2020

@<TRIPOS>MOLECULE
5ya8_3_NAD_CAVITY_N1_6
   94     0     7     0     0
SMALL
NO_CHARGES


@<TRIPOS>ATOM
      1 OG        -30.6500    3.6600  -10.3300 O.3       1 SER1        0.0000 
      2 OG        -32.2500    6.1900  -10.1000 O.3       1 SER1        0.0000 
      3 OG        -33.0300    5.5800   -8.9700 O.3       1 SER1        0.0000 
      4 OG        -30.4500    5.4700   -9.2300 O.3       1 SER1        0.0000 
      5 OG        -31.2300    4.8700   -8.1000 O.3       1 SER1        0.0000 
      6 OG        -32.0400    6.1300   -7.9900 O.3       1 SER1        0.0000 
      7 OG        -32.8200    5.5200   -6.8600 O.3       1 SER1        0.0000 
      8 N         -39.3700    1.6000   -9.5000 N.am      2 ALA2        0.0000 
      9 N         -38.3700    2.1500   -8.5200 N.am      2 ALA2        0.0000 
     10 N         -39.1700    3.4100   -8.4000 N.am      2 ALA2        0.0000 
     11 N         -39.1500    1.5400   -7.3900 N.am      2 ALA2        0.0000 
     12 N         -39.9600    2.8000   -7.2700 N.am      2 ALA2        0.0000 
     13 N         -38.3300   -1.5800   -6.5000 N.am      2 ALA2        0.0000 
     14 N         -39.1300   -0.3200   -6.3800 N.am      2 ALA2        0.0000 
     15 N         -39.9300    0.9400   -6.2600 N.am      2 ALA2        0.0000 
     16 N         -38.1800    3.9500   -7.4200 N.am      2 ALA2        0.0000 
     17 N         -38.9600    3.3500   -6.2900 N.am      2 ALA2        0.0000 
     18 O         -36.5300   -2.3000   -5.6400 O.2       2 ALA2        0.0000 
     19 N         -37.3300   -1.0400   -5.5200 N.am      2 ALA2        0.0000 
     20 N         -38.1300    0.2200   -5.4000 N.am      2 ALA2        0.0000 
     21 N         -38.9400    1.4800   -5.2800 N.am      2 ALA2        0.0000 
     22 OD1       -40.3600    1.0600  -10.4800 O.co2     3 ASP3        0.0000 
     23 OD1       -40.3400   -0.8000   -9.4700 O.co2     3 ASP3        0.0000 
     24 OD1       -37.7800    0.9400  -10.7500 O.co2     3 ASP3        0.0000 
     25 OD1       -38.5600    0.3400   -9.6200 O.co2     3 ASP3        0.0000 
     26 OD1       -39.3500   -0.2600   -8.4900 O.co2     3 ASP3        0.0000 
     27 OD1       -34.8100    4.4400   -8.8200 O.co2     3 ASP3        0.0000 
     28 OD1       -35.5900    3.8300   -7.6900 O.co2     3 ASP3        0.0000 
     29 OD1       -33.8200    4.9800   -7.8400 O.co2     3 ASP3        0.0000 
     30 NZ        -38.5900    2.2100  -10.6300 N.4       4 LYS4        0.0000 
     31 NZ        -34.4200    1.4300  -12.1400 N.4       4 LYS4        0.0000 
     32 NZ        -36.0000    2.0900  -10.9000 N.4       4 LYS4        0.0000 
     33 NZ        -36.7900    1.4900   -9.7700 N.4       4 LYS4        0.0000 
     34 NZ        -37.5900    2.7500   -9.6500 N.4       4 LYS4        0.0000 
     35 NZ        -38.3900    4.0100   -9.5300 N.4       4 LYS4        0.0000 
     36 NZ        -32.6400    2.5800  -12.2900 N.4       4 LYS4        0.0000 
     37 NZ        -33.4200    1.9800  -11.1600 N.4       4 LYS4        0.0000 
     38 NZ        -34.2200    3.2400  -11.0500 N.4       4 LYS4        0.0000 
     39 NZ        -35.0100    2.6300   -9.9200 N.4       4 LYS4        0.0000 
     40 NZ        -36.5900    3.2900   -8.6700 N.4       4 LYS4        0.0000 
     41 NZ        -31.6400    3.1200  -11.3100 N.4       4 LYS4        0.0000 
     42 NZ        -32.4500    4.3800  -11.1900 N.4       4 LYS4        0.0000 
     43 NZ        -33.2500    5.6400  -11.0800 N.4       4 LYS4        0.0000 
     44 NZ        -33.2300    3.7800  -10.0600 N.4       4 LYS4        0.0000 
     45 NZ        -34.0300    5.0400   -9.9500 N.4       4 LYS4        0.0000 
     46 NZ        -31.4500    4.9300  -10.2100 N.4       4 LYS4        0.0000 
     47 NZ        -34.4000    6.1800   -5.6100 N.4       4 LYS4        0.0000 
     48 CZ        -34.2000    1.3700  -10.0300 C.ar      5 PHE5        0.0000 
     49 CZ        -34.9900    0.7700   -8.9100 C.ar      5 PHE5        0.0000 
     50 CZ        -31.6200    1.2600  -10.3000 C.ar      5 PHE5        0.0000 
     51 CZ        -32.4200    2.5200  -10.1800 C.ar      5 PHE5        0.0000 
     52 CZ        -33.2100    1.9100   -9.0500 C.ar      5 PHE5        0.0000 
     53 CZ        -33.9900    1.3100   -7.9200 C.ar      5 PHE5        0.0000 
     54 CZ        -34.7900    2.5700   -7.8100 C.ar      5 PHE5        0.0000 
     55 CZ        -31.4300    3.0600   -9.2000 C.ar      5 PHE5        0.0000 
     56 CZ        -32.2300    4.3200   -9.0800 C.ar      5 PHE5        0.0000 
     57 CZ        -33.0100    3.7200   -7.9600 C.ar      5 PHE5        0.0000 
     58 CZ        -33.7900    3.1200   -6.8300 C.ar      5 PHE5        0.0000 
     59 CZ        -32.0200    4.2600   -6.9700 C.ar      5 PHE5        0.0000 
     60 CZ        -31.8200    6.0700   -5.8800 C.ar      5 PHE5        0.0000 
     61 CA        -40.1500    1.0000   -8.3700 C.3       6 GLY6        0.0000 
     62 CA        -40.1300   -0.8600   -7.3600 C.3       6 GLY6        0.0000 
     63 CA        -35.7700    0.1700   -7.7800 C.3       6 GLY6        0.0000 
     64 CA        -35.7500   -1.7000   -6.7700 C.3       6 GLY6        0.0000 
     65 CA        -36.5500   -0.4400   -6.6500 C.3       6 GLY6        0.0000 
     66 CA        -39.7400    2.7400   -5.1600 C.3       6 GLY6        0.0000 
     67 CA        -34.7700    0.7100   -6.8000 C.3       6 GLY6        0.0000 
     68 CA        -35.5700    1.9700   -6.6800 C.3       6 GLY6        0.0000 
     69 CA        -36.3800    3.2300   -6.5600 C.3       6 GLY6        0.0000 
     70 CA        -37.1800    4.4900   -6.4400 C.3       6 GLY6        0.0000 
     71 CA        -35.5500    0.1100   -5.6700 C.3       6 GLY6        0.0000 
     72 CA        -36.3600    1.3700   -5.5500 C.3       6 GLY6        0.0000 
     73 CA        -37.1600    2.6300   -5.4300 C.3       6 GLY6        0.0000 
     74 CA        -37.9600    3.8900   -5.3100 C.3       6 GLY6        0.0000 
     75 CA        -37.1400    0.7600   -4.4200 C.3       6 GLY6        0.0000 
     76 CA        -37.9400    2.0300   -4.3000 C.3       6 GLY6        0.0000 
     77 CA        -34.6200    6.2400   -7.7200 C.3       6 GLY6        0.0000 
     78 CA        -34.6000    4.3800   -6.7100 C.3       6 GLY6        0.0000 
     79 CA        -35.4000    5.6400   -6.5900 C.3       6 GLY6        0.0000 
     80 CA        -32.8000    3.6600   -5.8500 C.3       6 GLY6        0.0000 
     81 CA        -33.6000    4.9200   -5.7300 C.3       6 GLY6        0.0000 
     82 DU        -39.3300   -2.1300   -7.4800 H         7 CUB7        0.0000 
     83 DU        -36.7600   -0.3800   -8.7600 H         7 CUB7        0.0000 
     84 DU        -37.5700    0.8800   -8.6400 H         7 CUB7        0.0000 
     85 DU        -37.5500   -0.9800   -7.6300 H         7 CUB7        0.0000 
     86 DU        -38.3500    0.2800   -7.5100 H         7 CUB7        0.0000 
     87 DU        -37.5300   -2.8500   -6.6200 H         7 CUB7        0.0000 
     88 DU        -32.6200    0.7100  -11.2800 H         7 CUB7        0.0000 
     89 DU        -35.7900    2.0300   -8.7900 H         7 CUB7        0.0000 
     90 DU        -36.5700    1.4300   -7.6600 H         7 CUB7        0.0000 
     91 DU        -37.3700    2.6900   -7.5400 H         7 CUB7        0.0000 
     92 DU        -37.3500    0.8200   -6.5300 H         7 CUB7        0.0000 
     93 DU        -38.1600    2.0900   -6.4100 H         7 CUB7        0.0000 
     94 DU        -34.0100    3.1800   -8.9400 H         7 CUB7        0.0000 
@<TRIPOS>BOND
@<TRIPOS>SUBSTRUCTURE
     1 SER1        1 GROUP   
     2 ALA2        8 GROUP   
     3 ASP3       22 GROUP   
     4 LYS4       30 GROUP   
     5 PHE5       48 GROUP   
     6 GLY6       61 GROUP   
     7 CUB7       82 GROUP   
@<TRIPOS>SET

