#    Name: 5ya8_2_NAD
#    Modification time : Fri May 22 19:14:59 2020

@<TRIPOS>MOLECULE
5ya8_2_NAD
   44    48     1     0     1
SMALL
NO_CHARGES


@<TRIPOS>ATOM
      1 PA         14.8660   10.6390  -35.5230 P.3       1 NAD401      0.0000 
      2 O1A        15.2260    9.1890  -35.5880 O.co2     1 NAD401      0.0000 
      3 O2A        13.4740   11.1460  -35.7710 O.co2     1 NAD401      0.0000 
      4 O5B        15.7410   11.5430  -36.4970 O.3       1 NAD401      0.0000 
      5 C5B        17.1450   11.4130  -36.6220 C.3       1 NAD401      0.0000 
      6 C4B        17.5030   12.4540  -37.6460 C.3       1 NAD401      0.0000 
      7 O4B        18.9070   12.4840  -37.7600 O.3       1 NAD401      0.0000 
      8 C3B        16.9840   12.0510  -39.0340 C.3       1 NAD401      0.0000 
      9 O3B        16.6100   13.2500  -39.7480 O.3       1 NAD401      0.0000 
     10 C2B        18.1570   11.3230  -39.6580 C.3       1 NAD401      0.0000 
     11 O2B        18.0980   11.2880  -41.0840 O.3       1 NAD401      0.0000 
     12 C1B        19.1870   12.2920  -39.1470 C.3       1 NAD401      0.0000 
     13 N9A        20.5570   11.8210  -39.3040 N.pl3     1 NAD401      0.0000 
     14 C8A        21.0680   10.6540  -38.8530 C.2       1 NAD401      0.0000 
     15 N7A        22.3640   10.6180  -39.1690 N.2       1 NAD401      0.0000 
     16 C5A        22.6850   11.7880  -39.8070 C.ar      1 NAD401      0.0000 
     17 C6A        23.8930   12.3840  -40.4150 C.ar      1 NAD401      0.0000 
     18 N6A        25.0390   11.6550  -40.3850 N.pl3     1 NAD401      0.0000 
     19 N1A        23.8000   13.6270  -41.0070 N.ar      1 NAD401      0.0000 
     20 C2A        22.6200   14.3220  -41.0510 C.ar      1 NAD401      0.0000 
     21 N3A        21.4650   13.8320  -40.5130 N.ar      1 NAD401      0.0000 
     22 C4A        21.4690   12.5910  -39.9060 C.ar      1 NAD401      0.0000 
     23 O3         15.3320   11.1230  -34.0790 O.3       1 NAD401      0.0000 
     24 PN         14.5420   12.2600  -33.2480 P.3       1 NAD401      0.0000 
     25 O1N        13.4190   11.5360  -32.4730 O.co2     1 NAD401      0.0000 
     26 O2N        14.2780   13.5010  -34.0620 O.co2     1 NAD401      0.0000 
     27 O5D        15.6190   12.6600  -32.1170 O.3       1 NAD401      0.0000 
     28 C5D        16.7240   13.4410  -32.4610 C.3       1 NAD401      0.0000 
     29 C4D        17.2090   14.1310  -31.2070 C.3       1 NAD401      0.0000 
     30 O4D        16.1590   14.8780  -30.6330 O.3       1 NAD401      0.0000 
     31 C3D        17.6920   13.1310  -30.1580 C.3       1 NAD401      0.0000 
     32 O3D        18.9230   13.6030  -29.6240 O.3       1 NAD401      0.0000 
     33 C2D        16.5870   13.0910  -29.1360 C.3       1 NAD401      0.0000 
     34 O2D        17.0960   12.9280  -27.8320 O.3       1 NAD401      0.0000 
     35 C1D        16.0030   14.4720  -29.2560 C.3       1 NAD401      0.0000 
     36 N1N        14.5720   14.5690  -29.0230 N.pl3     1 NAD401      0.0000 
     37 C2N        14.2040   15.5840  -28.3050 C.ar      1 NAD401      0.0000 
     38 C3N        12.8640   15.8840  -28.0470 C.ar      1 NAD401      0.0000 
     39 C7N        12.5790   17.0410  -27.1190 C.2       1 NAD401      0.0000 
     40 O7N        11.4120   17.1950  -26.7370 O.2       1 NAD401      0.0000 
     41 N7N        13.5860   17.8390  -26.7020 N.am      1 NAD401      0.0000 
     42 C4N        11.8580   15.0660  -28.6190 C.ar      1 NAD401      0.0000 
     43 C5N        12.2630   13.9800  -29.4160 C.ar      1 NAD401      0.0000 
     44 C6N        13.6370   13.7870  -29.6280 C.ar      1 NAD401      0.0000 
@<TRIPOS>BOND
     1    1    2 ar   
     2    1    3 ar   
     3    1    4 1    
     4    1   23 1    
     5    4    5 1    
     6    5    6 1    
     7    6    7 1    
     8    6    8 1    
     9    7   12 1    
    10    8    9 1    
    11    8   10 1    
    12   10   11 1    
    13   10   12 1    
    14   12   13 1    
    15   13   14 1    
    16   13   22 1    
    17   14   15 2    
    18   15   16 1    
    19   16   17 ar   
    20   16   22 ar   
    21   17   18 1    
    22   17   19 ar   
    23   19   20 ar   
    24   20   21 ar   
    25   21   22 ar   
    26   23   24 1    
    27   24   25 ar   
    28   24   26 ar   
    29   24   27 1    
    30   27   28 1    
    31   28   29 1    
    32   29   30 1    
    33   29   31 1    
    34   30   35 1    
    35   31   32 1    
    36   31   33 1    
    37   33   34 1    
    38   33   35 1    
    39   35   36 1    
    40   36   37 ar   
    41   36   44 ar   
    42   37   38 ar   
    43   38   39 1    
    44   38   42 ar   
    45   39   40 2    
    46   39   41 am   
    47   42   43 ar   
    48   43   44 ar   
@<TRIPOS>SUBSTRUCTURE
     1 NAD401      1 GROUP   
@<TRIPOS>SET
ATOM$ORANGE STATIC     ATOMS   COLORGROUP SYSTEM 
42 5 5 6 6 8 8 10 10 12 12 14 14 16 16 17 17 20 \
20 22 22 28 28 29 29 31 31 33 33 35 35 37 37 38 38 39 \
39 42 42 43 43 44 44 

