#    Name: 5ya8_1_NAD_CAVITY_N1_ALL
#    Modification time : Fri May 22 19:14:52 2020

@<TRIPOS>MOLECULE
5ya8_1_NAD_CAVITY_N1_ALL
  107     0     7     0     0
SMALL
NO_CHARGES


@<TRIPOS>ATOM
      1 OG        -12.5300   31.5500  -32.7100 O.3       1 SER1        0.0000 
      2 OG        -13.3200   30.9500  -31.5800 O.3       1 SER1        0.0000 
      3 OG        -14.1200   32.2100  -31.4600 O.3       1 SER1        0.0000 
      4 OG        -14.9000   31.6100  -30.3300 O.3       1 SER1        0.0000 
      5 OG        -12.3200   31.4900  -30.6000 O.3       1 SER1        0.0000 
      6 N         -13.5900   36.6000  -36.7200 N.am      2 ALA2        0.0000 
      7 N         -14.4000   37.8600  -36.6000 N.am      2 ALA2        0.0000 
      8 N         -14.3800   36.0000  -35.5900 N.am      2 ALA2        0.0000 
      9 N         -11.8200   37.7500  -36.8700 N.am      2 ALA2        0.0000 
     10 N         -12.6200   39.0100  -36.7500 N.am      2 ALA2        0.0000 
     11 N         -10.8200   38.2900  -35.8900 N.am      2 ALA2        0.0000 
     12 N         -11.6200   39.5500  -35.7700 N.am      2 ALA2        0.0000 
     13 O         -12.4200   40.8200  -35.6500 O.2       2 ALA2        0.0000 
     14 N          -9.8400   40.7000  -35.9200 N.am      2 ALA2        0.0000 
     15 N          -9.8200   38.8400  -34.9100 N.am      2 ALA2        0.0000 
     16 N         -10.6200   40.1000  -34.7900 N.am      2 ALA2        0.0000 
     17 O         -12.2300   42.6200  -34.5600 O.2       2 ALA2        0.0000 
     18 O          -8.8200   39.3800  -33.9300 O.2       2 ALA2        0.0000 
     19 O         -10.4300   41.9000  -33.6900 O.2       2 ALA2        0.0000 
     20 O         -11.2300   43.1600  -33.5800 O.2       2 ALA2        0.0000 
     21 O         -11.2100   41.3000  -32.5600 O.2       2 ALA2        0.0000 
     22 O          -8.6300   41.1800  -32.8300 O.2       2 ALA2        0.0000 
     23 N          -8.9600   38.5900  -26.4700 N.am      2 ALA2        0.0000 
     24 N          -9.7400   37.9900  -25.3400 N.am      2 ALA2        0.0000 
     25 OD1       -13.3800   36.5400  -34.6100 O.co2     3 ASP3        0.0000 
     26 OD1       -14.1600   35.9400  -33.4800 O.co2     3 ASP3        0.0000 
     27 OD1       -14.1400   34.0700  -32.4700 O.co2     3 ASP3        0.0000 
     28 OD1       -14.9200   33.4700  -31.3400 O.co2     3 ASP3        0.0000 
     29 OD1       -12.3800   37.0900  -33.6300 O.co2     3 ASP3        0.0000 
     30 OD1       -12.3600   35.2200  -32.6200 O.co2     3 ASP3        0.0000 
     31 OD1       -13.1400   34.6200  -31.4900 O.co2     3 ASP3        0.0000 
     32 OD1       -11.3900   37.6300  -32.6500 O.co2     3 ASP3        0.0000 
     33 OD1       -13.7300   35.8200  -29.2700 O.co2     3 ASP3        0.0000 
     34 OD1       -10.4100   40.0400  -32.6800 O.co2     3 ASP3        0.0000 
     35 OD1       -11.1700   37.5700  -30.5400 O.co2     3 ASP3        0.0000 
     36 OD1       -11.9500   36.9600  -29.4100 O.co2     3 ASP3        0.0000 
     37 OD1       -12.7300   36.3600  -28.2800 O.co2     3 ASP3        0.0000 
     38 OD1       -13.5400   37.6200  -28.1700 O.co2     3 ASP3        0.0000 
     39 OD1       -11.7600   38.7700  -28.3200 O.co2     3 ASP3        0.0000 
     40 OD1       -12.5400   38.1700  -27.1900 O.co2     3 ASP3        0.0000 
     41 OD1       -11.5600   40.5700  -27.2200 O.co2     3 ASP3        0.0000 
     42 NZ        -12.7900   35.3400  -36.8400 N.4       4 LYS4        0.0000 
     43 NZ        -13.9300   34.0100  -30.3600 N.4       4 LYS4        0.0000 
     44 NZ        -13.9000   32.1500  -29.3500 N.4       4 LYS4        0.0000 
     45 NZ        -14.7100   33.4100  -29.2300 N.4       4 LYS4        0.0000 
     46 NZ        -12.9100   32.6900  -28.3700 N.4       4 LYS4        0.0000 
     47 NZ        -13.7100   33.9500  -28.2500 N.4       4 LYS4        0.0000 
     48 NZ        -14.5100   35.2200  -28.1400 N.4       4 LYS4        0.0000 
     49 NZ        -12.7100   34.5000  -27.2700 N.4       4 LYS4        0.0000 
     50 NZ        -11.7200   35.0400  -26.2900 N.4       4 LYS4        0.0000 
     51 CZ        -13.4000   38.4100  -35.6200 C.ar      5 PHE5        0.0000 
     52 CZ        -14.1800   37.8000  -34.5000 C.ar      5 PHE5        0.0000 
     53 CZ        -12.4000   38.9500  -34.6400 C.ar      5 PHE5        0.0000 
     54 CZ        -11.5400   32.0900  -31.7300 C.ar      5 PHE5        0.0000 
     55 CZ        -11.4300   41.3600  -34.6700 C.ar      5 PHE5        0.0000 
     56 CZ        -11.4100   39.4900  -33.6600 C.ar      5 PHE5        0.0000 
     57 CZ        -10.5600   34.5000  -31.7600 C.ar      5 PHE5        0.0000 
     58 CZ        -11.3600   35.7600  -31.6400 C.ar      5 PHE5        0.0000 
     59 CZ        -11.3400   33.9000  -30.6300 C.ar      5 PHE5        0.0000 
     60 CZ        -12.1500   35.1600  -30.5100 C.ar      5 PHE5        0.0000 
     61 CZ        -12.1300   33.3000  -29.5000 C.ar      5 PHE5        0.0000 
     62 CZ        -12.9300   34.5600  -29.3800 C.ar      5 PHE5        0.0000 
     63 CZ        -11.9300   35.1000  -28.4000 C.ar      5 PHE5        0.0000 
     64 CZ        -11.9100   33.2400  -27.3900 C.ar      5 PHE5        0.0000 
     65 CZ        -13.5200   35.7600  -27.1600 C.ar      5 PHE5        0.0000 
     66 CZ        -14.3200   37.0200  -27.0400 C.ar      5 PHE5        0.0000 
     67 CZ        -10.1700   38.1100  -29.5600 C.ar      5 PHE5        0.0000 
     68 CZ        -10.9600   37.5100  -28.4300 C.ar      5 PHE5        0.0000 
     69 CZ        -10.9300   35.6400  -27.4200 C.ar      5 PHE5        0.0000 
     70 CZ        -11.7400   36.9000  -27.3000 C.ar      5 PHE5        0.0000 
     71 CZ        -12.5200   36.3000  -26.1800 C.ar      5 PHE5        0.0000 
     72 CZ        -13.3200   37.5600  -26.0600 C.ar      5 PHE5        0.0000 
     73 CZ         -9.1800   38.6500  -28.5800 C.ar      5 PHE5        0.0000 
     74 CZ         -9.9600   38.0500  -27.4500 C.ar      5 PHE5        0.0000 
     75 CA        -12.8100   37.2100  -37.8500 C.3       6 GLY6        0.0000 
     76 CA        -11.0100   36.4900  -36.9900 C.3       6 GLY6        0.0000 
     77 CA        -11.7900   35.8800  -35.8600 C.3       6 GLY6        0.0000 
     78 CA        -12.5800   35.2800  -34.7300 C.3       6 GLY6        0.0000 
     79 CA        -11.7500   32.1600  -33.8400 C.3       6 GLY6        0.0000 
     80 CA        -12.5600   33.4200  -33.7200 C.3       6 GLY6        0.0000 
     81 CA        -13.3600   34.6800  -33.6000 C.3       6 GLY6        0.0000 
     82 CA        -13.3400   32.8100  -32.5900 C.3       6 GLY6        0.0000 
     83 CA        -10.8000   36.4300  -34.8800 C.3       6 GLY6        0.0000 
     84 CA        -11.5800   35.8200  -33.7500 C.3       6 GLY6        0.0000 
     85 CA        -10.7600   32.7000  -32.8600 C.3       6 GLY6        0.0000 
     86 CA        -11.5600   33.9600  -32.7400 C.3       6 GLY6        0.0000 
     87 CA        -10.6500   41.9600  -35.8000 C.3       6 GLY6        0.0000 
     88 CA         -9.8000   36.9700  -33.9000 C.3       6 GLY6        0.0000 
     89 CA        -10.6000   38.2300  -33.7800 C.3       6 GLY6        0.0000 
     90 CA        -10.5800   36.3700  -32.7700 C.3       6 GLY6        0.0000 
     91 CA         -8.8500   41.2400  -34.9400 C.3       6 GLY6        0.0000 
     92 CA         -9.6100   38.7700  -32.8000 C.3       6 GLY6        0.0000 
     93 CA        -10.3900   38.1700  -31.6700 C.3       6 GLY6        0.0000 
     94 CA         -9.3900   38.7100  -30.6900 C.3       6 GLY6        0.0000 
     95 CA         -9.9400   36.1900  -26.4400 C.3       6 GLY6        0.0000 
     96 CA        -10.7200   35.5800  -25.3100 C.3       6 GLY6        0.0000 
     97 CA        -11.5200   36.8400  -25.1900 C.3       6 GLY6        0.0000 
     98 CA        -12.3300   38.1100  -25.0800 C.3       6 GLY6        0.0000 
     99 CA         -9.7200   36.1300  -24.3300 C.3       6 GLY6        0.0000 
    100 CA        -10.5300   37.3900  -24.2100 C.3       6 GLY6        0.0000 
    101 DU        -12.6000   37.1500  -35.7400 H         7 CUB7        0.0000 
    102 DU        -11.6000   37.6900  -34.7600 H         7 CUB7        0.0000 
    103 DU        -12.3400   33.3600  -31.6100 H         7 CUB7        0.0000 
    104 DU        -13.1200   32.7500  -30.4800 H         7 CUB7        0.0000 
    105 DU         -9.6300   40.6400  -33.8100 H         7 CUB7        0.0000 
    106 DU        -10.7400   37.4500  -26.3200 H         7 CUB7        0.0000 
    107 DU        -11.5400   38.7100  -26.2100 H         7 CUB7        0.0000 
@<TRIPOS>BOND
@<TRIPOS>SUBSTRUCTURE
     1 SER1        1 GROUP   
     2 ALA2        6 GROUP   
     3 ASP3       25 GROUP   
     4 LYS4       42 GROUP   
     5 PHE5       51 GROUP   
     6 GLY6       75 GROUP   
     7 CUB7      101 GROUP   
@<TRIPOS>SET

