#    Name: 5ya8_4_NAD_CAVITY_N1_4
#    Modification time : Fri May 22 19:15:19 2020

@<TRIPOS>MOLECULE
5ya8_4_NAD_CAVITY_N1_4
   27     0     7     0     0
SMALL
NO_CHARGES


@<TRIPOS>ATOM
      1 OG         -7.8600    4.0000    7.6200 O.3       1 SER1        0.0000 
      2 OG         -8.6700    5.2600    7.7400 O.3       1 SER1        0.0000 
      3 OG         -6.8900    6.4100    7.5900 O.3       1 SER1        0.0000 
      4 OG         -7.6900    7.6700    7.7100 O.3       1 SER1        0.0000 
      5 OG         -7.6700    5.8100    8.7200 O.3       1 SER1        0.0000 
      6 OG         -7.6500    3.9400    9.7300 O.3       1 SER1        0.0000 
      7 N          -8.6400    3.4000    8.7500 N.am      2 ALA2        0.0000 
      8 OD1        -6.6700    6.3500    9.7000 O.co2     3 ASP3        0.0000 
      9 OD1        -6.4800    8.1500   10.8000 O.co2     3 ASP3        0.0000 
     10 OD1        -7.2800    9.4100   10.9200 O.co2     3 ASP3        0.0000 
     11 OD1        -6.4600    6.2900   11.8100 O.co2     3 ASP3        0.0000 
     12 OD1        -8.0600    8.8100   12.0500 O.co2     3 ASP3        0.0000 
     13 NZ         -7.4300    3.8800   11.8400 N.4       4 LYS4        0.0000 
     14 NZ         -5.6700    6.8900   10.6800 N.4       4 LYS4        0.0000 
     15 CZ         -9.4700    6.5200    7.8600 C.ar      5 PHE5        0.0000 
     16 CZ         -8.4700    7.0700    8.8400 C.ar      5 PHE5        0.0000 
     17 CZ         -9.2500    6.4600    9.9700 C.ar      5 PHE5        0.0000 
     18 CZ         -7.4700    7.6100    9.8200 C.ar      5 PHE5        0.0000 
     19 CZ         -8.2600    7.0100   10.9500 C.ar      5 PHE5        0.0000 
     20 CA         -9.4500    4.6600    8.8700 C.3       6 GLY6        0.0000 
     21 CA         -8.4500    5.2000    9.8500 C.3       6 GLY6        0.0000 
     22 CA         -5.8700    5.0900    9.5800 C.3       6 GLY6        0.0000 
     23 CA         -6.6500    4.4800   10.7100 C.3       6 GLY6        0.0000 
     24 CA         -7.4500    5.7400   10.8300 C.3       6 GLY6        0.0000 
     25 CA         -9.0400    6.4000   12.0800 C.3       6 GLY6        0.0000 
     26 DU         -5.8900    6.9500    8.5700 H         7 CUB7        0.0000 
     27 DU         -6.6900    8.2100    8.6900 H         7 CUB7        0.0000 
@<TRIPOS>BOND
@<TRIPOS>SUBSTRUCTURE
     1 SER1        1 GROUP   
     2 ALA2        7 GROUP   
     3 ASP3        8 GROUP   
     4 LYS4       13 GROUP   
     5 PHE5       15 GROUP   
     6 GLY6       20 GROUP   
     7 CUB7       26 GROUP   
@<TRIPOS>SET

