#    Name: 5ya8_4_NAD
#    Modification time : Fri May 22 19:15:17 2020

@<TRIPOS>MOLECULE
5ya8_4_NAD
   44    48     1     0     1
SMALL
NO_CHARGES


@<TRIPOS>ATOM
      1 PA         -9.3590    8.9500   18.1100 P.3       1 NAD401      0.0000 
      2 O1A        -8.5160    9.8330   18.9600 O.co2     1 NAD401      0.0000 
      3 O2A       -10.3200    9.6960   17.2420 O.co2     1 NAD401      0.0000 
      4 O5B       -10.1680    7.8400   18.9420 O.3       1 NAD401      0.0000 
      5 C5B        -9.5180    7.1310   19.9800 C.3       1 NAD401      0.0000 
      6 C4B       -10.5880    6.6380   20.9260 C.3       1 NAD401      0.0000 
      7 O4B        -9.8890    5.8210   21.8570 O.3       1 NAD401      0.0000 
      8 C3B       -11.2420    7.7630   21.7190 C.3       1 NAD401      0.0000 
      9 O3B       -12.6400    7.5220   21.8970 O.3       1 NAD401      0.0000 
     10 C2B       -10.5090    7.7020   23.0270 C.3       1 NAD401      0.0000 
     11 O2B       -11.2440    8.2790   24.0810 O.3       1 NAD401      0.0000 
     12 C1B       -10.3790    6.1950   23.1230 C.3       1 NAD401      0.0000 
     13 N9A        -9.5060    5.8340   24.2050 N.pl3     1 NAD401      0.0000 
     14 C8A        -8.3450    6.4600   24.4870 C.2       1 NAD401      0.0000 
     15 N7A        -7.7630    5.9160   25.5860 N.2       1 NAD401      0.0000 
     16 C5A        -8.5960    4.9600   26.0180 C.ar      1 NAD401      0.0000 
     17 C6A        -8.5620    4.0290   27.1500 C.ar      1 NAD401      0.0000 
     18 N6A        -7.5130    4.1000   27.9690 N.pl3     1 NAD401      0.0000 
     19 N1A        -9.5890    3.1730   27.3110 N.ar      1 NAD401      0.0000 
     20 C2A       -10.6210    3.1890   26.4290 C.ar      1 NAD401      0.0000 
     21 N3A       -10.7130    4.0300   25.3720 N.ar      1 NAD401      0.0000 
     22 C4A        -9.7510    4.9040   25.1220 C.ar      1 NAD401      0.0000 
     23 O3         -8.3600    7.9620   17.2790 O.3       1 NAD401      0.0000 
     24 PN         -8.8190    7.2390   15.9140 P.3       1 NAD401      0.0000 
     25 O1N        -8.5080    8.1460   14.7340 O.co2     1 NAD401      0.0000 
     26 O2N       -10.2070    6.6700   16.0250 O.co2     1 NAD401      0.0000 
     27 O5D        -7.7290    6.1030   15.7940 O.3       1 NAD401      0.0000 
     28 C5D        -7.9280    4.8600   16.4090 C.3       1 NAD401      0.0000 
     29 C4D        -7.0390    3.7580   15.8750 C.3       1 NAD401      0.0000 
     30 O4D        -7.4330    3.4450   14.5510 O.3       1 NAD401      0.0000 
     31 C3D        -5.5660    4.0940   15.8080 C.3       1 NAD401      0.0000 
     32 O3D        -4.8640    2.8920   16.0340 O.3       1 NAD401      0.0000 
     33 C2D        -5.3310    4.5310   14.3650 C.3       1 NAD401      0.0000 
     34 O2D        -4.0270    4.2850   13.8050 O.3       1 NAD401      0.0000 
     35 C1D        -6.3830    3.7020   13.6530 C.3       1 NAD401      0.0000 
     36 N1N        -7.1020    4.4090   12.6960 N.pl3     1 NAD401      0.0000 
     37 C2N        -7.3580    3.7270   11.6210 C.ar      1 NAD401      0.0000 
     38 C3N        -8.1000    4.2920   10.5950 C.ar      1 NAD401      0.0000 
     39 C7N        -8.2830    3.4310    9.3680 C.2       1 NAD401      0.0000 
     40 O7N        -8.4660    4.0230    8.2640 O.2       1 NAD401      0.0000 
     41 N7N        -8.1530    2.1090    9.4740 N.am      1 NAD401      0.0000 
     42 C4N        -8.5990    5.6440   10.7300 C.ar      1 NAD401      0.0000 
     43 C5N        -8.3390    6.3800   11.9090 C.ar      1 NAD401      0.0000 
     44 C6N        -7.5790    5.6870   12.8910 C.ar      1 NAD401      0.0000 
@<TRIPOS>BOND
     1    1    2 ar   
     2    1    3 ar   
     3    1    4 1    
     4    1   23 1    
     5    4    5 1    
     6    5    6 1    
     7    6    7 1    
     8    6    8 1    
     9    7   12 1    
    10    8    9 1    
    11    8   10 1    
    12   10   11 1    
    13   10   12 1    
    14   12   13 1    
    15   13   14 1    
    16   13   22 1    
    17   14   15 2    
    18   15   16 1    
    19   16   17 ar   
    20   16   22 ar   
    21   17   18 1    
    22   17   19 ar   
    23   19   20 ar   
    24   20   21 ar   
    25   21   22 ar   
    26   23   24 1    
    27   24   25 ar   
    28   24   26 ar   
    29   24   27 1    
    30   27   28 1    
    31   28   29 1    
    32   29   30 1    
    33   29   31 1    
    34   30   35 1    
    35   31   32 1    
    36   31   33 1    
    37   33   34 1    
    38   33   35 1    
    39   35   36 1    
    40   36   37 ar   
    41   36   44 ar   
    42   37   38 ar   
    43   38   39 1    
    44   38   42 ar   
    45   39   40 2    
    46   39   41 am   
    47   42   43 ar   
    48   43   44 ar   
@<TRIPOS>SUBSTRUCTURE
     1 NAD401      1 GROUP   
@<TRIPOS>SET
ATOM$ORANGE STATIC     ATOMS   COLORGROUP SYSTEM 
42 5 5 6 6 8 8 10 10 12 12 14 14 16 16 17 17 20 \
20 22 22 28 28 29 29 31 31 33 33 35 35 37 37 38 38 39 \
39 42 42 43 43 44 44 

