#    Name: 5ya8_4_NAD_CAVITY_N1_8
#    Modification time : Fri May 22 19:15:19 2020

@<TRIPOS>MOLECULE
5ya8_4_NAD_CAVITY_N1_8
   74     0     7     0     0
SMALL
NO_CHARGES


@<TRIPOS>ATOM
      1 OG         -7.8600    4.0000    7.6200 O.3       1 SER1        0.0000 
      2 OG         -8.6700    5.2600    7.7400 O.3       1 SER1        0.0000 
      3 OG         -6.8900    6.4100    7.5900 O.3       1 SER1        0.0000 
      4 OG         -7.6900    7.6700    7.7100 O.3       1 SER1        0.0000 
      5 OG         -7.6700    5.8100    8.7200 O.3       1 SER1        0.0000 
      6 OG         -7.6500    3.9400    9.7300 O.3       1 SER1        0.0000 
      7 OG         -5.6800   13.5000   16.2000 O.3       1 SER1        0.0000 
      8 N          -8.6400    3.4000    8.7500 N.am      2 ALA2        0.0000 
      9 N         -10.4900   14.4600   11.3900 N.am      2 ALA2        0.0000 
     10 N          -9.5000   15.0000   12.3700 N.am      2 ALA2        0.0000 
     11 N          -5.7000   15.3700   15.1900 N.am      2 ALA2        0.0000 
     12 N          -5.4900   15.3100   17.3000 N.am      2 ALA2        0.0000 
     13 OD1        -6.6700    6.3500    9.7000 O.co2     3 ASP3        0.0000 
     14 OD1        -6.4800    8.1500   10.8000 O.co2     3 ASP3        0.0000 
     15 OD1        -7.2800    9.4100   10.9200 O.co2     3 ASP3        0.0000 
     16 OD1        -6.4600    6.2900   11.8100 O.co2     3 ASP3        0.0000 
     17 OD1        -8.0600    8.8100   12.0500 O.co2     3 ASP3        0.0000 
     18 OD1        -7.0900   11.2200   12.0200 O.co2     3 ASP3        0.0000 
     19 OD1        -6.0900   11.7600   13.0000 O.co2     3 ASP3        0.0000 
     20 OD1        -6.8900   13.0200   13.1100 O.co2     3 ASP3        0.0000 
     21 OD1        -5.9000   13.5700   14.1000 O.co2     3 ASP3        0.0000 
     22 NZ         -5.9100    8.8200    7.5600 N.4       4 LYS4        0.0000 
     23 NZ         -7.5200   11.3400    7.8000 N.4       4 LYS4        0.0000 
     24 NZ         -7.4300    3.8800   11.8400 N.4       4 LYS4        0.0000 
     25 NZ         -4.9100    9.3600    8.5400 N.4       4 LYS4        0.0000 
     26 NZ         -6.5200   11.8800    8.7800 N.4       4 LYS4        0.0000 
     27 NZ         -4.8900    7.4900    9.5500 N.4       4 LYS4        0.0000 
     28 NZ         -5.7000    8.7600    9.6700 N.4       4 LYS4        0.0000 
     29 NZ         -6.5000   10.0200    9.7900 N.4       4 LYS4        0.0000 
     30 NZ         -5.6700    6.8900   10.6800 N.4       4 LYS4        0.0000 
     31 CZ         -9.4700    6.5200    7.8600 C.ar      5 PHE5        0.0000 
     32 CZ         -8.4700    7.0700    8.8400 C.ar      5 PHE5        0.0000 
     33 CZ         -9.2500    6.4600    9.9700 C.ar      5 PHE5        0.0000 
     34 CZ         -8.3200   12.6000    7.9100 C.ar      5 PHE5        0.0000 
     35 CZ         -7.5000    9.4700    8.8100 C.ar      5 PHE5        0.0000 
     36 CZ         -8.3000   10.7400    8.9300 C.ar      5 PHE5        0.0000 
     37 CZ         -9.1000   12.0000    9.0400 C.ar      5 PHE5        0.0000 
     38 CZ         -7.4700    7.6100    9.8200 C.ar      5 PHE5        0.0000 
     39 CZ         -8.2600    7.0100   10.9500 C.ar      5 PHE5        0.0000 
     40 CZ         -7.3200   13.1400    8.9000 C.ar      5 PHE5        0.0000 
     41 CZ         -7.3000   11.2800    9.9100 C.ar      5 PHE5        0.0000 
     42 CZ         -8.1000   12.5400   10.0200 C.ar      5 PHE5        0.0000 
     43 CZ         -8.0800   10.6800   11.0400 C.ar      5 PHE5        0.0000 
     44 CZ         -8.8900   11.9400   11.1500 C.ar      5 PHE5        0.0000 
     45 CZ         -6.3300   13.6900    9.8800 C.ar      5 PHE5        0.0000 
     46 CZ         -6.3000   11.8200   10.8900 C.ar      5 PHE5        0.0000 
     47 CZ         -7.1100   13.0800   11.0100 C.ar      5 PHE5        0.0000 
     48 CZ         -6.1100   13.6300   11.9900 C.ar      5 PHE5        0.0000 
     49 CZ         -5.1100   14.1700   12.9700 C.ar      5 PHE5        0.0000 
     50 CZ         -4.1200   14.7100   13.9500 C.ar      5 PHE5        0.0000 
     51 CA         -9.4500    4.6600    8.8700 C.3       6 GLY6        0.0000 
     52 CA         -8.4500    5.2000    9.8500 C.3       6 GLY6        0.0000 
     53 CA         -5.1100    7.5500    7.4400 C.3       6 GLY6        0.0000 
     54 CA         -5.8700    5.0900    9.5800 C.3       6 GLY6        0.0000 
     55 CA         -6.6500    4.4800   10.7100 C.3       6 GLY6        0.0000 
     56 CA         -7.4500    5.7400   10.8300 C.3       6 GLY6        0.0000 
     57 CA         -9.0400    6.4000   12.0800 C.3       6 GLY6        0.0000 
     58 CA         -8.9100   13.8000   10.1400 C.3       6 GLY6        0.0000 
     59 CA         -9.6900   13.2000   11.2700 C.3       6 GLY6        0.0000 
     60 CA        -10.4700   12.6000   12.4000 C.3       6 GLY6        0.0000 
     61 CA         -7.9100   14.3400   11.1200 C.3       6 GLY6        0.0000 
     62 CA         -6.9100   14.8900   12.1000 C.3       6 GLY6        0.0000 
     63 CA         -5.9200   15.4300   13.0800 C.3       6 GLY6        0.0000 
     64 CA         -4.9000   14.1100   15.0800 C.3       6 GLY6        0.0000 
     65 CA         -6.4800   14.7700   16.3200 C.3       6 GLY6        0.0000 
     66 DU         -5.8900    6.9500    8.5700 H         7 CUB7        0.0000 
     67 DU         -6.6900    8.2100    8.6900 H         7 CUB7        0.0000 
     68 DU         -7.8900   12.4800   12.1300 H         7 CUB7        0.0000 
     69 DU         -8.6900   13.7400   12.2500 H         7 CUB7        0.0000 
     70 DU         -9.4700   13.1400   13.3800 H         7 CUB7        0.0000 
     71 DU         -7.7000   14.2800   13.2300 H         7 CUB7        0.0000 
     72 DU         -8.4800   13.6800   14.3600 H         7 CUB7        0.0000 
     73 DU         -6.7000   14.8300   14.2100 H         7 CUB7        0.0000 
     74 DU         -7.4800   14.2200   15.3400 H         7 CUB7        0.0000 
@<TRIPOS>BOND
@<TRIPOS>SUBSTRUCTURE
     1 SER1        1 GROUP   
     2 ALA2        8 GROUP   
     3 ASP3       13 GROUP   
     4 LYS4       22 GROUP   
     5 PHE5       31 GROUP   
     6 GLY6       51 GROUP   
     7 CUB7       66 GROUP   
@<TRIPOS>SET

