#    Name: 5ya8_3_NAD
#    Modification time : Fri May 22 19:15:08 2020

@<TRIPOS>MOLECULE
5ya8_3_NAD
   44    48     1     0     1
SMALL
NO_CHARGES


@<TRIPOS>ATOM
      1 PA        -37.2480   -3.6000   -6.6140 P.3       1 NAD500      0.0000 
      2 O1A       -37.9100   -4.4960   -7.6480 O.co2     1 NAD500      0.0000 
      3 O2A       -35.7500   -3.7420   -6.3010 O.co2     1 NAD500      0.0000 
      4 O5B       -37.9190   -3.8800   -5.1810 O.3       1 NAD500      0.0000 
      5 C5B       -39.3420   -3.8580   -5.0170 C.3       1 NAD500      0.0000 
      6 C4B       -39.6320   -4.3800   -3.6320 C.3       1 NAD500      0.0000 
      7 O4B       -41.0420   -4.3440   -3.4200 O.3       1 NAD500      0.0000 
      8 C3B       -39.2800   -5.8520   -3.5640 C.3       1 NAD500      0.0000 
      9 O3B       -38.9940   -6.1490   -2.2070 O.3       1 NAD500      0.0000 
     10 C2B       -40.5510   -6.5720   -3.9360 C.3       1 NAD500      0.0000 
     11 O2B       -40.5470   -7.9470   -3.5670 O.3       1 NAD500      0.0000 
     12 C1B       -41.5060   -5.6900   -3.1390 C.3       1 NAD500      0.0000 
     13 N9A       -42.9120   -5.7780   -3.5180 N.pl3     1 NAD500      0.0000 
     14 C8A       -43.4490   -5.6890   -4.7560 C.2       1 NAD500      0.0000 
     15 N7A       -44.8030   -5.8270   -4.6850 N.2       1 NAD500      0.0000 
     16 C5A       -45.1020   -5.9570   -3.3750 C.ar      1 NAD500      0.0000 
     17 C6A       -46.3280   -6.1020   -2.5860 C.ar      1 NAD500      0.0000 
     18 N6A       -47.5130   -6.1270   -3.1910 N.pl3     1 NAD500      0.0000 
     19 N1A       -46.2270   -6.2160   -1.2470 N.ar      1 NAD500      0.0000 
     20 C2A       -45.0220   -6.1810   -0.6150 C.ar      1 NAD500      0.0000 
     21 N3A       -43.8530   -6.0390   -1.2750 N.ar      1 NAD500      0.0000 
     22 C4A       -43.8540   -5.9240   -2.6230 C.ar      1 NAD500      0.0000 
     23 O3        -37.5080   -2.0550   -7.1230 O.3       1 NAD500      0.0000 
     24 PN        -36.5090   -0.8540   -6.5380 P.3       1 NAD500      0.0000 
     25 O1N       -35.3530   -0.5910   -7.4880 O.co2     1 NAD500      0.0000 
     26 O2N       -36.0960   -1.0080   -5.0830 O.co2     1 NAD500      0.0000 
     27 O5D       -37.5070    0.3880   -6.6030 O.3       1 NAD500      0.0000 
     28 C5D       -38.5320    0.4180   -5.6470 C.3       1 NAD500      0.0000 
     29 C4D       -38.9090    1.8500   -5.5600 C.3       1 NAD500      0.0000 
     30 O4D       -37.7350    2.5700   -5.2370 O.3       1 NAD500      0.0000 
     31 C3D       -39.4190    2.3690   -6.8960 C.3       1 NAD500      0.0000 
     32 O3D       -40.5010    3.2140   -6.5600 O.3       1 NAD500      0.0000 
     33 C2D       -38.3060    3.2180   -7.4620 C.3       1 NAD500      0.0000 
     34 O2D       -38.7720    4.3780   -8.1350 O.3       1 NAD500      0.0000 
     35 C1D       -37.5850    3.6230   -6.1960 C.3       1 NAD500      0.0000 
     36 N1N       -36.1610    3.7850   -6.3500 N.pl3     1 NAD500      0.0000 
     37 C2N       -35.6490    4.9060   -5.8050 C.ar      1 NAD500      0.0000 
     38 C3N       -34.2830    5.2030   -5.8190 C.ar      1 NAD500      0.0000 
     39 C7N       -33.7720    6.5040   -5.2160 C.2       1 NAD500      0.0000 
     40 O7N       -32.6120    6.8710   -5.4950 O.2       1 NAD500      0.0000 
     41 N7N       -34.5510    7.2370   -4.3920 N.am      1 NAD500      0.0000 
     42 C4N       -33.4420    4.2690   -6.4200 C.ar      1 NAD500      0.0000 
     43 C5N       -34.0020    3.0890   -6.9690 C.ar      1 NAD500      0.0000 
     44 C6N       -35.3790    2.8420   -6.9170 C.ar      1 NAD500      0.0000 
@<TRIPOS>BOND
     1    1    2 ar   
     2    1    3 ar   
     3    1    4 1    
     4    1   23 1    
     5    4    5 1    
     6    5    6 1    
     7    6    7 1    
     8    6    8 1    
     9    7   12 1    
    10    8    9 1    
    11    8   10 1    
    12   10   11 1    
    13   10   12 1    
    14   12   13 1    
    15   13   14 1    
    16   13   22 1    
    17   14   15 2    
    18   15   16 1    
    19   16   17 ar   
    20   16   22 ar   
    21   17   18 1    
    22   17   19 ar   
    23   19   20 ar   
    24   20   21 ar   
    25   21   22 ar   
    26   23   24 1    
    27   24   25 ar   
    28   24   26 ar   
    29   24   27 1    
    30   27   28 1    
    31   28   29 1    
    32   29   30 1    
    33   29   31 1    
    34   30   35 1    
    35   31   32 1    
    36   31   33 1    
    37   33   34 1    
    38   33   35 1    
    39   35   36 1    
    40   36   37 ar   
    41   36   44 ar   
    42   37   38 ar   
    43   38   39 1    
    44   38   42 ar   
    45   39   40 2    
    46   39   41 am   
    47   42   43 ar   
    48   43   44 ar   
@<TRIPOS>SUBSTRUCTURE
     1 NAD500      1 GROUP   
@<TRIPOS>SET
ATOM$ORANGE STATIC     ATOMS   COLORGROUP SYSTEM 
42 5 5 6 6 8 8 10 10 12 12 14 14 16 16 17 17 20 \
20 22 22 28 28 29 29 31 31 33 33 35 35 37 37 38 38 39 \
39 42 42 43 43 44 44 

