#    Name: 5ya8_2_NAD_CAVITY_N1_ALL
#    Modification time : Fri May 22 19:15:02 2020

@<TRIPOS>MOLECULE
5ya8_2_NAD_CAVITY_N1_ALL
  113     0     7     0     0
SMALL
NO_CHARGES


@<TRIPOS>ATOM
      1 OG          9.8900   13.1900  -26.9900 O.3       1 SER1        0.0000 
      2 OG          9.0900   14.4500  -26.8700 O.3       1 SER1        0.0000 
      3 OG         10.8700   15.5900  -27.0200 O.3       1 SER1        0.0000 
      4 OG         10.8900   13.7300  -26.0100 O.3       1 SER1        0.0000 
      5 OG         10.0900   14.9900  -25.8900 O.3       1 SER1        0.0000 
      6 OG         10.1100   13.1300  -24.8800 O.3       1 SER1        0.0000 
      7 OG         12.6700   14.8800  -26.1600 O.3       1 SER1        0.0000 
      8 OG         11.8700   16.1400  -26.0400 O.3       1 SER1        0.0000 
      9 OG         11.8900   14.2700  -25.0300 O.3       1 SER1        0.0000 
     10 N           7.3000    8.5500  -33.2600 N.am      2 ALA2        0.0000 
     11 N           6.5100    7.9500  -32.1300 N.am      2 ALA2        0.0000 
     12 O          13.2200   10.7900  -35.9300 O.2       2 ALA2        0.0000 
     13 O          15.0200   10.0700  -35.0700 O.2       2 ALA2        0.0000 
     14 O          14.2200   11.3300  -34.9500 O.2       2 ALA2        0.0000 
     15 O          17.6000    9.9600  -35.3300 O.2       2 ALA2        0.0000 
     16 O          16.8000   11.2200  -35.2100 O.2       2 ALA2        0.0000 
     17 N          16.0000   12.4800  -35.1000 N.am      2 ALA2        0.0000 
     18 O          16.0200   10.6100  -34.0900 O.2       2 ALA2        0.0000 
     19 O          14.4100   13.1400  -33.8500 O.2       2 ALA2        0.0000 
     20 O          17.8000   11.7600  -34.2300 O.2       2 ALA2        0.0000 
     21 N          15.4100   13.6800  -32.8700 N.am      2 ALA2        0.0000 
     22 N          17.2100   12.9600  -32.0100 N.am      2 ALA2        0.0000 
     23 N          16.4100   14.2200  -31.8900 N.am      2 ALA2        0.0000 
     24 N          18.2100   13.5000  -31.0300 N.am      2 ALA2        0.0000 
     25 N          17.4200   12.9000  -29.9000 N.am      2 ALA2        0.0000 
     26 N          16.6200   14.1600  -29.7800 N.am      2 ALA2        0.0000 
     27 N          12.6500   16.7400  -27.1700 N.am      2 ALA2        0.0000 
     28 OD1        10.8700    8.9800  -32.5400 O.co2     3 ASP3        0.0000 
     29 OD1        10.9000    7.1200  -31.5300 O.co2     3 ASP3        0.0000 
     30 OD1        10.0900    8.3800  -31.4100 O.co2     3 ASP3        0.0000 
     31 OD1        12.6500   10.1300  -32.6900 O.co2     3 ASP3        0.0000 
     32 OD1        11.0900    8.9200  -30.4300 O.co2     3 ASP3        0.0000 
     33 OD1        14.4300   11.2700  -32.8400 O.co2     3 ASP3        0.0000 
     34 OD1        11.3000    8.8600  -28.3200 O.co2     3 ASP3        0.0000 
     35 OD1        10.5000   10.1200  -28.2000 O.co2     3 ASP3        0.0000 
     36 OD1        15.4300   11.8200  -31.8600 O.co2     3 ASP3        0.0000 
     37 OD1        14.6300   13.0800  -31.7400 O.co2     3 ASP3        0.0000 
     38 OD1        12.2600   13.1300  -29.3600 O.co2     3 ASP3        0.0000 
     39 OD1        15.6400   11.7500  -29.7500 O.co2     3 ASP3        0.0000 
     40 OD1        14.8400   13.0200  -29.6300 O.co2     3 ASP3        0.0000 
     41 OD1        14.0600   12.4100  -28.5000 O.co2     3 ASP3        0.0000 
     42 OD1        12.4700   13.0700  -27.2500 O.co2     3 ASP3        0.0000 
     43 OD1        12.6900   13.0100  -25.1500 O.co2     3 ASP3        0.0000 
     44 NZ          7.9200   10.2400  -27.9400 N.4       4 LYS4        0.0000 
     45 NZ          9.7200    9.5200  -27.0800 N.4       4 LYS4        0.0000 
     46 NZ          8.9200   10.7800  -26.9600 N.4       4 LYS4        0.0000 
     47 NZ         11.5000   10.6600  -27.2200 N.4       4 LYS4        0.0000 
     48 NZ         10.7200   10.0600  -26.1000 N.4       4 LYS4        0.0000 
     49 NZ          9.9100   11.3200  -25.9800 N.4       4 LYS4        0.0000 
     50 NZ          9.1100   12.5800  -25.8600 N.4       4 LYS4        0.0000 
     51 NZ         13.2800   11.8100  -27.3700 N.4       4 LYS4        0.0000 
     52 NZ         12.5000   11.2100  -26.2400 N.4       4 LYS4        0.0000 
     53 NZ         15.8200   15.4200  -29.6600 N.4       4 LYS4        0.0000 
     54 NZ         14.2300   16.0800  -28.4100 N.4       4 LYS4        0.0000 
     55 CZ          9.2900    9.6400  -31.2900 C.ar      5 PHE5        0.0000 
     56 CZ         10.1100    6.5100  -30.4000 C.ar      5 PHE5        0.0000 
     57 CZ          8.5100    9.0400  -30.1700 C.ar      5 PHE5        0.0000 
     58 CZ          7.7000   10.3000  -30.0500 C.ar      5 PHE5        0.0000 
     59 CZ         10.2900   10.1800  -30.3100 C.ar      5 PHE5        0.0000 
     60 CZ         11.1100    7.0600  -29.4200 C.ar      5 PHE5        0.0000 
     61 CZ         10.3100    8.3200  -29.3000 C.ar      5 PHE5        0.0000 
     62 CZ          9.5000    9.5800  -29.1900 C.ar      5 PHE5        0.0000 
     63 CZ          8.7000   10.8400  -29.0700 C.ar      5 PHE5        0.0000 
     64 CZ          9.5300    7.7100  -28.1700 C.ar      5 PHE5        0.0000 
     65 CZ          8.7200    8.9700  -28.0600 C.ar      5 PHE5        0.0000 
     66 CZ         15.2400   10.0100  -32.9600 C.ar      5 PHE5        0.0000 
     67 CZ          9.7000   11.3800  -28.0900 C.ar      5 PHE5        0.0000 
     68 CZ          8.9000   12.6400  -27.9700 C.ar      5 PHE5        0.0000 
     69 CZ         17.0100   11.1600  -33.1000 C.ar      5 PHE5        0.0000 
     70 CZ         16.2100   12.4200  -32.9900 C.ar      5 PHE5        0.0000 
     71 CZ         11.4600   14.3900  -29.2500 C.ar      5 PHE5        0.0000 
     72 CZ         11.4800   12.5300  -28.2400 C.ar      5 PHE5        0.0000 
     73 CZ         10.6700   13.7900  -28.1200 C.ar      5 PHE5        0.0000 
     74 CZ          9.8700   15.0500  -28.0000 C.ar      5 PHE5        0.0000 
     75 CZ         10.7000   11.9300  -27.1100 C.ar      5 PHE5        0.0000 
     76 CZ         18.0100   11.7000  -32.1200 C.ar      5 PHE5        0.0000 
     77 CZ         16.4300   12.3600  -30.8800 C.ar      5 PHE5        0.0000 
     78 CZ         16.6400   12.3000  -28.7700 C.ar      5 PHE5        0.0000 
     79 CA          5.7300    7.3500  -31.0000 C.3       6 GLY6        0.0000 
     80 CA          9.0700    9.7000  -33.4000 C.3       6 GLY6        0.0000 
     81 CA          8.2900    9.1000  -32.2800 C.3       6 GLY6        0.0000 
     82 CA          7.5100    8.4900  -31.1500 C.3       6 GLY6        0.0000 
     83 CA          7.5300    6.6300  -30.1400 C.3       6 GLY6        0.0000 
     84 CA          6.7300    7.8900  -30.0200 C.3       6 GLY6        0.0000 
     85 CA          8.5300    7.1700  -29.1500 C.3       6 GLY6        0.0000 
     86 CA          7.7300    8.4300  -29.0400 C.3       6 GLY6        0.0000 
     87 CA          6.9200    9.6900  -28.9200 C.3       6 GLY6        0.0000 
     88 CA         13.4400   10.7300  -33.8200 C.3       6 GLY6        0.0000 
     89 CA         18.3800   10.5600  -36.4600 C.3       6 GLY6        0.0000 
     90 CA         17.5800   11.8200  -36.3400 C.3       6 GLY6        0.0000 
     91 CA         13.6300   12.5300  -32.7200 C.3       6 GLY6        0.0000 
     92 CA         18.5800   12.3600  -35.3600 C.3       6 GLY6        0.0000 
     93 CA         13.8200   14.3400  -31.6200 C.3       6 GLY6        0.0000 
     94 CA         13.0400   13.7400  -30.4900 C.3       6 GLY6        0.0000 
     95 CA         15.6200   13.6200  -30.7600 C.3       6 GLY6        0.0000 
     96 CA         14.0400   14.2800  -29.5100 C.3       6 GLY6        0.0000 
     97 CA         13.2600   13.6700  -28.3800 C.3       6 GLY6        0.0000 
     98 CA         12.4500   14.9400  -28.2700 C.3       6 GLY6        0.0000 
     99 CA         11.6500   16.2000  -28.1500 C.3       6 GLY6        0.0000 
    100 CA         10.9100   11.8600  -25.0000 C.3       6 GLY6        0.0000 
    101 CA         15.8400   13.5600  -28.6500 C.3       6 GLY6        0.0000 
    102 CA         15.0400   14.8200  -28.5300 C.3       6 GLY6        0.0000 
    103 CA         13.4500   15.4800  -27.2900 C.3       6 GLY6        0.0000 
    104 DU          7.3200    6.6900  -32.2400 H         7 CUB7        0.0000 
    105 DU          9.9000    6.5700  -32.5100 H         7 CUB7        0.0000 
    106 DU          9.1000    7.8300  -32.3900 H         7 CUB7        0.0000 
    107 DU          9.1200    5.9700  -31.3800 H         7 CUB7        0.0000 
    108 DU          8.3100    7.2300  -31.2600 H         7 CUB7        0.0000 
    109 DU          9.3100    7.7700  -30.2800 H         7 CUB7        0.0000 
    110 DU         16.5800   11.2800  -37.3200 H         7 CUB7        0.0000 
    111 DU         15.8000   10.6700  -36.2000 H         7 CUB7        0.0000 
    112 DU         15.2100   11.8800  -33.9700 H         7 CUB7        0.0000 
    113 DU         11.6700   14.3300  -27.1400 H         7 CUB7        0.0000 
@<TRIPOS>BOND
@<TRIPOS>SUBSTRUCTURE
     1 SER1        1 GROUP   
     2 ALA2       10 GROUP   
     3 ASP3       28 GROUP   
     4 LYS4       44 GROUP   
     5 PHE5       55 GROUP   
     6 GLY6       79 GROUP   
     7 CUB7      104 GROUP   
@<TRIPOS>SET

