#    Name: 5ya8_1_NAD
#    Modification time : Fri May 22 19:14:50 2020

@<TRIPOS>MOLECULE
5ya8_1_NAD
   44    48     1     0     1
SMALL
NO_CHARGES


@<TRIPOS>ATOM
      1 PA         -9.4070   41.4440  -33.3800 P.3       1 NAD401      0.0000 
      2 O1A       -10.0330   42.7520  -32.9360 O.co2     1 NAD401      0.0000 
      3 O2A        -8.4010   40.6170  -32.5530 O.co2     1 NAD401      0.0000 
      4 O5B        -8.5840   41.7680  -34.7310 O.3       1 NAD401      0.0000 
      5 C5B        -9.2880   42.4390  -35.7600 C.3       1 NAD401      0.0000 
      6 C4B        -8.2990   42.6490  -36.8730 C.3       1 NAD401      0.0000 
      7 O4B        -9.0280   43.2500  -37.9250 O.3       1 NAD401      0.0000 
      8 C3B        -7.2490   43.6460  -36.3920 C.3       1 NAD401      0.0000 
      9 O3B        -5.9480   43.3440  -36.8970 O.3       1 NAD401      0.0000 
     10 C2B        -7.8010   44.9520  -36.9350 C.3       1 NAD401      0.0000 
     11 O2B        -6.7270   45.8930  -37.0430 O.3       1 NAD401      0.0000 
     12 C1B        -8.3630   44.4630  -38.2700 C.3       1 NAD401      0.0000 
     13 N9A        -9.2210   45.4230  -39.0060 N.pl3     1 NAD401      0.0000 
     14 C8A       -10.3000   46.1100  -38.5860 C.2       1 NAD401      0.0000 
     15 N7A       -10.8200   46.9060  -39.5800 N.2       1 NAD401      0.0000 
     16 C5A       -10.0490   46.7140  -40.6580 C.ar      1 NAD401      0.0000 
     17 C6A        -9.9750   47.2220  -42.0470 C.ar      1 NAD401      0.0000 
     18 N6A       -10.8530   48.1120  -42.5130 N.pl3     1 NAD401      0.0000 
     19 N1A        -8.9870   46.7900  -42.8520 N.ar      1 NAD401      0.0000 
     20 C2A        -8.0660   45.9020  -42.4210 C.ar      1 NAD401      0.0000 
     21 N3A        -8.0790   45.3880  -41.1760 N.ar      1 NAD401      0.0000 
     22 C4A        -9.0070   45.7500  -40.2650 C.ar      1 NAD401      0.0000 
     23 O3        -10.6270   40.5240  -33.7910 O.3       1 NAD401      0.0000 
     24 PN        -10.4510   38.9280  -33.7970 P.3       1 NAD401      0.0000 
     25 O1N       -10.6970   38.3760  -32.4110 O.co2     1 NAD401      0.0000 
     26 O2N        -9.2700   38.4080  -34.5930 O.co2     1 NAD401      0.0000 
     27 O5D       -11.8370   38.6470  -34.6470 O.3       1 NAD401      0.0000 
     28 C5D       -11.7900   38.6960  -36.0950 C.3       1 NAD401      0.0000 
     29 C4D       -12.6640   37.6190  -36.7380 C.3       1 NAD401      0.0000 
     30 O4D       -12.2290   36.2920  -36.4000 O.3       1 NAD401      0.0000 
     31 C3D       -14.1480   37.7660  -36.3070 C.3       1 NAD401      0.0000 
     32 O3D       -14.9900   37.6230  -37.4610 O.3       1 NAD401      0.0000 
     33 C2D       -14.3250   36.6760  -35.2690 C.3       1 NAD401      0.0000 
     34 O2D       -15.6600   36.1920  -35.2200 O.3       1 NAD401      0.0000 
     35 C1D       -13.3220   35.6060  -35.7530 C.3       1 NAD401      0.0000 
     36 N1N       -12.6410   34.8070  -34.7430 N.pl3     1 NAD401      0.0000 
     37 C2N       -12.5790   33.4840  -34.9130 C.ar      1 NAD401      0.0000 
     38 C3N       -11.8640   32.6600  -34.0270 C.ar      1 NAD401      0.0000 
     39 C7N       -11.8230   31.1290  -34.2160 C.2       1 NAD401      0.0000 
     40 O7N       -11.4060   30.3990  -33.2640 O.2       1 NAD401      0.0000 
     41 N7N       -12.2320   30.6660  -35.4360 N.am      1 NAD401      0.0000 
     42 C4N       -11.1820   33.2860  -32.9530 C.ar      1 NAD401      0.0000 
     43 C5N       -11.2610   34.7000  -32.8020 C.ar      1 NAD401      0.0000 
     44 C6N       -11.9790   35.4360  -33.7370 C.ar      1 NAD401      0.0000 
@<TRIPOS>BOND
     1    1    2 ar   
     2    1    3 ar   
     3    1    4 1    
     4    1   23 1    
     5    4    5 1    
     6    5    6 1    
     7    6    7 1    
     8    6    8 1    
     9    7   12 1    
    10    8    9 1    
    11    8   10 1    
    12   10   11 1    
    13   10   12 1    
    14   12   13 1    
    15   13   14 1    
    16   13   22 1    
    17   14   15 2    
    18   15   16 1    
    19   16   17 ar   
    20   16   22 ar   
    21   17   18 1    
    22   17   19 ar   
    23   19   20 ar   
    24   20   21 ar   
    25   21   22 ar   
    26   23   24 1    
    27   24   25 ar   
    28   24   26 ar   
    29   24   27 1    
    30   27   28 1    
    31   28   29 1    
    32   29   30 1    
    33   29   31 1    
    34   30   35 1    
    35   31   32 1    
    36   31   33 1    
    37   33   34 1    
    38   33   35 1    
    39   35   36 1    
    40   36   37 ar   
    41   36   44 ar   
    42   37   38 ar   
    43   38   39 1    
    44   38   42 ar   
    45   39   40 2    
    46   39   41 am   
    47   42   43 ar   
    48   43   44 ar   
@<TRIPOS>SUBSTRUCTURE
     1 NAD401      1 GROUP   
@<TRIPOS>SET
ATOM$ORANGE STATIC     ATOMS   COLORGROUP SYSTEM 
42 5 5 6 6 8 8 10 10 12 12 14 14 16 16 17 17 20 \
20 22 22 28 28 29 29 31 31 33 33 35 35 37 37 38 38 39 \
39 42 42 43 43 44 44 

