#    Name: 5ya8_3_NAD_CAVITY_N1_4
#    Modification time : Fri May 22 19:15:10 2020

@<TRIPOS>MOLECULE
5ya8_3_NAD_CAVITY_N1_4
   79     0     7     0     0
SMALL
NO_CHARGES


@<TRIPOS>ATOM
      1 OG        -33.0300    5.5800   -8.9700 O.3       1 SER1        0.0000 
      2 OG        -31.2300    4.8700   -8.1000 O.3       1 SER1        0.0000 
      3 OG        -32.0400    6.1300   -7.9900 O.3       1 SER1        0.0000 
      4 OG        -32.8200    5.5200   -6.8600 O.3       1 SER1        0.0000 
      5 N         -39.3700    1.6000   -9.5000 N.am      2 ALA2        0.0000 
      6 N         -38.3700    2.1500   -8.5200 N.am      2 ALA2        0.0000 
      7 N         -39.1700    3.4100   -8.4000 N.am      2 ALA2        0.0000 
      8 N         -39.1500    1.5400   -7.3900 N.am      2 ALA2        0.0000 
      9 N         -39.9600    2.8000   -7.2700 N.am      2 ALA2        0.0000 
     10 N         -38.3300   -1.5800   -6.5000 N.am      2 ALA2        0.0000 
     11 N         -39.1300   -0.3200   -6.3800 N.am      2 ALA2        0.0000 
     12 N         -39.9300    0.9400   -6.2600 N.am      2 ALA2        0.0000 
     13 N         -38.1800    3.9500   -7.4200 N.am      2 ALA2        0.0000 
     14 N         -38.9600    3.3500   -6.2900 N.am      2 ALA2        0.0000 
     15 O         -36.5300   -2.3000   -5.6400 O.2       2 ALA2        0.0000 
     16 N         -37.3300   -1.0400   -5.5200 N.am      2 ALA2        0.0000 
     17 N         -38.1300    0.2200   -5.4000 N.am      2 ALA2        0.0000 
     18 N         -38.9400    1.4800   -5.2800 N.am      2 ALA2        0.0000 
     19 OD1       -40.3600    1.0600  -10.4800 O.co2     3 ASP3        0.0000 
     20 OD1       -40.3400   -0.8000   -9.4700 O.co2     3 ASP3        0.0000 
     21 OD1       -38.5600    0.3400   -9.6200 O.co2     3 ASP3        0.0000 
     22 OD1       -39.3500   -0.2600   -8.4900 O.co2     3 ASP3        0.0000 
     23 OD1       -34.8100    4.4400   -8.8200 O.co2     3 ASP3        0.0000 
     24 OD1       -35.5900    3.8300   -7.6900 O.co2     3 ASP3        0.0000 
     25 OD1       -33.8200    4.9800   -7.8400 O.co2     3 ASP3        0.0000 
     26 NZ        -38.5900    2.2100  -10.6300 N.4       4 LYS4        0.0000 
     27 NZ        -36.7900    1.4900   -9.7700 N.4       4 LYS4        0.0000 
     28 NZ        -37.5900    2.7500   -9.6500 N.4       4 LYS4        0.0000 
     29 NZ        -38.3900    4.0100   -9.5300 N.4       4 LYS4        0.0000 
     30 NZ        -35.0100    2.6300   -9.9200 N.4       4 LYS4        0.0000 
     31 NZ        -36.5900    3.2900   -8.6700 N.4       4 LYS4        0.0000 
     32 NZ        -33.2300    3.7800  -10.0600 N.4       4 LYS4        0.0000 
     33 NZ        -34.0300    5.0400   -9.9500 N.4       4 LYS4        0.0000 
     34 NZ        -34.4000    6.1800   -5.6100 N.4       4 LYS4        0.0000 
     35 CZ        -34.2000    1.3700  -10.0300 C.ar      5 PHE5        0.0000 
     36 CZ        -34.9900    0.7700   -8.9100 C.ar      5 PHE5        0.0000 
     37 CZ        -32.4200    2.5200  -10.1800 C.ar      5 PHE5        0.0000 
     38 CZ        -33.2100    1.9100   -9.0500 C.ar      5 PHE5        0.0000 
     39 CZ        -33.9900    1.3100   -7.9200 C.ar      5 PHE5        0.0000 
     40 CZ        -34.7900    2.5700   -7.8100 C.ar      5 PHE5        0.0000 
     41 CZ        -31.4300    3.0600   -9.2000 C.ar      5 PHE5        0.0000 
     42 CZ        -32.2300    4.3200   -9.0800 C.ar      5 PHE5        0.0000 
     43 CZ        -33.0100    3.7200   -7.9600 C.ar      5 PHE5        0.0000 
     44 CZ        -33.7900    3.1200   -6.8300 C.ar      5 PHE5        0.0000 
     45 CZ        -32.0200    4.2600   -6.9700 C.ar      5 PHE5        0.0000 
     46 CZ        -31.8200    6.0700   -5.8800 C.ar      5 PHE5        0.0000 
     47 CA        -40.1500    1.0000   -8.3700 C.3       6 GLY6        0.0000 
     48 CA        -40.1300   -0.8600   -7.3600 C.3       6 GLY6        0.0000 
     49 CA        -35.7700    0.1700   -7.7800 C.3       6 GLY6        0.0000 
     50 CA        -35.7500   -1.7000   -6.7700 C.3       6 GLY6        0.0000 
     51 CA        -36.5500   -0.4400   -6.6500 C.3       6 GLY6        0.0000 
     52 CA        -39.7400    2.7400   -5.1600 C.3       6 GLY6        0.0000 
     53 CA        -34.7700    0.7100   -6.8000 C.3       6 GLY6        0.0000 
     54 CA        -35.5700    1.9700   -6.6800 C.3       6 GLY6        0.0000 
     55 CA        -36.3800    3.2300   -6.5600 C.3       6 GLY6        0.0000 
     56 CA        -37.1800    4.4900   -6.4400 C.3       6 GLY6        0.0000 
     57 CA        -35.5500    0.1100   -5.6700 C.3       6 GLY6        0.0000 
     58 CA        -36.3600    1.3700   -5.5500 C.3       6 GLY6        0.0000 
     59 CA        -37.1600    2.6300   -5.4300 C.3       6 GLY6        0.0000 
     60 CA        -37.9600    3.8900   -5.3100 C.3       6 GLY6        0.0000 
     61 CA        -37.1400    0.7600   -4.4200 C.3       6 GLY6        0.0000 
     62 CA        -37.9400    2.0300   -4.3000 C.3       6 GLY6        0.0000 
     63 CA        -34.6200    6.2400   -7.7200 C.3       6 GLY6        0.0000 
     64 CA        -34.6000    4.3800   -6.7100 C.3       6 GLY6        0.0000 
     65 CA        -35.4000    5.6400   -6.5900 C.3       6 GLY6        0.0000 
     66 CA        -32.8000    3.6600   -5.8500 C.3       6 GLY6        0.0000 
     67 CA        -33.6000    4.9200   -5.7300 C.3       6 GLY6        0.0000 
     68 DU        -39.3300   -2.1300   -7.4800 H         7 CUB7        0.0000 
     69 DU        -36.7600   -0.3800   -8.7600 H         7 CUB7        0.0000 
     70 DU        -37.5700    0.8800   -8.6400 H         7 CUB7        0.0000 
     71 DU        -37.5500   -0.9800   -7.6300 H         7 CUB7        0.0000 
     72 DU        -38.3500    0.2800   -7.5100 H         7 CUB7        0.0000 
     73 DU        -37.5300   -2.8500   -6.6200 H         7 CUB7        0.0000 
     74 DU        -35.7900    2.0300   -8.7900 H         7 CUB7        0.0000 
     75 DU        -36.5700    1.4300   -7.6600 H         7 CUB7        0.0000 
     76 DU        -37.3700    2.6900   -7.5400 H         7 CUB7        0.0000 
     77 DU        -37.3500    0.8200   -6.5300 H         7 CUB7        0.0000 
     78 DU        -38.1600    2.0900   -6.4100 H         7 CUB7        0.0000 
     79 DU        -34.0100    3.1800   -8.9400 H         7 CUB7        0.0000 
@<TRIPOS>BOND
@<TRIPOS>SUBSTRUCTURE
     1 SER1        1 GROUP   
     2 ALA2        5 GROUP   
     3 ASP3       19 GROUP   
     4 LYS4       26 GROUP   
     5 PHE5       35 GROUP   
     6 GLY6       47 GROUP   
     7 CUB7       68 GROUP   
@<TRIPOS>SET

