#    Name: 5ya8_1_NAD_CAVITY_N1_4
#    Modification time : Fri May 22 19:14:52 2020

@<TRIPOS>MOLECULE
5ya8_1_NAD_CAVITY_N1_4
   71     0     7     0     0
SMALL
NO_CHARGES


@<TRIPOS>ATOM
      1 OG        -12.5300   31.5500  -32.7100 O.3       1 SER1        0.0000 
      2 OG        -13.3200   30.9500  -31.5800 O.3       1 SER1        0.0000 
      3 OG        -14.1200   32.2100  -31.4600 O.3       1 SER1        0.0000 
      4 OG        -12.3200   31.4900  -30.6000 O.3       1 SER1        0.0000 
      5 N         -13.5900   36.6000  -36.7200 N.am      2 ALA2        0.0000 
      6 N         -14.4000   37.8600  -36.6000 N.am      2 ALA2        0.0000 
      7 N         -14.3800   36.0000  -35.5900 N.am      2 ALA2        0.0000 
      8 N         -11.8200   37.7500  -36.8700 N.am      2 ALA2        0.0000 
      9 N         -12.6200   39.0100  -36.7500 N.am      2 ALA2        0.0000 
     10 N         -10.8200   38.2900  -35.8900 N.am      2 ALA2        0.0000 
     11 N         -11.6200   39.5500  -35.7700 N.am      2 ALA2        0.0000 
     12 O         -12.4200   40.8200  -35.6500 O.2       2 ALA2        0.0000 
     13 N          -9.8400   40.7000  -35.9200 N.am      2 ALA2        0.0000 
     14 N          -9.8200   38.8400  -34.9100 N.am      2 ALA2        0.0000 
     15 N         -10.6200   40.1000  -34.7900 N.am      2 ALA2        0.0000 
     16 O         -12.2300   42.6200  -34.5600 O.2       2 ALA2        0.0000 
     17 O          -8.8200   39.3800  -33.9300 O.2       2 ALA2        0.0000 
     18 O         -10.4300   41.9000  -33.6900 O.2       2 ALA2        0.0000 
     19 O         -11.2300   43.1600  -33.5800 O.2       2 ALA2        0.0000 
     20 O         -11.2100   41.3000  -32.5600 O.2       2 ALA2        0.0000 
     21 O          -8.6300   41.1800  -32.8300 O.2       2 ALA2        0.0000 
     22 OD1       -13.3800   36.5400  -34.6100 O.co2     3 ASP3        0.0000 
     23 OD1       -14.1600   35.9400  -33.4800 O.co2     3 ASP3        0.0000 
     24 OD1       -14.1400   34.0700  -32.4700 O.co2     3 ASP3        0.0000 
     25 OD1       -12.3800   37.0900  -33.6300 O.co2     3 ASP3        0.0000 
     26 OD1       -12.3600   35.2200  -32.6200 O.co2     3 ASP3        0.0000 
     27 OD1       -13.1400   34.6200  -31.4900 O.co2     3 ASP3        0.0000 
     28 OD1       -11.3900   37.6300  -32.6500 O.co2     3 ASP3        0.0000 
     29 OD1       -10.4100   40.0400  -32.6800 O.co2     3 ASP3        0.0000 
     30 OD1       -11.1700   37.5700  -30.5400 O.co2     3 ASP3        0.0000 
     31 OD1       -11.9500   36.9600  -29.4100 O.co2     3 ASP3        0.0000 
     32 NZ        -12.7900   35.3400  -36.8400 N.4       4 LYS4        0.0000 
     33 NZ        -13.9300   34.0100  -30.3600 N.4       4 LYS4        0.0000 
     34 CZ        -13.4000   38.4100  -35.6200 C.ar      5 PHE5        0.0000 
     35 CZ        -14.1800   37.8000  -34.5000 C.ar      5 PHE5        0.0000 
     36 CZ        -12.4000   38.9500  -34.6400 C.ar      5 PHE5        0.0000 
     37 CZ        -11.5400   32.0900  -31.7300 C.ar      5 PHE5        0.0000 
     38 CZ        -11.4300   41.3600  -34.6700 C.ar      5 PHE5        0.0000 
     39 CZ        -11.4100   39.4900  -33.6600 C.ar      5 PHE5        0.0000 
     40 CZ        -10.5600   34.5000  -31.7600 C.ar      5 PHE5        0.0000 
     41 CZ        -11.3600   35.7600  -31.6400 C.ar      5 PHE5        0.0000 
     42 CZ        -11.3400   33.9000  -30.6300 C.ar      5 PHE5        0.0000 
     43 CZ        -12.1500   35.1600  -30.5100 C.ar      5 PHE5        0.0000 
     44 CZ        -12.1300   33.3000  -29.5000 C.ar      5 PHE5        0.0000 
     45 CZ        -12.9300   34.5600  -29.3800 C.ar      5 PHE5        0.0000 
     46 CZ        -10.1700   38.1100  -29.5600 C.ar      5 PHE5        0.0000 
     47 CA        -12.8100   37.2100  -37.8500 C.3       6 GLY6        0.0000 
     48 CA        -11.0100   36.4900  -36.9900 C.3       6 GLY6        0.0000 
     49 CA        -11.7900   35.8800  -35.8600 C.3       6 GLY6        0.0000 
     50 CA        -12.5800   35.2800  -34.7300 C.3       6 GLY6        0.0000 
     51 CA        -11.7500   32.1600  -33.8400 C.3       6 GLY6        0.0000 
     52 CA        -12.5600   33.4200  -33.7200 C.3       6 GLY6        0.0000 
     53 CA        -13.3600   34.6800  -33.6000 C.3       6 GLY6        0.0000 
     54 CA        -13.3400   32.8100  -32.5900 C.3       6 GLY6        0.0000 
     55 CA        -10.8000   36.4300  -34.8800 C.3       6 GLY6        0.0000 
     56 CA        -11.5800   35.8200  -33.7500 C.3       6 GLY6        0.0000 
     57 CA        -10.7600   32.7000  -32.8600 C.3       6 GLY6        0.0000 
     58 CA        -11.5600   33.9600  -32.7400 C.3       6 GLY6        0.0000 
     59 CA        -10.6500   41.9600  -35.8000 C.3       6 GLY6        0.0000 
     60 CA         -9.8000   36.9700  -33.9000 C.3       6 GLY6        0.0000 
     61 CA        -10.6000   38.2300  -33.7800 C.3       6 GLY6        0.0000 
     62 CA        -10.5800   36.3700  -32.7700 C.3       6 GLY6        0.0000 
     63 CA         -8.8500   41.2400  -34.9400 C.3       6 GLY6        0.0000 
     64 CA         -9.6100   38.7700  -32.8000 C.3       6 GLY6        0.0000 
     65 CA        -10.3900   38.1700  -31.6700 C.3       6 GLY6        0.0000 
     66 CA         -9.3900   38.7100  -30.6900 C.3       6 GLY6        0.0000 
     67 DU        -12.6000   37.1500  -35.7400 H         7 CUB7        0.0000 
     68 DU        -11.6000   37.6900  -34.7600 H         7 CUB7        0.0000 
     69 DU        -12.3400   33.3600  -31.6100 H         7 CUB7        0.0000 
     70 DU        -13.1200   32.7500  -30.4800 H         7 CUB7        0.0000 
     71 DU         -9.6300   40.6400  -33.8100 H         7 CUB7        0.0000 
@<TRIPOS>BOND
@<TRIPOS>SUBSTRUCTURE
     1 SER1        1 GROUP   
     2 ALA2        5 GROUP   
     3 ASP3       22 GROUP   
     4 LYS4       32 GROUP   
     5 PHE5       34 GROUP   
     6 GLY6       47 GROUP   
     7 CUB7       67 GROUP   
@<TRIPOS>SET

