#    Name: 6hgr_2_IMP
#    Modification time : Fri May 22 19:38:03 2020

@<TRIPOS>MOLECULE
6hgr_2_IMP
   23    25     1     0     0
SMALL
NO_CHARGES


@<TRIPOS>ATOM
      1 P          32.5680    7.3880    6.8530 P.3       1 IMP200      0.0000 
      2 O1P        31.2300    7.8470    6.2770 O.co2     1 IMP200      0.0000 
      3 O2P        32.5550    7.1460    8.3430 O.co2     1 IMP200      0.0000 
      4 O3P        33.7360    8.2760    6.4530 O.co2     1 IMP200      0.0000 
      5 O5'        32.8050    6.0140    6.1370 O.3       1 IMP200      0.0000 
      6 C5'        31.9190    5.0980    6.6160 C.3       1 IMP200      0.0000 
      7 C4'        31.6500    3.9950    5.6940 C.3       1 IMP200      0.0000 
      8 O4'        32.2910    3.8560    4.4470 O.3       1 IMP200      0.0000 
      9 C3'        31.0630    2.7130    6.1740 C.3       1 IMP200      0.0000 
     10 O3'        29.7590    2.4810    5.6270 O.3       1 IMP200      0.0000 
     11 C2'        32.1190    1.7740    5.6370 C.3       1 IMP200      0.0000 
     12 O2'        31.4550    0.5740    5.2270 O.3       1 IMP200      0.0000 
     13 C1'        32.8200    2.5290    4.4840 C.3       1 IMP200      0.0000 
     14 N9         34.2910    2.5890    4.7120 N.pl3     1 IMP200      0.0000 
     15 C8         35.0820    3.6720    4.8340 C.2       1 IMP200      0.0000 
     16 N7         36.3770    3.2980    5.0240 N.2       1 IMP200      0.0000 
     17 C5         36.4350    1.9200    5.0510 C.2       1 IMP200      0.0000 
     18 C6         37.4590    0.9400    5.2040 C.2       1 IMP200      0.0000 
     19 O6         38.6550    1.2340    5.4210 O.2       1 IMP200      0.0000 
     20 N1         37.0600   -0.3620    5.1670 N.am      1 IMP200      0.0000 
     21 C2         35.7700   -0.7040    4.9780 C.2       1 IMP200      0.0000 
     22 N3         34.7740    0.1830    4.8180 N.2       1 IMP200      0.0000 
     23 C4         35.1150    1.5070    4.8510 C.2       1 IMP200      0.0000 
@<TRIPOS>BOND
     1    1    2 ar   
     2    1    3 ar   
     3    1    4 ar   
     4    1    5 1    
     5    5    6 1    
     6    6    7 1    
     7    7    8 1    
     8    7    9 1    
     9    8   13 1    
    10    9   10 1    
    11    9   11 1    
    12   11   12 1    
    13   11   13 1    
    14   13   14 1    
    15   14   15 1    
    16   14   23 1    
    17   15   16 2    
    18   16   17 1    
    19   17   18 1    
    20   17   23 2    
    21   18   19 2    
    22   18   20 am   
    23   20   21 1    
    24   21   22 2    
    25   22   23 1    
@<TRIPOS>SUBSTRUCTURE
     1 IMP200      1 GROUP   
@<TRIPOS>SET

