#    Name: 6hgr_2_IMP_CAVITY_N1_4
#    Modification time : Fri May 22 19:38:04 2020

@<TRIPOS>MOLECULE
6hgr_2_IMP_CAVITY_N1_4
   78     0     7     0     0
SMALL
NO_CHARGES


@<TRIPOS>ATOM
      1 OG         28.8700    4.2000    2.4300 O.3       1 SER1        0.0000 
      2 OG         29.9200    3.6100    4.7400 O.3       1 SER1        0.0000 
      3 OG         29.7600    5.1000    3.2400 O.3       1 SER1        0.0000 
      4 OG         30.6900    3.9500    3.5000 O.3       1 SER1        0.0000 
      5 OG         30.8000    4.5100    5.5400 O.3       1 SER1        0.0000 
      6 OG         31.5700    4.8600    4.3000 O.3       1 SER1        0.0000 
      7 OG         31.6900    5.4200    6.3500 O.3       1 SER1        0.0000 
      8 OG         31.5300    6.9100    4.8500 O.3       1 SER1        0.0000 
      9 OG         32.4600    5.7600    5.1100 O.3       1 SER1        0.0000 
     10 N          27.2100    2.9500    2.8600 N.am      2 ALA2        0.0000 
     11 N          28.1500    1.8000    3.1300 N.am      2 ALA2        0.0000 
     12 O          29.0800    0.6500    3.3900 O.2       2 ALA2        0.0000 
     13 N          31.7300    3.3700    5.8000 N.am      2 ALA2        0.0000 
     14 N          32.6600    2.2200    6.0700 N.am      2 ALA2        0.0000 
     15 N          32.6200    4.2700    6.6100 N.am      2 ALA2        0.0000 
     16 O          32.5700    6.3200    7.1500 O.2       2 ALA2        0.0000 
     17 OD1        29.8500    1.0000    2.1500 O.co2     3 ASP3        0.0000 
     18 OD1        29.9600    1.5600    4.1900 O.co2     3 ASP3        0.0000 
     19 OD1        30.8900    0.4100    4.4500 O.co2     3 ASP3        0.0000 
     20 OD1        30.7400    1.9000    2.9600 O.co2     3 ASP3        0.0000 
     21 OD1        31.5100    2.2500    1.7200 O.co2     3 ASP3        0.0000 
     22 OD1        33.2100    1.4500    0.7400 O.co2     3 ASP3        0.0000 
     23 OD1        31.6200    2.8100    3.7600 O.co2     3 ASP3        0.0000 
     24 OD1        32.5500    1.6600    4.0200 O.co2     3 ASP3        0.0000 
     25 OD1        32.3900    3.1500    2.5200 O.co2     3 ASP3        0.0000 
     26 OD1        33.3300    2.0100    2.7800 O.co2     3 ASP3        0.0000 
     27 OD1        34.1000    2.3500    1.5500 O.co2     3 ASP3        0.0000 
     28 OD1        33.4400    2.5700    4.8300 O.co2     3 ASP3        0.0000 
     29 OD1        34.3700    1.4200    5.0900 O.co2     3 ASP3        0.0000 
     30 OD1        35.3000    0.2700    5.3500 O.co2     3 ASP3        0.0000 
     31 OD1        34.2100    2.9100    3.5900 O.co2     3 ASP3        0.0000 
     32 OD1        35.1400    1.7700    3.8500 O.co2     3 ASP3        0.0000 
     33 NZ         30.8500    2.4600    5.0000 N.4       4 LYS4        0.0000 
     34 NZ         31.7800    1.3200    5.2600 N.4       4 LYS4        0.0000 
     35 NZ         32.7100    0.1700    5.5200 N.4       4 LYS4        0.0000 
     36 NZ         30.9600    3.0200    7.0400 N.4       4 LYS4        0.0000 
     37 CZ         35.0300    1.2100    1.8100 C.ar      5 PHE5        0.0000 
     38 CZ         36.0700    0.6200    4.1100 C.ar      5 PHE5        0.0000 
     39 CZ         35.9200    2.1100    2.6100 C.ar      5 PHE5        0.0000 
     40 CZ         36.6900    2.4600    1.3800 C.ar      5 PHE5        0.0000 
     41 CZ         36.9600    1.5200    4.9200 C.ar      5 PHE5        0.0000 
     42 CZ         37.7300    1.8700    3.6800 C.ar      5 PHE5        0.0000 
     43 CZ         37.5700    3.3600    2.1800 C.ar      5 PHE5        0.0000 
     44 CA         28.1000    3.8500    3.6700 C.3       6 GLY6        0.0000 
     45 CA         31.4600    4.3000    2.2600 C.3       6 GLY6        0.0000 
     46 CA         32.2400    4.6500    1.0200 C.3       6 GLY6        0.0000 
     47 CA         33.6000    1.0700    6.3300 C.3       6 GLY6        0.0000 
     48 CA         32.3500    5.2000    3.0700 C.3       6 GLY6        0.0000 
     49 CA         33.1200    5.5500    1.8300 C.3       6 GLY6        0.0000 
     50 CA         33.5500    3.1200    6.8700 C.3       6 GLY6        0.0000 
     51 CA         33.3900    4.6200    5.3700 C.3       6 GLY6        0.0000 
     52 CA         34.3200    3.4700    5.6300 C.3       6 GLY6        0.0000 
     53 CA         35.2600    2.3200    5.9000 C.3       6 GLY6        0.0000 
     54 CA         36.1900    1.1800    6.1600 C.3       6 GLY6        0.0000 
     55 CA         33.2300    6.1100    3.8700 C.3       6 GLY6        0.0000 
     56 CA         36.0300    2.6700    4.6600 C.3       6 GLY6        0.0000 
     57 CA         34.0100    6.4500    2.6300 C.3       6 GLY6        0.0000 
     58 CA         33.5000    5.1700    7.4200 C.3       6 GLY6        0.0000 
     59 CA         33.3400    6.6700    5.9200 C.3       6 GLY6        0.0000 
     60 CA         34.2800    5.5200    6.1800 C.3       6 GLY6        0.0000 
     61 CA         35.2100    4.3700    6.4400 C.3       6 GLY6        0.0000 
     62 CA         36.9100    3.5700    5.4600 C.3       6 GLY6        0.0000 
     63 CA         37.8500    2.4300    5.7300 C.3       6 GLY6        0.0000 
     64 DU         28.9200    2.1500    1.8900 H         7 CUB7        0.0000 
     65 DU         29.0300    2.7000    3.9300 H         7 CUB7        0.0000 
     66 DU         29.8000    3.0500    2.6900 H         7 CUB7        0.0000 
     67 DU         30.5800    3.4000    1.4600 H         7 CUB7        0.0000 
     68 DU         33.1700    3.5000    1.2800 H         7 CUB7        0.0000 
     69 DU         32.5100    3.7100    4.5700 H         7 CUB7        0.0000 
     70 DU         33.2800    4.0600    3.3300 H         7 CUB7        0.0000 
     71 DU         34.0500    4.4000    2.0900 H         7 CUB7        0.0000 
     72 DU         34.9800    3.2600    2.3500 H         7 CUB7        0.0000 
     73 DU         35.7600    3.6000    1.1100 H         7 CUB7        0.0000 
     74 DU         34.1600    4.9600    4.1300 H         7 CUB7        0.0000 
     75 DU         35.1000    3.8200    4.4000 H         7 CUB7        0.0000 
     76 DU         34.9400    5.3100    2.9000 H         7 CUB7        0.0000 
     77 DU         35.8700    4.1600    3.1600 H         7 CUB7        0.0000 
     78 DU         36.6400    4.5100    1.9200 H         7 CUB7        0.0000 
@<TRIPOS>BOND
@<TRIPOS>SUBSTRUCTURE
     1 SER1        1 GROUP   
     2 ALA2       10 GROUP   
     3 ASP3       17 GROUP   
     4 LYS4       33 GROUP   
     5 PHE5       37 GROUP   
     6 GLY6       44 GROUP   
     7 CUB7       64 GROUP   
@<TRIPOS>SET

