#    Name: 5n3a_1_46P_CAVITY_N1_6
#    Modification time : Fri May 22 19:15:35 2020

@<TRIPOS>MOLECULE
5n3a_1_46P_CAVITY_N1_6
   62     0     5     0     0
SMALL
NO_CHARGES


@<TRIPOS>ATOM
      1 O         -11.0700   22.9500  -32.2300 O.2       1 ALA2        0.0000 
      2 N         -10.1000   23.5300  -31.2500 N.am      1 ALA2        0.0000 
      3 N         -10.2500   24.8400  -29.5900 N.am      1 ALA2        0.0000 
      4 N          -9.1300   24.1100  -30.2700 N.am      1 ALA2        0.0000 
      5 N          -8.0100   23.3800  -30.9400 N.am      1 ALA2        0.0000 
      6 N         -12.6400   27.6200  -26.5700 N.am      1 ALA2        0.0000 
      7 N          -8.1500   24.6900  -29.2800 N.am      1 ALA2        0.0000 
      8 N          -7.0300   23.9600  -29.9600 N.am      1 ALA2        0.0000 
      9 N          -6.8200   25.1300  -30.8700 N.am      1 ALA2        0.0000 
     10 N          -9.8500   24.3900  -25.1300 N.am      1 ALA2        0.0000 
     11 N          -9.6400   25.5600  -26.0400 N.am      1 ALA2        0.0000 
     12 N          -8.5200   24.8300  -26.7200 N.am      1 ALA2        0.0000 
     13 N          -7.4000   24.1000  -27.3900 N.am      1 ALA2        0.0000 
     14 OD1       -10.3900   19.8700  -31.0900 O.co2     2 ASP3        0.0000 
     15 OD1       -11.6500   21.9100  -28.7500 O.co2     2 ASP3        0.0000 
     16 NZ        -10.5300   21.1800  -29.4300 N.4       3 LYS4        0.0000 
     17 NZ         -9.4100   20.4500  -30.1100 N.4       3 LYS4        0.0000 
     18 NZ        -10.3200   22.3500  -30.3400 N.4       3 LYS4        0.0000 
     19 NZ         -9.2000   21.6200  -31.0200 N.4       3 LYS4        0.0000 
     20 NZ        -10.6800   22.4900  -27.7700 N.4       3 LYS4        0.0000 
     21 NZ        -10.4600   23.6700  -28.6800 N.4       3 LYS4        0.0000 
     22 NZ         -9.3400   22.9400  -29.3600 N.4       3 LYS4        0.0000 
     23 NZ         -8.2200   22.2000  -30.0400 N.4       3 LYS4        0.0000 
     24 NZ         -7.1000   21.4700  -30.7100 N.4       3 LYS4        0.0000 
     25 NZ         -9.7100   23.0700  -26.7900 N.4       3 LYS4        0.0000 
     26 NZ         -9.4900   24.2500  -27.7000 N.4       3 LYS4        0.0000 
     27 NZ         -8.3700   23.5200  -28.3800 N.4       3 LYS4        0.0000 
     28 NZ         -7.2500   22.7900  -29.0500 N.4       3 LYS4        0.0000 
     29 NZ        -11.5200   26.8800  -27.2500 N.4       3 LYS4        0.0000 
     30 NZ        -10.4000   26.1500  -27.9300 N.4       3 LYS4        0.0000 
     31 NZ        -10.7600   26.2900  -25.3600 N.4       3 LYS4        0.0000 
     32 CA        -12.2600   21.1900  -32.3000 C.3       4 GLY6        0.0000 
     33 CA        -12.4100   22.5000  -30.6400 C.3       4 GLY6        0.0000 
     34 CA        -11.2900   21.7700  -31.3200 C.3       4 GLY6        0.0000 
     35 CA        -10.1700   21.0400  -32.0000 C.3       4 GLY6        0.0000 
     36 CA        -12.7700   22.6400  -28.0800 C.3       4 GLY6        0.0000 
     37 CA        -11.4400   23.0900  -29.6600 C.3       4 GLY6        0.0000 
     38 CA         -8.0800   20.8900  -31.7000 C.3       4 GLY6        0.0000 
     39 CA        -11.2200   24.2600  -30.5700 C.3       4 GLY6        0.0000 
     40 CA         -8.9800   22.8000  -31.9300 C.3       4 GLY6        0.0000 
     41 CA        -14.0400   24.6900  -25.7400 C.3       4 GLY6        0.0000 
     42 CA        -12.9200   23.9600  -26.4200 C.3       4 GLY6        0.0000 
     43 CA        -11.8000   23.2200  -27.0900 C.3       4 GLY6        0.0000 
     44 CA        -14.9500   26.5900  -25.9700 C.3       4 GLY6        0.0000 
     45 CA        -13.8300   25.8600  -26.6500 C.3       4 GLY6        0.0000 
     46 CA        -12.7100   25.1300  -27.3200 C.3       4 GLY6        0.0000 
     47 CA        -11.5900   24.4000  -28.0000 C.3       4 GLY6        0.0000 
     48 CA        -13.6100   27.0300  -27.5600 C.3       4 GLY6        0.0000 
     49 CA        -12.4900   26.3000  -28.2300 C.3       4 GLY6        0.0000 
     50 CA        -11.3700   25.5700  -28.9100 C.3       4 GLY6        0.0000 
     51 CA         -6.8900   22.6500  -31.6200 C.3       4 GLY6        0.0000 
     52 CA        -13.0700   25.2700  -24.7600 C.3       4 GLY6        0.0000 
     53 CA        -11.9500   24.5400  -25.4300 C.3       4 GLY6        0.0000 
     54 CA        -10.8300   23.8100  -26.1100 C.3       4 GLY6        0.0000 
     55 CA        -13.9700   27.1700  -24.9900 C.3       4 GLY6        0.0000 
     56 CA        -12.1000   25.8500  -23.7700 C.3       4 GLY6        0.0000 
     57 CA        -10.9800   25.1200  -24.4500 C.3       4 GLY6        0.0000 
     58 CA        -11.8800   27.0200  -24.6800 C.3       4 GLY6        0.0000 
     59 DU        -12.8500   26.4400  -25.6600 H         5 CUB7        0.0000 
     60 DU        -11.7300   25.7100  -26.3400 H         5 CUB7        0.0000 
     61 DU        -10.6100   24.9800  -27.0200 H         5 CUB7        0.0000 
     62 DU         -5.9100   23.2300  -30.6400 H         5 CUB7        0.0000 
@<TRIPOS>BOND
@<TRIPOS>SUBSTRUCTURE
     1 ALA2        1 GROUP   
     2 ASP3       14 GROUP   
     3 LYS4       16 GROUP   
     4 GLY6       32 GROUP   
     5 CUB7       59 GROUP   
@<TRIPOS>SET

