#    Name: 5n3a_1_46P
#    Modification time : Fri May 22 19:15:34 2020

@<TRIPOS>MOLECULE
5n3a_1_46P
   10    10     1     0     0
SMALL
NO_CHARGES


@<TRIPOS>ATOM
      1 C4        -13.2290   25.9580  -25.6610           1 46P404      0.0000 
      2 N1         -8.7270   23.5810  -26.4880           1 46P404      0.0000 
      3 C7        -12.3280   28.0190  -26.8540           1 46P404      0.0000 
      4 N2        -14.3590   25.5990  -25.0670           1 46P404      0.0000 
      5 N3        -13.2170   27.2920  -25.9500           1 46P404      0.0000 
      6 C2        -10.0090   23.9530  -26.4080           1 46P404      0.0000 
      7 N         -11.0070   23.2490  -26.8900           1 46P404      0.0000 
      8 S         -10.4700   25.4470  -25.6360           1 46P404      0.0000 
      9 C3        -12.1290   25.0800  -26.0060           1 46P404      0.0000 
     10 C1        -12.2110   23.8810  -26.6670           1 46P404      0.0000 
@<TRIPOS>BOND
     1    1    4 du   
     2    1    5 du   
     3    1    9 du   
     4    2    6 du   
     5    3    5 du   
     6    6    7 du   
     7    6    8 du   
     8    7   10 du   
     9    8    9 du   
    10    9   10 du   
@<TRIPOS>SUBSTRUCTURE
     1 46P404      1 GROUP   
@<TRIPOS>SET

