#    Name: 6fah_2_FAD
#    Modification time : Fri May 22 19:27:27 2020

@<TRIPOS>MOLECULE
6fah_2_FAD
   53    58     1     0     1
SMALL
NO_CHARGES


@<TRIPOS>ATOM
      1 PA        -24.8020   -6.3340   29.3010 P.3       1 FAD301      0.0000 
      2 O1A       -25.1210   -7.7380   29.5900 O.co2     1 FAD301      0.0000 
      3 O2A       -25.3160   -5.3270   30.2950 O.co2     1 FAD301      0.0000 
      4 O5B       -25.2490   -6.0060   27.8920 O.3       1 FAD301      0.0000 
      5 C5B       -26.5740   -5.5120   27.6220 C.3       1 FAD301      0.0000 
      6 C4B       -26.5250   -4.8870   26.2580 C.3       1 FAD301      0.0000 
      7 O4B       -25.5620   -3.8280   26.2760 O.3       1 FAD301      0.0000 
      8 C3B       -26.0360   -5.8120   25.1580 C.3       1 FAD301      0.0000 
      9 O3B       -27.1170   -6.5010   24.5480 O.3       1 FAD301      0.0000 
     10 C2B       -25.4060   -4.8540   24.1460 C.3       1 FAD301      0.0000 
     11 O2B       -26.2940   -4.6230   23.0650 O.3       1 FAD301      0.0000 
     12 C1B       -25.1460   -3.5820   24.9570 C.3       1 FAD301      0.0000 
     13 N9A       -23.7460   -3.2010   25.0000 N.pl3     1 FAD301      0.0000 
     14 C8A       -22.9350   -3.1690   26.0990 C.2       1 FAD301      0.0000 
     15 N7A       -21.7030   -2.7990   25.8440 N.2       1 FAD301      0.0000 
     16 C5A       -21.7070   -2.5710   24.4790 C.ar      1 FAD301      0.0000 
     17 C6A       -20.7080   -2.1520   23.5830 C.ar      1 FAD301      0.0000 
     18 N6A       -19.4540   -1.8750   23.9430 N.pl3     1 FAD301      0.0000 
     19 N1A       -21.0410   -2.0280   22.2880 N.ar      1 FAD301      0.0000 
     20 C2A       -22.2930   -2.2960   21.9200 C.ar      1 FAD301      0.0000 
     21 N3A       -23.3180   -2.7030   22.6680 N.ar      1 FAD301      0.0000 
     22 C4A       -22.9580   -2.8190   23.9460 C.ar      1 FAD301      0.0000 
     23 N1        -19.9170   -3.9060   35.6200 N.2       1 FAD301      0.0000 
     24 C2        -20.7840   -3.4450   36.5650 C.2       1 FAD301      0.0000 
     25 O2        -21.2600   -2.3080   36.5090 O.2       1 FAD301      0.0000 
     26 N3        -21.1480   -4.2600   37.6110 N.am      1 FAD301      0.0000 
     27 C4        -20.7180   -5.5400   37.8200 C.2       1 FAD301      0.0000 
     28 O4        -21.1090   -6.1740   38.7960 O.2       1 FAD301      0.0000 
     29 C4X       -19.8030   -6.0260   36.8160 C.2       1 FAD301      0.0000 
     30 N5        -19.3420   -7.2210   36.9480 N.2       1 FAD301      0.0000 
     31 C5X       -18.4720   -7.6890   35.9900 C.ar      1 FAD301      0.0000 
     32 C6        -17.9760   -8.9810   36.1160 C.ar      1 FAD301      0.0000 
     33 C7        -17.0900   -9.4990   35.1800 C.ar      1 FAD301      0.0000 
     34 C7M       -16.5780  -10.9020   35.3500 C.3       1 FAD301      0.0000 
     35 C8        -16.6890   -8.7080   34.0930 C.ar      1 FAD301      0.0000 
     36 C8M       -15.7330   -9.2380   33.0610 C.3       1 FAD301      0.0000 
     37 C9        -17.1860   -7.4150   33.9630 C.ar      1 FAD301      0.0000 
     38 C9A       -18.0710   -6.9040   34.9030 C.ar      1 FAD301      0.0000 
     39 N10       -18.5920   -5.6030   34.8070 N.pl3     1 FAD301      0.0000 
     40 C10       -19.4600   -5.1310   35.7490 C.2       1 FAD301      0.0000 
     41 C1'       -18.2200   -4.7290   33.6960 C.3       1 FAD301      0.0000 
     42 C2'       -19.2720   -4.6870   32.5970 C.3       1 FAD301      0.0000 
     43 O2'       -19.5530   -6.0080   32.1380 O.3       1 FAD301      0.0000 
     44 C3'       -18.7530   -3.8350   31.4410 C.3       1 FAD301      0.0000 
     45 O3'       -19.3770   -2.5580   31.4830 O.3       1 FAD301      0.0000 
     46 C4'       -18.9760   -4.4410   30.0600 C.3       1 FAD301      0.0000 
     47 O4'       -18.2330   -3.7020   29.0910 O.3       1 FAD301      0.0000 
     48 C5'       -20.4390   -4.4870   29.6860 C.3       1 FAD301      0.0000 
     49 O5'       -20.8840   -5.8540   29.7470 O.3       1 FAD301      0.0000 
     50 P         -22.2550   -6.2280   30.3980 P.3       1 FAD301      0.0000 
     51 O1P       -22.6700   -5.1790   31.4280 O.co2     1 FAD301      0.0000 
     52 O2P       -22.2180   -7.5620   30.9040 O.co2     1 FAD301      0.0000 
     53 O3P       -23.2360   -6.1410   29.1950 O.3       1 FAD301      0.0000 
@<TRIPOS>BOND
     1    1    2 ar   
     2    1    3 ar   
     3    1    4 1    
     4    1   53 1    
     5    4    5 1    
     6    5    6 1    
     7    6    7 1    
     8    6    8 1    
     9    7   12 1    
    10    8    9 1    
    11    8   10 1    
    12   10   11 1    
    13   10   12 1    
    14   12   13 1    
    15   13   14 1    
    16   13   22 1    
    17   14   15 2    
    18   15   16 1    
    19   16   17 ar   
    20   16   22 ar   
    21   17   18 1    
    22   17   19 ar   
    23   19   20 ar   
    24   20   21 ar   
    25   21   22 ar   
    26   23   24 1    
    27   23   40 2    
    28   24   25 2    
    29   24   26 am   
    30   26   27 am   
    31   27   28 2    
    32   27   29 1    
    33   29   30 2    
    34   29   40 1    
    35   30   31 1    
    36   31   32 ar   
    37   31   38 ar   
    38   32   33 ar   
    39   33   34 1    
    40   33   35 ar   
    41   35   36 1    
    42   35   37 ar   
    43   37   38 ar   
    44   38   39 1    
    45   39   40 1    
    46   39   41 1    
    47   41   42 1    
    48   42   43 1    
    49   42   44 1    
    50   44   45 1    
    51   44   46 1    
    52   46   47 1    
    53   46   48 1    
    54   48   49 1    
    55   49   50 1    
    56   50   51 ar   
    57   50   52 ar   
    58   50   53 1    
@<TRIPOS>SUBSTRUCTURE
     1 FAD301      1 GROUP   
@<TRIPOS>SET
ATOM$ORANGE STATIC     ATOMS   COLORGROUP SYSTEM 
54 5 5 6 6 8 8 10 10 12 12 14 14 16 16 17 17 20 \
20 22 22 24 24 27 27 29 29 31 31 32 32 33 33 34 34 35 \
35 36 36 37 37 38 38 40 40 41 41 42 42 44 44 46 46 48 \
48 

