#    Name: 6fah_4_FAD
#    Modification time : Fri May 22 19:27:54 2020

@<TRIPOS>MOLECULE
6fah_4_FAD
   53    58     1     0     1
SMALL
NO_CHARGES


@<TRIPOS>ATOM
      1 PA        -15.1360  -51.8150   19.2550 P.3       1 FAD401      0.0000 
      2 O1A       -16.3430  -51.0720   19.5830 O.co2     1 FAD401      0.0000 
      3 O2A       -14.2100  -52.0360   20.3830 O.co2     1 FAD401      0.0000 
      4 O5B       -14.2960  -51.1910   18.2220 O.3       1 FAD401      0.0000 
      5 C5B       -12.9910  -50.6740   18.5390 C.3       1 FAD401      0.0000 
      6 C4B       -12.2640  -50.3520   17.2610 C.3       1 FAD401      0.0000 
      7 O4B       -10.9030  -50.0040   17.5510 O.3       1 FAD401      0.0000 
      8 C3B       -12.1620  -51.4890   16.2610 C.3       1 FAD401      0.0000 
      9 O3B       -11.9730  -51.0000   14.9450 O.3       1 FAD401      0.0000 
     10 C2B       -10.9040  -52.2270   16.7050 C.3       1 FAD401      0.0000 
     11 O2B       -10.2280  -52.7210   15.5600 O.3       1 FAD401      0.0000 
     12 C1B       -10.0740  -51.1350   17.3860 C.3       1 FAD401      0.0000 
     13 N9A        -9.5540  -51.5250   18.6930 N.pl3     1 FAD401      0.0000 
     14 C8A       -10.2450  -52.1360   19.6980 C.2       1 FAD401      0.0000 
     15 N7A        -9.5320  -52.3830   20.7670 N.2       1 FAD401      0.0000 
     16 C5A        -8.2790  -51.9050   20.4380 C.ar      1 FAD401      0.0000 
     17 C6A        -7.0670  -51.8690   21.1440 C.ar      1 FAD401      0.0000 
     18 N6A        -6.9180  -52.3430   22.3780 N.pl3     1 FAD401      0.0000 
     19 N1A        -6.0040  -51.3240   20.5340 N.ar      1 FAD401      0.0000 
     20 C2A        -6.1460  -50.8570   19.2970 C.ar      1 FAD401      0.0000 
     21 N3A        -7.2360  -50.8350   18.5310 N.ar      1 FAD401      0.0000 
     22 C4A        -8.2760  -51.3750   19.1650 C.ar      1 FAD401      0.0000 
     23 N1        -21.0470  -60.5980   17.3480 N.2       1 FAD401      0.0000 
     24 C2        -21.3640  -61.8110   17.8690 C.2       1 FAD401      0.0000 
     25 O2        -20.9920  -62.1440   18.9900 O.2       1 FAD401      0.0000 
     26 N3        -22.1100  -62.6940   17.1360 N.am      1 FAD401      0.0000 
     27 C4        -22.6000  -62.4820   15.8800 C.2       1 FAD401      0.0000 
     28 O4        -23.2630  -63.3450   15.3130 O.2       1 FAD401      0.0000 
     29 C4X       -22.2570  -61.1960   15.3320 C.2       1 FAD401      0.0000 
     30 N5        -22.6860  -60.9100   14.1570 N.2       1 FAD401      0.0000 
     31 C5X       -22.3680  -59.6800   13.6310 C.ar      1 FAD401      0.0000 
     32 C6        -22.8230  -59.3640   12.3580 C.ar      1 FAD401      0.0000 
     33 C7        -22.5420  -58.1350   11.7820 C.ar      1 FAD401      0.0000 
     34 C7M       -23.0460  -57.8290   10.4000 C.3       1 FAD401      0.0000 
     35 C8        -21.7840  -57.2000   12.4930 C.ar      1 FAD401      0.0000 
     36 C8M       -21.4490  -55.8650   11.8970 C.3       1 FAD401      0.0000 
     37 C9        -21.3260  -57.5150   13.7650 C.ar      1 FAD401      0.0000 
     38 C9A       -21.6110  -58.7440   14.3380 C.ar      1 FAD401      0.0000 
     39 N10       -21.1580  -59.1020   15.6200 N.pl3     1 FAD401      0.0000 
     40 C10       -21.4720  -60.3180   16.1510 C.2       1 FAD401      0.0000 
     41 C1'       -20.3590  -58.1710   16.4240 C.3       1 FAD401      0.0000 
     42 C2'       -18.9270  -58.0180   15.9290 C.3       1 FAD401      0.0000 
     43 O2'       -18.3160  -59.2970   15.7630 O.3       1 FAD401      0.0000 
     44 C3'       -18.1300  -57.2070   16.9460 C.3       1 FAD401      0.0000 
     45 O3'       -18.7450  -55.9410   17.1290 O.3       1 FAD401      0.0000 
     46 C4'       -16.6950  -56.9370   16.5340 C.3       1 FAD401      0.0000 
     47 O4'       -15.8520  -57.8150   17.2700 O.3       1 FAD401      0.0000 
     48 C5'       -16.3110  -55.5030   16.8100 C.3       1 FAD401      0.0000 
     49 O5'       -16.9630  -55.0680   18.0160 O.3       1 FAD401      0.0000 
     50 P         -17.0020  -53.5580   18.4140 P.3       1 FAD401      0.0000 
     51 O1P       -17.4800  -52.7760   17.1970 O.co2     1 FAD401      0.0000 
     52 O2P       -17.7390  -53.3170   19.5950 O.co2     1 FAD401      0.0000 
     53 O3P       -15.5240  -53.2110   18.6360 O.3       1 FAD401      0.0000 
@<TRIPOS>BOND
     1    1    2 ar   
     2    1    3 ar   
     3    1    4 1    
     4    1   53 1    
     5    4    5 1    
     6    5    6 1    
     7    6    7 1    
     8    6    8 1    
     9    7   12 1    
    10    8    9 1    
    11    8   10 1    
    12   10   11 1    
    13   10   12 1    
    14   12   13 1    
    15   13   14 1    
    16   13   22 1    
    17   14   15 2    
    18   15   16 1    
    19   16   17 ar   
    20   16   22 ar   
    21   17   18 1    
    22   17   19 ar   
    23   19   20 ar   
    24   20   21 ar   
    25   21   22 ar   
    26   23   24 1    
    27   23   40 2    
    28   24   25 2    
    29   24   26 am   
    30   26   27 am   
    31   27   28 2    
    32   27   29 1    
    33   29   30 2    
    34   29   40 1    
    35   30   31 1    
    36   31   32 ar   
    37   31   38 ar   
    38   32   33 ar   
    39   33   34 1    
    40   33   35 ar   
    41   35   36 1    
    42   35   37 ar   
    43   37   38 ar   
    44   38   39 1    
    45   39   40 1    
    46   39   41 1    
    47   41   42 1    
    48   42   43 1    
    49   42   44 1    
    50   44   45 1    
    51   44   46 1    
    52   46   47 1    
    53   46   48 1    
    54   48   49 1    
    55   49   50 1    
    56   50   51 ar   
    57   50   52 ar   
    58   50   53 1    
@<TRIPOS>SUBSTRUCTURE
     1 FAD401      1 GROUP   
@<TRIPOS>SET
ATOM$ORANGE STATIC     ATOMS   COLORGROUP SYSTEM 
54 5 5 6 6 8 8 10 10 12 12 14 14 16 16 17 17 20 \
20 22 22 24 24 27 27 29 29 31 31 32 32 33 33 34 34 35 \
35 36 36 37 37 38 38 40 40 41 41 42 42 44 44 46 46 48 \
48 

