#    Name: 6fah_3_FAD
#    Modification time : Fri May 22 19:27:40 2020

@<TRIPOS>MOLECULE
6fah_3_FAD
   53    58     1     0     1
SMALL
NO_CHARGES


@<TRIPOS>ATOM
      1 PA        -15.4120  -45.6170  -19.0310 P.3       1 FAD401      0.0000 
      2 O1A       -16.6230  -46.2140  -19.5670 O.co2     1 FAD401      0.0000 
      3 O2A       -14.4470  -45.0670  -20.0130 O.co2     1 FAD401      0.0000 
      4 O5B       -14.6820  -46.5780  -18.2040 O.3       1 FAD401      0.0000 
      5 C5B       -13.3210  -46.9330  -18.5050 C.3       1 FAD401      0.0000 
      6 C4B       -12.6140  -47.3880  -17.2540 C.3       1 FAD401      0.0000 
      7 O4B       -11.2540  -47.7250  -17.5600 O.3       1 FAD401      0.0000 
      8 C3B       -12.5060  -46.3610  -16.1410 C.3       1 FAD401      0.0000 
      9 O3B       -12.3630  -46.9810  -14.8740 O.3       1 FAD401      0.0000 
     10 C2B       -11.2270  -45.6080  -16.4850 C.3       1 FAD401      0.0000 
     11 O2B       -10.5480  -45.2950  -15.2820 O.3       1 FAD401      0.0000 
     12 C1B       -10.4200  -46.6220  -17.2980 C.3       1 FAD401      0.0000 
     13 N9A        -9.9390  -46.0890  -18.5670 N.pl3     1 FAD401      0.0000 
     14 C8A       -10.6670  -45.3850  -19.4810 C.2       1 FAD401      0.0000 
     15 N7A        -9.9860  -45.0040  -20.5300 N.2       1 FAD401      0.0000 
     16 C5A        -8.7130  -45.4810  -20.2810 C.ar      1 FAD401      0.0000 
     17 C6A        -7.5140  -45.4010  -21.0080 C.ar      1 FAD401      0.0000 
     18 N6A        -7.4030  -44.7940  -22.1880 N.pl3     1 FAD401      0.0000 
     19 N1A        -6.4220  -45.9750  -20.4790 N.ar      1 FAD401      0.0000 
     20 C2A        -6.5270  -46.5820  -19.3000 C.ar      1 FAD401      0.0000 
     21 N3A        -7.5990  -46.7210  -18.5240 N.ar      1 FAD401      0.0000 
     22 C4A        -8.6670  -46.1450  -19.0730 C.ar      1 FAD401      0.0000 
     23 N1        -21.1190  -37.2670  -17.0630 N.2       1 FAD401      0.0000 
     24 C2        -21.3930  -36.0680  -17.6390 C.2       1 FAD401      0.0000 
     25 O2        -20.9960  -35.8020  -18.7690 O.2       1 FAD401      0.0000 
     26 N3        -22.1160  -35.1300  -16.9540 N.am      1 FAD401      0.0000 
     27 C4        -22.6270  -35.2740  -15.7050 C.2       1 FAD401      0.0000 
     28 O4        -23.2630  -34.3650  -15.1840 O.2       1 FAD401      0.0000 
     29 C4X       -22.3320  -36.5470  -15.1000 C.2       1 FAD401      0.0000 
     30 N5        -22.7810  -36.7700  -13.9240 N.2       1 FAD401      0.0000 
     31 C5X       -22.5060  -37.9880  -13.3450 C.ar      1 FAD401      0.0000 
     32 C6        -22.9800  -38.2420  -12.0680 C.ar      1 FAD401      0.0000 
     33 C7        -22.7380  -39.4540  -11.4440 C.ar      1 FAD401      0.0000 
     34 C7M       -23.2700  -39.6950  -10.0610 C.3       1 FAD401      0.0000 
     35 C8        -22.0030  -40.4370  -12.1090 C.ar      1 FAD401      0.0000 
     36 C8M       -21.7260  -41.7560  -11.4570 C.3       1 FAD401      0.0000 
     37 C9        -21.5280  -40.1860  -13.3890 C.ar      1 FAD401      0.0000 
     38 C9A       -21.7710  -38.9710  -14.0050 C.ar      1 FAD401      0.0000 
     39 N10       -21.3050  -38.6820  -15.2940 N.pl3     1 FAD401      0.0000 
     40 C10       -21.5670  -37.4820  -15.8710 C.2       1 FAD401      0.0000 
     41 C1'       -20.5290  -39.6630  -16.0440 C.3       1 FAD401      0.0000 
     42 C2'       -19.0460  -39.6160  -15.7190 C.3       1 FAD401      0.0000 
     43 O2'       -18.5430  -38.2990  -15.9310 O.3       1 FAD401      0.0000 
     44 C3'       -18.2930  -40.5650  -16.6440 C.3       1 FAD401      0.0000 
     45 O3'       -18.6340  -41.9090  -16.3420 O.3       1 FAD401      0.0000 
     46 C4'       -16.7900  -40.4150  -16.5070 C.3       1 FAD401      0.0000 
     47 O4'       -16.4000  -39.2480  -17.2260 O.3       1 FAD401      0.0000 
     48 C5'       -16.0540  -41.6350  -17.0070 C.3       1 FAD401      0.0000 
     49 O5'       -16.8550  -42.2840  -18.0070 O.3       1 FAD401      0.0000 
     50 P         -17.1560  -43.8100  -17.9300 P.3       1 FAD401      0.0000 
     51 O1P       -17.6670  -43.9860  -16.5040 O.co2     1 FAD401      0.0000 
     52 O2P       -17.9590  -44.2220  -18.9910 O.co2     1 FAD401      0.0000 
     53 O3P       -15.7740  -44.4580  -18.0260 O.3       1 FAD401      0.0000 
@<TRIPOS>BOND
     1    1    2 ar   
     2    1    3 ar   
     3    1    4 1    
     4    1   53 1    
     5    4    5 1    
     6    5    6 1    
     7    6    7 1    
     8    6    8 1    
     9    7   12 1    
    10    8    9 1    
    11    8   10 1    
    12   10   11 1    
    13   10   12 1    
    14   12   13 1    
    15   13   14 1    
    16   13   22 1    
    17   14   15 2    
    18   15   16 1    
    19   16   17 ar   
    20   16   22 ar   
    21   17   18 1    
    22   17   19 ar   
    23   19   20 ar   
    24   20   21 ar   
    25   21   22 ar   
    26   23   24 1    
    27   23   40 2    
    28   24   25 2    
    29   24   26 am   
    30   26   27 am   
    31   27   28 2    
    32   27   29 1    
    33   29   30 2    
    34   29   40 1    
    35   30   31 1    
    36   31   32 ar   
    37   31   38 ar   
    38   32   33 ar   
    39   33   34 1    
    40   33   35 ar   
    41   35   36 1    
    42   35   37 ar   
    43   37   38 ar   
    44   38   39 1    
    45   39   40 1    
    46   39   41 1    
    47   41   42 1    
    48   42   43 1    
    49   42   44 1    
    50   44   45 1    
    51   44   46 1    
    52   46   47 1    
    53   46   48 1    
    54   48   49 1    
    55   49   50 1    
    56   50   51 ar   
    57   50   52 ar   
    58   50   53 1    
@<TRIPOS>SUBSTRUCTURE
     1 FAD401      1 GROUP   
@<TRIPOS>SET
ATOM$ORANGE STATIC     ATOMS   COLORGROUP SYSTEM 
54 5 5 6 6 8 8 10 10 12 12 14 14 16 16 17 17 20 \
20 22 22 24 24 27 27 29 29 31 31 32 32 33 33 34 34 35 \
35 36 36 37 37 38 38 40 40 41 41 42 42 44 44 46 46 48 \
48 

