#    Name: 6fah_6_FAD
#    Modification time : Fri May 22 19:28:27 2020

@<TRIPOS>MOLECULE
6fah_6_FAD
   53    58     1     0     1
SMALL
NO_CHARGES


@<TRIPOS>ATOM
      1 PA        -24.5900  -91.4610  -29.3350 P.3       1 FAD301      0.0000 
      2 O1A       -24.9180  -90.0890  -29.7740 O.co2     1 FAD301      0.0000 
      3 O2A       -25.1840  -92.5510  -30.2050 O.co2     1 FAD301      0.0000 
      4 O5B       -24.8870  -91.6880  -27.8490 O.3       1 FAD301      0.0000 
      5 C5B       -26.2350  -91.7390  -27.3510 C.3       1 FAD301      0.0000 
      6 C4B       -26.1970  -92.5920  -26.1170 C.3       1 FAD301      0.0000 
      7 O4B       -25.1540  -93.5640  -26.2630 O.3       1 FAD301      0.0000 
      8 C3B       -25.8300  -91.8650  -24.8360 C.3       1 FAD301      0.0000 
      9 O3B       -26.9700  -91.2850  -24.2190 O.3       1 FAD301      0.0000 
     10 C2B       -25.2590  -92.9850  -23.9620 C.3       1 FAD301      0.0000 
     11 O2B       -26.2300  -93.5170  -23.0730 O.3       1 FAD301      0.0000 
     12 C1B       -24.8110  -94.0370  -24.9810 C.3       1 FAD301      0.0000 
     13 N9A       -23.3800  -94.2890  -24.9570 N.pl3     1 FAD301      0.0000 
     14 C8A       -22.4790  -94.0600  -25.9600 C.2       1 FAD301      0.0000 
     15 N7A       -21.2450  -94.3800  -25.6530 N.2       1 FAD301      0.0000 
     16 C5A       -21.3430  -94.8490  -24.3530 C.ar      1 FAD301      0.0000 
     17 C6A       -20.3870  -95.3460  -23.4470 C.ar      1 FAD301      0.0000 
     18 N6A       -19.0870  -95.4610  -23.7250 N.pl3     1 FAD301      0.0000 
     19 N1A       -20.8160  -95.7230  -22.2280 N.ar      1 FAD301      0.0000 
     20 C2A       -22.1140  -95.6180  -21.9440 C.ar      1 FAD301      0.0000 
     21 N3A       -23.1070  -95.1700  -22.7130 N.ar      1 FAD301      0.0000 
     22 C4A       -22.6520  -94.7980  -23.9120 C.ar      1 FAD301      0.0000 
     23 N1        -19.7340  -94.2040  -35.3240 N.2       1 FAD301      0.0000 
     24 C2        -20.5200  -94.7090  -36.3160 C.2       1 FAD301      0.0000 
     25 O2        -20.9890  -95.8440  -36.2550 O.2       1 FAD301      0.0000 
     26 N3        -20.8100  -93.9440  -37.4200 N.am      1 FAD301      0.0000 
     27 C4        -20.3810  -92.6740  -37.6470 C.2       1 FAD301      0.0000 
     28 O4        -20.7060  -92.0830  -38.6720 O.2       1 FAD301      0.0000 
     29 C4X       -19.5470  -92.1400  -36.5970 C.2       1 FAD301      0.0000 
     30 N5        -19.0870  -90.9590  -36.7440 N.2       1 FAD301      0.0000 
     31 C5X       -18.3030  -90.4310  -35.7430 C.ar      1 FAD301      0.0000 
     32 C6        -17.8130  -89.1390  -35.8930 C.ar      1 FAD301      0.0000 
     33 C7        -17.0080  -88.5620  -34.9220 C.ar      1 FAD301      0.0000 
     34 C7M       -16.5020  -87.1590  -35.1200 C.3       1 FAD301      0.0000 
     35 C8        -16.6760  -89.2960  -33.7730 C.ar      1 FAD301      0.0000 
     36 C8M       -15.8010  -88.7020  -32.7010 C.3       1 FAD301      0.0000 
     37 C9        -17.1610  -90.5910  -33.6220 C.ar      1 FAD301      0.0000 
     38 C9A       -17.9730  -91.1580  -34.5960 C.ar      1 FAD301      0.0000 
     39 N10       -18.4840  -92.4650  -34.4840 N.pl3     1 FAD301      0.0000 
     40 C10       -19.2770  -92.9870  -35.4690 C.2       1 FAD301      0.0000 
     41 C1'       -18.1790  -93.2920  -33.3180 C.3       1 FAD301      0.0000 
     42 C2'       -19.1650  -93.0980  -32.1790 C.3       1 FAD301      0.0000 
     43 O2'       -19.1130  -91.7460  -31.7220 O.3       1 FAD301      0.0000 
     44 C3'       -18.7910  -94.0300  -31.0290 C.3       1 FAD301      0.0000 
     45 O3'       -19.5290  -95.2400  -31.1500 O.3       1 FAD301      0.0000 
     46 C4'       -19.0240  -93.4340  -29.6420 C.3       1 FAD301      0.0000 
     47 O4'       -18.5740  -94.3580  -28.6530 O.3       1 FAD301      0.0000 
     48 C5'       -20.4690  -93.0630  -29.3900 C.3       1 FAD301      0.0000 
     49 O5'       -20.7040  -91.7380  -29.9060 O.3       1 FAD301      0.0000 
     50 P         -22.0900  -91.3470  -30.5180 P.3       1 FAD301      0.0000 
     51 O1P       -22.4220  -92.3380  -31.6310 O.co2     1 FAD301      0.0000 
     52 O2P       -22.2390  -89.9630  -30.9040 O.co2     1 FAD301      0.0000 
     53 O3P       -23.0230  -91.6670  -29.3280 O.3       1 FAD301      0.0000 
@<TRIPOS>BOND
     1    1    2 ar   
     2    1    3 ar   
     3    1    4 1    
     4    1   53 1    
     5    4    5 1    
     6    5    6 1    
     7    6    7 1    
     8    6    8 1    
     9    7   12 1    
    10    8    9 1    
    11    8   10 1    
    12   10   11 1    
    13   10   12 1    
    14   12   13 1    
    15   13   14 1    
    16   13   22 1    
    17   14   15 2    
    18   15   16 1    
    19   16   17 ar   
    20   16   22 ar   
    21   17   18 1    
    22   17   19 ar   
    23   19   20 ar   
    24   20   21 ar   
    25   21   22 ar   
    26   23   24 1    
    27   23   40 2    
    28   24   25 2    
    29   24   26 am   
    30   26   27 am   
    31   27   28 2    
    32   27   29 1    
    33   29   30 2    
    34   29   40 1    
    35   30   31 1    
    36   31   32 ar   
    37   31   38 ar   
    38   32   33 ar   
    39   33   34 1    
    40   33   35 ar   
    41   35   36 1    
    42   35   37 ar   
    43   37   38 ar   
    44   38   39 1    
    45   39   40 1    
    46   39   41 1    
    47   41   42 1    
    48   42   43 1    
    49   42   44 1    
    50   44   45 1    
    51   44   46 1    
    52   46   47 1    
    53   46   48 1    
    54   48   49 1    
    55   49   50 1    
    56   50   51 ar   
    57   50   52 ar   
    58   50   53 1    
@<TRIPOS>SUBSTRUCTURE
     1 FAD301      1 GROUP   
@<TRIPOS>SET
ATOM$ORANGE STATIC     ATOMS   COLORGROUP SYSTEM 
54 5 5 6 6 8 8 10 10 12 12 14 14 16 16 17 17 20 \
20 22 22 24 24 27 27 29 29 31 31 32 32 33 33 34 34 35 \
35 36 36 37 37 38 38 40 40 41 41 42 42 44 44 46 46 48 \
48 

