#    Name: 6fah_5_FAD
#    Modification time : Fri May 22 19:28:10 2020

@<TRIPOS>MOLECULE
6fah_5_FAD
   53    58     1     0     1
SMALL
NO_CHARGES


@<TRIPOS>ATOM
      1 PA        -31.7050  -46.0900  -28.5100 P.3       1 FAD401      0.0000 
      2 O1A       -30.9810  -44.8220  -28.6540 O.co2     1 FAD401      0.0000 
      3 O2A       -32.7180  -46.0590  -27.4020 O.co2     1 FAD401      0.0000 
      4 O5B       -32.2680  -46.4620  -29.8840 O.3       1 FAD401      0.0000 
      5 C5B       -32.2560  -45.5190  -30.9770 C.3       1 FAD401      0.0000 
      6 C4B       -31.7230  -46.1940  -32.2180 C.3       1 FAD401      0.0000 
      7 O4B       -32.8190  -46.6790  -33.0250 O.3       1 FAD401      0.0000 
      8 C3B       -30.8830  -45.3170  -33.1420 C.3       1 FAD401      0.0000 
      9 O3B       -29.8690  -46.0920  -33.7650 O.3       1 FAD401      0.0000 
     10 C2B       -31.8890  -44.8870  -34.2010 C.3       1 FAD401      0.0000 
     11 O2B       -31.2400  -44.6340  -35.4380 O.3       1 FAD401      0.0000 
     12 C1B       -32.7140  -46.1560  -34.3290 C.3       1 FAD401      0.0000 
     13 N9A       -34.0550  -45.9320  -34.8400 N.pl3     1 FAD401      0.0000 
     14 C8A       -34.9230  -44.9410  -34.4770 C.2       1 FAD401      0.0000 
     15 N7A       -36.0710  -44.9790  -35.1080 N.2       1 FAD401      0.0000 
     16 C5A       -35.9440  -46.0710  -35.9510 C.ar      1 FAD401      0.0000 
     17 C6A       -36.8160  -46.6510  -36.8870 C.ar      1 FAD401      0.0000 
     18 N6A       -38.0400  -46.1900  -37.1430 N.pl3     1 FAD401      0.0000 
     19 N1A       -36.3820  -47.7320  -37.5590 N.ar      1 FAD401      0.0000 
     20 C2A       -35.1590  -48.1980  -37.3060 C.ar      1 FAD401      0.0000 
     21 N3A       -34.2500  -47.7380  -36.4470 N.ar      1 FAD401      0.0000 
     22 C4A       -34.7070  -46.6670  -35.7970 C.ar      1 FAD401      0.0000 
     23 N1        -29.0300  -51.8160  -22.2960 N.2       1 FAD401      0.0000 
     24 C2        -29.1280  -53.1010  -22.7390 C.2       1 FAD401      0.0000 
     25 O2        -29.6140  -53.3690  -23.8380 O.2       1 FAD401      0.0000 
     26 N3        -28.6740  -54.1330  -21.9540 N.am      1 FAD401      0.0000 
     27 C4        -28.1130  -54.0150  -20.7130 C.2       1 FAD401      0.0000 
     28 O4        -27.7390  -55.0140  -20.1060 O.2       1 FAD401      0.0000 
     29 C4X       -28.0060  -52.6530  -20.2470 C.2       1 FAD401      0.0000 
     30 N5        -27.4860  -52.4530  -19.0850 N.2       1 FAD401      0.0000 
     31 C5X       -27.3840  -51.1570  -18.6330 C.ar      1 FAD401      0.0000 
     32 C6        -26.8220  -50.9260  -17.3840 C.ar      1 FAD401      0.0000 
     33 C7        -26.6980  -49.6400  -16.8810 C.ar      1 FAD401      0.0000 
     34 C7M       -26.0900  -49.4250  -15.5240 C.3       1 FAD401      0.0000 
     35 C8        -27.1450  -48.5560  -17.6420 C.ar      1 FAD401      0.0000 
     36 C8M       -27.0260  -47.1500  -17.1220 C.3       1 FAD401      0.0000 
     37 C9        -27.7050  -48.7810  -18.8930 C.ar      1 FAD401      0.0000 
     38 C9A       -27.8280  -50.0700  -19.3900 C.ar      1 FAD401      0.0000 
     39 N10       -28.3850  -50.3320  -20.6540 N.pl3     1 FAD401      0.0000 
     40 C10       -28.4990  -51.6180  -21.1110 C.2       1 FAD401      0.0000 
     41 C1'       -28.8800  -49.2380  -21.4950 C.3       1 FAD401      0.0000 
     42 C2'       -27.8490  -48.7210  -22.4850 C.3       1 FAD401      0.0000 
     43 O2'       -26.9810  -47.7930  -21.8400 O.3       1 FAD401      0.0000 
     44 C3'       -28.5670  -47.9530  -23.5880 C.3       1 FAD401      0.0000 
     45 O3'       -29.1790  -46.8210  -22.9840 O.3       1 FAD401      0.0000 
     46 C4'       -29.6270  -48.7490  -24.3480 C.3       1 FAD401      0.0000 
     47 O4'       -29.0190  -49.9160  -24.8970 O.3       1 FAD401      0.0000 
     48 C5'       -30.2730  -47.9100  -25.4320 C.3       1 FAD401      0.0000 
     49 O5'       -31.1550  -48.7320  -26.2240 O.3       1 FAD401      0.0000 
     50 P         -31.0750  -48.7320  -27.7930 P.3       1 FAD401      0.0000 
     51 O1P       -29.8570  -49.5990  -28.1070 O.co2     1 FAD401      0.0000 
     52 O2P       -32.3180  -49.1030  -28.4210 O.co2     1 FAD401      0.0000 
     53 O3P       -30.6920  -47.2590  -28.1810 O.3       1 FAD401      0.0000 
@<TRIPOS>BOND
     1    1    2 ar   
     2    1    3 ar   
     3    1    4 1    
     4    1   53 1    
     5    4    5 1    
     6    5    6 1    
     7    6    7 1    
     8    6    8 1    
     9    7   12 1    
    10    8    9 1    
    11    8   10 1    
    12   10   11 1    
    13   10   12 1    
    14   12   13 1    
    15   13   14 1    
    16   13   22 1    
    17   14   15 2    
    18   15   16 1    
    19   16   17 ar   
    20   16   22 ar   
    21   17   18 1    
    22   17   19 ar   
    23   19   20 ar   
    24   20   21 ar   
    25   21   22 ar   
    26   23   24 1    
    27   23   40 2    
    28   24   25 2    
    29   24   26 am   
    30   26   27 am   
    31   27   28 2    
    32   27   29 1    
    33   29   30 2    
    34   29   40 1    
    35   30   31 1    
    36   31   32 ar   
    37   31   38 ar   
    38   32   33 ar   
    39   33   34 1    
    40   33   35 ar   
    41   35   36 1    
    42   35   37 ar   
    43   37   38 ar   
    44   38   39 1    
    45   39   40 1    
    46   39   41 1    
    47   41   42 1    
    48   42   43 1    
    49   42   44 1    
    50   44   45 1    
    51   44   46 1    
    52   46   47 1    
    53   46   48 1    
    54   48   49 1    
    55   49   50 1    
    56   50   51 ar   
    57   50   52 ar   
    58   50   53 1    
@<TRIPOS>SUBSTRUCTURE
     1 FAD401      1 GROUP   
@<TRIPOS>SET
ATOM$ORANGE STATIC     ATOMS   COLORGROUP SYSTEM 
54 5 5 6 6 8 8 10 10 12 12 14 14 16 16 17 17 20 \
20 22 22 24 24 27 27 29 29 31 31 32 32 33 33 34 34 35 \
35 36 36 37 37 38 38 40 40 41 41 42 42 44 44 46 46 48 \
48 

