#    Name: 6fah_1_FAD
#    Modification time : Fri May 22 19:27:11 2020

@<TRIPOS>MOLECULE
6fah_1_FAD
   53    58     1     0     1
SMALL
NO_CHARGES


@<TRIPOS>ATOM
      1 PA        -31.1770  -51.3540   29.2450 P.3       1 FAD401      0.0000 
      2 O1A       -30.2030  -52.4360   29.4170 O.co2     1 FAD401      0.0000 
      3 O2A       -32.0650  -51.5210   28.0450 O.co2     1 FAD401      0.0000 
      4 O5B       -31.9080  -51.1840   30.5730 O.3       1 FAD401      0.0000 
      5 C5B       -31.8170  -52.1800   31.6130 C.3       1 FAD401      0.0000 
      6 C4B       -31.2860  -51.5470   32.8740 C.3       1 FAD401      0.0000 
      7 O4B       -32.3830  -51.0700   33.6880 O.3       1 FAD401      0.0000 
      8 C3B       -30.4980  -52.4820   33.7810 C.3       1 FAD401      0.0000 
      9 O3B       -29.5720  -51.7250   34.5480 O.3       1 FAD401      0.0000 
     10 C2B       -31.5880  -53.0200   34.6960 C.3       1 FAD401      0.0000 
     11 O2B       -31.0480  -53.5060   35.9150 O.3       1 FAD401      0.0000 
     12 C1B       -32.3660  -51.7370   34.9350 C.3       1 FAD401      0.0000 
     13 N9A       -33.7390  -51.9360   35.3800 N.pl3     1 FAD401      0.0000 
     14 C8A       -34.6090  -52.8980   34.9550 C.2       1 FAD401      0.0000 
     15 N7A       -35.7890  -52.8400   35.5220 N.2       1 FAD401      0.0000 
     16 C5A       -35.6820  -51.7640   36.3860 C.ar      1 FAD401      0.0000 
     17 C6A       -36.5900  -51.1780   37.2810 C.ar      1 FAD401      0.0000 
     18 N6A       -37.8380  -51.6160   37.4620 N.pl3     1 FAD401      0.0000 
     19 N1A       -36.1690  -50.1170   37.9950 N.ar      1 FAD401      0.0000 
     20 C2A       -34.9230  -49.6780   37.8180 C.ar      1 FAD401      0.0000 
     21 N3A       -33.9800  -50.1500   37.0060 N.ar      1 FAD401      0.0000 
     22 C4A       -34.4260  -51.1990   36.3120 C.ar      1 FAD401      0.0000 
     23 N1        -28.6570  -46.2230   22.9740 N.2       1 FAD401      0.0000 
     24 C2        -28.8390  -44.9530   23.4290 C.2       1 FAD401      0.0000 
     25 O2        -29.2620  -44.7300   24.5660 O.2       1 FAD401      0.0000 
     26 N3        -28.5530  -43.8880   22.6070 N.am      1 FAD401      0.0000 
     27 C4        -28.0810  -43.9600   21.3360 C.2       1 FAD401      0.0000 
     28 O4        -27.8590  -42.9320   20.7090 O.2       1 FAD401      0.0000 
     29 C4X       -27.8790  -45.3070   20.8580 C.2       1 FAD401      0.0000 
     30 N5        -27.4380  -45.4610   19.6630 N.2       1 FAD401      0.0000 
     31 C5X       -27.2440  -46.7420   19.1990 C.ar      1 FAD401      0.0000 
     32 C6        -26.7610  -46.9190   17.9090 C.ar      1 FAD401      0.0000 
     33 C7        -26.5520  -48.1870   17.3890 C.ar      1 FAD401      0.0000 
     34 C7M       -26.0360  -48.3430   15.9850 C.3       1 FAD401      0.0000 
     35 C8        -26.8260  -49.3080   18.1770 C.ar      1 FAD401      0.0000 
     36 C8M       -26.6100  -50.6940   17.6420 C.3       1 FAD401      0.0000 
     37 C9        -27.3080  -49.1360   19.4690 C.ar      1 FAD401      0.0000 
     38 C9A       -27.5180  -47.8650   19.9820 C.ar      1 FAD401      0.0000 
     39 N10       -27.9870  -47.6560   21.2900 N.pl3     1 FAD401      0.0000 
     40 C10       -28.1940  -46.3810   21.7560 C.2       1 FAD401      0.0000 
     41 C1'       -28.3160  -48.7980   22.1600 C.3       1 FAD401      0.0000 
     42 C2'       -27.4450  -48.8970   23.4040 C.3       1 FAD401      0.0000 
     43 O2'       -26.2240  -49.5630   23.0960 O.3       1 FAD401      0.0000 
     44 C3'       -28.1750  -49.7280   24.4530 C.3       1 FAD401      0.0000 
     45 O3'       -28.7400  -50.8460   23.7830 O.3       1 FAD401      0.0000 
     46 C4'       -29.2870  -49.0190   25.2260 C.3       1 FAD401      0.0000 
     47 O4'       -28.7450  -47.9420   25.9870 O.3       1 FAD401      0.0000 
     48 C5'       -30.0040  -49.9920   26.1380 C.3       1 FAD401      0.0000 
     49 O5'       -31.0960  -49.3250   26.7980 O.3       1 FAD401      0.0000 
     50 P         -30.9380  -48.7590   28.2450 P.3       1 FAD401      0.0000 
     51 O1P       -29.7580  -47.8090   28.0550 O.co2     1 FAD401      0.0000 
     52 O2P       -32.1660  -48.2510   28.7980 O.co2     1 FAD401      0.0000 
     53 O3P       -30.4310  -49.9700   29.0850 O.3       1 FAD401      0.0000 
@<TRIPOS>BOND
     1    1    2 ar   
     2    1    3 ar   
     3    1    4 1    
     4    1   53 1    
     5    4    5 1    
     6    5    6 1    
     7    6    7 1    
     8    6    8 1    
     9    7   12 1    
    10    8    9 1    
    11    8   10 1    
    12   10   11 1    
    13   10   12 1    
    14   12   13 1    
    15   13   14 1    
    16   13   22 1    
    17   14   15 2    
    18   15   16 1    
    19   16   17 ar   
    20   16   22 ar   
    21   17   18 1    
    22   17   19 ar   
    23   19   20 ar   
    24   20   21 ar   
    25   21   22 ar   
    26   23   24 1    
    27   23   40 2    
    28   24   25 2    
    29   24   26 am   
    30   26   27 am   
    31   27   28 2    
    32   27   29 1    
    33   29   30 2    
    34   29   40 1    
    35   30   31 1    
    36   31   32 ar   
    37   31   38 ar   
    38   32   33 ar   
    39   33   34 1    
    40   33   35 ar   
    41   35   36 1    
    42   35   37 ar   
    43   37   38 ar   
    44   38   39 1    
    45   39   40 1    
    46   39   41 1    
    47   41   42 1    
    48   42   43 1    
    49   42   44 1    
    50   44   45 1    
    51   44   46 1    
    52   46   47 1    
    53   46   48 1    
    54   48   49 1    
    55   49   50 1    
    56   50   51 ar   
    57   50   52 ar   
    58   50   53 1    
@<TRIPOS>SUBSTRUCTURE
     1 FAD401      1 GROUP   
@<TRIPOS>SET
ATOM$ORANGE STATIC     ATOMS   COLORGROUP SYSTEM 
54 5 5 6 6 8 8 10 10 12 12 14 14 16 16 17 17 20 \
20 22 22 24 24 27 27 29 29 31 31 32 32 33 33 34 34 35 \
35 36 36 37 37 38 38 40 40 41 41 42 42 44 44 46 46 48 \
48 

