#    Name: 5xv0_2_NAP
#    Modification time : Fri May 22 19:15:17 2020

@<TRIPOS>MOLECULE
5xv0_2_NAP
   48    52     1     0     1
SMALL
NO_CHARGES


@<TRIPOS>ATOM
      1 PA        -24.7880   -8.8140    6.7770 P.3       1 NAP301      0.0000 
      2 O1A       -24.7400   -8.7800    8.2860 O.co2     1 NAP301      0.0000 
      3 O2A       -25.5820   -7.8690    5.9640 O.co2     1 NAP301      0.0000 
      4 O5B       -25.3580  -10.2980    6.4800 O.3       1 NAP301      0.0000 
      5 C5B       -25.6250  -10.6410    5.1390 C.3       1 NAP301      0.0000 
      6 C4B       -25.7020  -12.1490    5.0300 C.3       1 NAP301      0.0000 
      7 O4B       -26.9560  -12.5580    5.5800 O.3       1 NAP301      0.0000 
      8 C3B       -25.7620  -12.6550    3.6060 C.3       1 NAP301      0.0000 
      9 O3B       -24.4950  -12.7030    2.8970 O.3       1 NAP301      0.0000 
     10 C2B       -26.4150  -14.0250    3.8450 C.3       1 NAP301      0.0000 
     11 O2B       -25.4120  -14.9870    4.0930 O.3       1 NAP301      0.0000 
     12 C1B       -27.3620  -13.8020    5.0320 C.3       1 NAP301      0.0000 
     13 N9A       -28.7390  -13.8420    4.4610 N.pl3     1 NAP301      0.0000 
     14 C8A       -29.5540  -14.9090    4.5630 C.2       1 NAP301      0.0000 
     15 N7A       -30.7240  -14.7340    3.9160 N.2       1 NAP301      0.0000 
     16 C5A       -30.6190  -13.5120    3.3360 C.ar      1 NAP301      0.0000 
     17 C6A       -31.4840  -12.6740    2.5050 C.ar      1 NAP301      0.0000 
     18 N6A       -32.6830  -13.1390    2.1240 N.pl3     1 NAP301      0.0000 
     19 N1A       -31.0490  -11.4430    2.1130 N.ar      1 NAP301      0.0000 
     20 C2A       -29.8300  -10.9790    2.4690 C.ar      1 NAP301      0.0000 
     21 N3A       -28.9830  -11.6700    3.2420 N.ar      1 NAP301      0.0000 
     22 C4A       -29.3240  -12.9270    3.7080 C.ar      1 NAP301      0.0000 
     23 O3        -23.2930   -8.9870    6.1710 O.3       1 NAP301      0.0000 
     24 PN        -22.4320   -7.9720    5.2660 P.3       1 NAP301      0.0000 
     25 O1N       -23.2010   -7.4240    4.1170 O.co2     1 NAP301      0.0000 
     26 O2N       -21.1030   -8.6660    5.1070 O.co2     1 NAP301      0.0000 
     27 O5D       -22.2410   -6.7740    6.3180 O.3       1 NAP301      0.0000 
     28 C5D       -21.2910   -6.8350    7.3740 C.3       1 NAP301      0.0000 
     29 C4D       -20.4500   -5.5560    7.4450 C.3       1 NAP301      0.0000 
     30 O4D       -21.2580   -4.4270    7.7910 O.3       1 NAP301      0.0000 
     31 C3D       -19.4010   -5.6720    8.5520 C.3       1 NAP301      0.0000 
     32 O3D       -18.1570   -5.1360    8.1230 O.3       1 NAP301      0.0000 
     33 C2D       -19.9450   -4.8520    9.6850 C.3       1 NAP301      0.0000 
     34 O2D       -18.9070   -4.2580   10.4400 O.3       1 NAP301      0.0000 
     35 C1D       -20.7620   -3.7870    8.9820 C.3       1 NAP301      0.0000 
     36 N1N       -21.8350   -3.2010    9.8180 N.pl3     1 NAP301      0.0000 
     37 C2N       -21.8290   -1.8810   10.0680 C.ar      1 NAP301      0.0000 
     38 C3N       -22.8170   -1.2340   10.8320 C.ar      1 NAP301      0.0000 
     39 C7N       -22.7760    0.2700   11.0530 C.2       1 NAP301      0.0000 
     40 O7N       -23.7980    0.8270   11.4550 O.2       1 NAP301      0.0000 
     41 N7N       -21.6680    1.0020   10.7850 N.am      1 NAP301      0.0000 
     42 C4N       -23.8440   -2.0220   11.3790 C.ar      1 NAP301      0.0000 
     43 C5N       -23.8300   -3.3960   11.1230 C.ar      1 NAP301      0.0000 
     44 C6N       -22.8180   -3.9520   10.3410 C.ar      1 NAP301      0.0000 
     45 P2B       -25.7230  -16.5880    4.0720 P.3       1 NAP301      0.0000 
     46 O1X       -24.3930  -17.2390    4.1500 O.co2     1 NAP301      0.0000 
     47 O2X       -26.6310  -16.7290    5.2470 O.co2     1 NAP301      0.0000 
     48 O3X       -26.4200  -16.7840    2.7630 O.co2     1 NAP301      0.0000 
@<TRIPOS>BOND
     1    1    2 ar   
     2    1    3 ar   
     3    1    4 1    
     4    1   23 1    
     5    4    5 1    
     6    5    6 1    
     7    6    7 1    
     8    6    8 1    
     9    7   12 1    
    10    8    9 1    
    11    8   10 1    
    12   10   11 1    
    13   10   12 1    
    14   11   45 1    
    15   12   13 1    
    16   13   14 1    
    17   13   22 1    
    18   14   15 2    
    19   15   16 1    
    20   16   17 ar   
    21   16   22 ar   
    22   17   18 1    
    23   17   19 ar   
    24   19   20 ar   
    25   20   21 ar   
    26   21   22 ar   
    27   23   24 1    
    28   24   25 ar   
    29   24   26 ar   
    30   24   27 1    
    31   27   28 1    
    32   28   29 1    
    33   29   30 1    
    34   29   31 1    
    35   30   35 1    
    36   31   32 1    
    37   31   33 1    
    38   33   34 1    
    39   33   35 1    
    40   35   36 1    
    41   36   37 ar   
    42   36   44 ar   
    43   37   38 ar   
    44   38   39 1    
    45   38   42 ar   
    46   39   40 2    
    47   39   41 am   
    48   42   43 ar   
    49   43   44 ar   
    50   45   46 ar   
    51   45   47 ar   
    52   45   48 ar   
@<TRIPOS>SUBSTRUCTURE
     1 NAP301      1 GROUP   
@<TRIPOS>SET
ATOM$ORANGE STATIC     ATOMS   COLORGROUP SYSTEM 
42 5 5 6 6 8 8 10 10 12 12 14 14 16 16 17 17 20 \
20 22 22 28 28 29 29 31 31 33 33 35 35 37 37 38 38 39 \
39 42 42 43 43 44 44 

