#    Name: 5xv0_5_NAP
#    Modification time : Fri May 22 19:15:48 2020

@<TRIPOS>MOLECULE
5xv0_5_NAP
   48    52     1     0     1
SMALL
NO_CHARGES


@<TRIPOS>ATOM
      1 PA        -24.8080    8.8030   97.9080 P.3       1 NAP301      0.0000 
      2 O1A       -24.7680    8.7220   96.3930 O.co2     1 NAP301      0.0000 
      3 O2A       -25.5590    7.8320   98.7270 O.co2     1 NAP301      0.0000 
      4 O5B       -25.3520   10.2940   98.2200 O.3       1 NAP301      0.0000 
      5 C5B       -25.5770   10.6280   99.5720 C.3       1 NAP301      0.0000 
      6 C4B       -25.6910   12.1350   99.6800 C.3       1 NAP301      0.0000 
      7 O4B       -26.9580   12.5290   99.1180 O.3       1 NAP301      0.0000 
      8 C3B       -25.7620   12.6570  101.0980 C.3       1 NAP301      0.0000 
      9 O3B       -24.4950   12.7050  101.7990 O.3       1 NAP301      0.0000 
     10 C2B       -26.4020   14.0330  100.8420 C.3       1 NAP301      0.0000 
     11 O2B       -25.3890   15.0010  100.6050 O.3       1 NAP301      0.0000 
     12 C1B       -27.3410   13.7910   99.6560 C.3       1 NAP301      0.0000 
     13 N9A       -28.7110   13.8270  100.2290 N.pl3     1 NAP301      0.0000 
     14 C8A       -29.5300   14.8860  100.1360 C.2       1 NAP301      0.0000 
     15 N7A       -30.6920   14.7060  100.7840 N.2       1 NAP301      0.0000 
     16 C5A       -30.5790   13.4780  101.3460 C.ar      1 NAP301      0.0000 
     17 C6A       -31.4410   12.6520  102.1870 C.ar      1 NAP301      0.0000 
     18 N6A       -32.6390   13.1450  102.5400 N.pl3     1 NAP301      0.0000 
     19 N1A       -31.0020   11.4200  102.5820 N.ar      1 NAP301      0.0000 
     20 C2A       -29.7860   10.9580  102.2170 C.ar      1 NAP301      0.0000 
     21 N3A       -28.9330   11.6450  101.4350 N.ar      1 NAP301      0.0000 
     22 C4A       -29.2850   12.8980  100.9730 C.ar      1 NAP301      0.0000 
     23 O3        -23.2980    8.9600   98.4550 O.3       1 NAP301      0.0000 
     24 PN        -22.4250    7.9780   99.3700 P.3       1 NAP301      0.0000 
     25 O1N       -23.1670    7.4930  100.5570 O.co2     1 NAP301      0.0000 
     26 O2N       -21.0890    8.6830   99.5700 O.co2     1 NAP301      0.0000 
     27 O5D       -22.1370    6.7650   98.3620 O.3       1 NAP301      0.0000 
     28 C5D       -21.2140    6.8430   97.2650 C.3       1 NAP301      0.0000 
     29 C4D       -20.3970    5.5570   97.1650 C.3       1 NAP301      0.0000 
     30 O4D       -21.2380    4.4450   96.8440 O.3       1 NAP301      0.0000 
     31 C3D       -19.3510    5.6300   96.0450 C.3       1 NAP301      0.0000 
     32 O3D       -18.1150    5.0810   96.5000 O.3       1 NAP301      0.0000 
     33 C2D       -19.9350    4.7990   94.9350 C.3       1 NAP301      0.0000 
     34 O2D       -18.9700    4.1560   94.1270 O.3       1 NAP301      0.0000 
     35 C1D       -20.7490    3.7620   95.6790 C.3       1 NAP301      0.0000 
     36 N1N       -21.8270    3.1800   94.8570 N.pl3     1 NAP301      0.0000 
     37 C2N       -21.8170    1.8620   94.5890 C.ar      1 NAP301      0.0000 
     38 C3N       -22.8150    1.2180   93.8360 C.ar      1 NAP301      0.0000 
     39 C7N       -22.7720   -0.2790   93.5930 C.2       1 NAP301      0.0000 
     40 O7N       -23.8080   -0.8520   93.2350 O.2       1 NAP301      0.0000 
     41 N7N       -21.6410   -0.9920   93.8000 N.am      1 NAP301      0.0000 
     42 C4N       -23.8570    2.0080   93.3200 C.ar      1 NAP301      0.0000 
     43 C5N       -23.8420    3.3790   93.5880 C.ar      1 NAP301      0.0000 
     44 C6N       -22.8220    3.9370   94.3630 C.ar      1 NAP301      0.0000 
     45 P2B       -25.6940   16.6030  100.6040 P.3       1 NAP301      0.0000 
     46 O1X       -24.3700   17.2660  100.4960 O.co2     1 NAP301      0.0000 
     47 O2X       -26.5950   16.7200   99.4320 O.co2     1 NAP301      0.0000 
     48 O3X       -26.3890   16.8470  101.9020 O.co2     1 NAP301      0.0000 
@<TRIPOS>BOND
     1    1    2 ar   
     2    1    3 ar   
     3    1    4 1    
     4    1   23 1    
     5    4    5 1    
     6    5    6 1    
     7    6    7 1    
     8    6    8 1    
     9    7   12 1    
    10    8    9 1    
    11    8   10 1    
    12   10   11 1    
    13   10   12 1    
    14   11   45 1    
    15   12   13 1    
    16   13   14 1    
    17   13   22 1    
    18   14   15 2    
    19   15   16 1    
    20   16   17 ar   
    21   16   22 ar   
    22   17   18 1    
    23   17   19 ar   
    24   19   20 ar   
    25   20   21 ar   
    26   21   22 ar   
    27   23   24 1    
    28   24   25 ar   
    29   24   26 ar   
    30   24   27 1    
    31   27   28 1    
    32   28   29 1    
    33   29   30 1    
    34   29   31 1    
    35   30   35 1    
    36   31   32 1    
    37   31   33 1    
    38   33   34 1    
    39   33   35 1    
    40   35   36 1    
    41   36   37 ar   
    42   36   44 ar   
    43   37   38 ar   
    44   38   39 1    
    45   38   42 ar   
    46   39   40 2    
    47   39   41 am   
    48   42   43 ar   
    49   43   44 ar   
    50   45   46 ar   
    51   45   47 ar   
    52   45   48 ar   
@<TRIPOS>SUBSTRUCTURE
     1 NAP301      1 GROUP   
@<TRIPOS>SET
ATOM$ORANGE STATIC     ATOMS   COLORGROUP SYSTEM 
42 5 5 6 6 8 8 10 10 12 12 14 14 16 16 17 17 20 \
20 22 22 28 28 29 29 31 31 33 33 35 35 37 37 38 38 39 \
39 42 42 43 43 44 44 

