#    Name: 5xv0_6_NAP
#    Modification time : Fri May 22 19:15:57 2020

@<TRIPOS>MOLECULE
5xv0_6_NAP
   48    52     1     0     1
SMALL
NO_CHARGES


@<TRIPOS>ATOM
      1 PA        -14.2300   -8.1830  117.4320 P.3       1 NAP301      0.0000 
      2 O1A       -14.9290   -9.2550  118.2480 O.co2     1 NAP301      0.0000 
      3 O2A       -13.8860   -8.3160  115.9990 O.co2     1 NAP301      0.0000 
      4 O5B       -12.9020   -7.7750  118.3150 O.3       1 NAP301      0.0000 
      5 C5B       -11.9410   -7.0620  117.5730 C.3       1 NAP301      0.0000 
      6 C4B       -10.7240   -6.7700  118.3910 C.3       1 NAP301      0.0000 
      7 O4B        -9.8010   -7.8760  118.4210 O.3       1 NAP301      0.0000 
      8 C3B        -9.9430   -5.6060  117.7940 C.3       1 NAP301      0.0000 
      9 O3B       -10.6070   -4.3270  117.8890 O.3       1 NAP301      0.0000 
     10 C2B        -8.6740   -5.7360  118.6020 C.3       1 NAP301      0.0000 
     11 O2B        -8.8150   -5.0310  119.8310 O.3       1 NAP301      0.0000 
     12 C1B        -8.5440   -7.2690  118.7880 C.3       1 NAP301      0.0000 
     13 N9A        -7.4100   -7.6780  117.9280 N.pl3     1 NAP301      0.0000 
     14 C8A        -6.1840   -7.8110  118.4160 C.2       1 NAP301      0.0000 
     15 N7A        -5.2970   -8.1360  117.4720 N.2       1 NAP301      0.0000 
     16 C5A        -5.9730   -8.2150  116.3240 C.ar      1 NAP301      0.0000 
     17 C6A        -5.6270   -8.5210  114.9200 C.ar      1 NAP301      0.0000 
     18 N6A        -4.3580   -8.8270  114.6070 N.pl3     1 NAP301      0.0000 
     19 N1A        -6.6200   -8.4830  113.9870 N.ar      1 NAP301      0.0000 
     20 C2A        -7.8940   -8.1830  114.3160 C.ar      1 NAP301      0.0000 
     21 N3A        -8.2870   -7.8910  115.5890 N.ar      1 NAP301      0.0000 
     22 C4A        -7.3860   -7.8920  116.6140 C.ar      1 NAP301      0.0000 
     23 O3        -15.1460   -6.8500  117.7170 O.3       1 NAP301      0.0000 
     24 PN        -15.8150   -5.7590  116.7320 P.3       1 NAP301      0.0000 
     25 O1N       -15.0030   -5.6000  115.4620 O.co2     1 NAP301      0.0000 
     26 O2N       -16.0810   -4.5230  117.5710 O.co2     1 NAP301      0.0000 
     27 O5D       -17.2790   -6.3990  116.4080 O.3       1 NAP301      0.0000 
     28 C5D       -18.1260   -6.8550  117.4750 C.3       1 NAP301      0.0000 
     29 C4D       -19.6040   -6.4980  117.2290 C.3       1 NAP301      0.0000 
     30 O4D       -20.2400   -7.4010  116.3030 O.3       1 NAP301      0.0000 
     31 C3D       -20.4510   -6.5540  118.5010 C.3       1 NAP301      0.0000 
     32 O3D       -21.3260   -5.4260  118.4870 O.3       1 NAP301      0.0000 
     33 C2D       -21.2150   -7.8780  118.4490 C.3       1 NAP301      0.0000 
     34 O2D       -22.5560   -7.8090  118.9950 O.3       1 NAP301      0.0000 
     35 C1D       -21.2630   -8.1830  116.9500 C.3       1 NAP301      0.0000 
     36 N1N       -21.0920   -9.5950  116.5840 N.pl3     1 NAP301      0.0000 
     37 C2N       -22.0160  -10.1630  115.7930 C.ar      1 NAP301      0.0000 
     38 C3N       -21.9370  -11.4980  115.3620 C.ar      1 NAP301      0.0000 
     39 C7N       -22.9980  -12.1040  114.4480 C.2       1 NAP301      0.0000 
     40 O7N       -22.8510  -13.2810  114.0640 O.2       1 NAP301      0.0000 
     41 N7N       -24.0570  -11.3620  114.0330 N.am      1 NAP301      0.0000 
     42 C4N       -20.8260  -12.2480  115.7870 C.ar      1 NAP301      0.0000 
     43 C5N       -19.8620  -11.6480  116.6110 C.ar      1 NAP301      0.0000 
     44 C6N       -20.0250  -10.3090  116.9850 C.ar      1 NAP301      0.0000 
     45 P2B        -7.6220   -4.7630  120.8920 P.3       1 NAP301      0.0000 
     46 O1X        -8.1570   -3.6440  121.7310 O.co2     1 NAP301      0.0000 
     47 O2X        -7.4320   -6.0520  121.6560 O.co2     1 NAP301      0.0000 
     48 O3X        -6.4310   -4.4630  119.9960 O.co2     1 NAP301      0.0000 
@<TRIPOS>BOND
     1    1    2 ar   
     2    1    3 ar   
     3    1    4 1    
     4    1   23 1    
     5    4    5 1    
     6    5    6 1    
     7    6    7 1    
     8    6    8 1    
     9    7   12 1    
    10    8    9 1    
    11    8   10 1    
    12   10   11 1    
    13   10   12 1    
    14   11   45 1    
    15   12   13 1    
    16   13   14 1    
    17   13   22 1    
    18   14   15 2    
    19   15   16 1    
    20   16   17 ar   
    21   16   22 ar   
    22   17   18 1    
    23   17   19 ar   
    24   19   20 ar   
    25   20   21 ar   
    26   21   22 ar   
    27   23   24 1    
    28   24   25 ar   
    29   24   26 ar   
    30   24   27 1    
    31   27   28 1    
    32   28   29 1    
    33   29   30 1    
    34   29   31 1    
    35   30   35 1    
    36   31   32 1    
    37   31   33 1    
    38   33   34 1    
    39   33   35 1    
    40   35   36 1    
    41   36   37 ar   
    42   36   44 ar   
    43   37   38 ar   
    44   38   39 1    
    45   38   42 ar   
    46   39   40 2    
    47   39   41 am   
    48   42   43 ar   
    49   43   44 ar   
    50   45   46 ar   
    51   45   47 ar   
    52   45   48 ar   
@<TRIPOS>SUBSTRUCTURE
     1 NAP301      1 GROUP   
@<TRIPOS>SET
ATOM$ORANGE STATIC     ATOMS   COLORGROUP SYSTEM 
42 5 5 6 6 8 8 10 10 12 12 14 14 16 16 17 17 20 \
20 22 22 28 28 29 29 31 31 33 33 35 35 37 37 38 38 39 \
39 42 42 43 43 44 44 

