#    Name: 5xv0_1_NAP
#    Modification time : Fri May 22 19:15:09 2020

@<TRIPOS>MOLECULE
5xv0_1_NAP
   48    52     1     0     1
SMALL
NO_CHARGES


@<TRIPOS>ATOM
      1 PA        -14.2770    8.2290  -12.8430 P.3       1 NAP301      0.0000 
      2 O1A       -14.9330    9.3750  -13.5940 O.co2     1 NAP301      0.0000 
      3 O2A       -13.9380    8.3030  -11.4080 O.co2     1 NAP301      0.0000 
      4 O5B       -12.9590    7.7740  -13.7240 O.3       1 NAP301      0.0000 
      5 C5B       -11.9790    7.1180  -12.9550 C.3       1 NAP301      0.0000 
      6 C4B       -10.7530    6.8190  -13.7550 C.3       1 NAP301      0.0000 
      7 O4B        -9.7940    7.8920  -13.7020 O.3       1 NAP301      0.0000 
      8 C3B       -10.0450    5.5830  -13.2040 C.3       1 NAP301      0.0000 
      9 O3B       -10.7560    4.3610  -13.4830 O.3       1 NAP301      0.0000 
     10 C2B        -8.7150    5.7090  -13.9010 C.3       1 NAP301      0.0000 
     11 O2B        -8.8030    5.0210  -15.1430 O.3       1 NAP301      0.0000 
     12 C1B        -8.5620    7.2400  -14.0780 C.3       1 NAP301      0.0000 
     13 N9A        -7.4180    7.6520  -13.2410 N.pl3     1 NAP301      0.0000 
     14 C8A        -6.2010    7.7930  -13.7480 C.2       1 NAP301      0.0000 
     15 N7A        -5.3120    8.1350  -12.8110 N.2       1 NAP301      0.0000 
     16 C5A        -5.9660    8.2160  -11.6430 C.ar      1 NAP301      0.0000 
     17 C6A        -5.6280    8.5420  -10.2330 C.ar      1 NAP301      0.0000 
     18 N6A        -4.3750    8.8700   -9.8750 N.pl3     1 NAP301      0.0000 
     19 N1A        -6.6260    8.4940   -9.3010 N.ar      1 NAP301      0.0000 
     20 C2A        -7.8940    8.1780   -9.6310 C.ar      1 NAP301      0.0000 
     21 N3A        -8.2780    7.8730  -10.9020 N.ar      1 NAP301      0.0000 
     22 C4A        -7.3790    7.8750  -11.9270 C.ar      1 NAP301      0.0000 
     23 O3        -15.3360    7.0040  -13.0840 O.3       1 NAP301      0.0000 
     24 PN        -15.8840    5.8550  -12.0830 P.3       1 NAP301      0.0000 
     25 O1N       -15.0650    5.7420  -10.8080 O.co2     1 NAP301      0.0000 
     26 O2N       -15.9850    4.6130  -12.9570 O.co2     1 NAP301      0.0000 
     27 O5D       -17.3860    6.4160  -11.7470 O.3       1 NAP301      0.0000 
     28 C5D       -18.5300    5.7650  -12.3300 C.3       1 NAP301      0.0000 
     29 C4D       -19.8780    6.5140  -12.2840 C.3       1 NAP301      0.0000 
     30 O4D       -19.8860    7.7540  -11.5680 O.3       1 NAP301      0.0000 
     31 C3D       -20.4300    6.8530  -13.6750 C.3       1 NAP301      0.0000 
     32 O3D       -21.3090    5.8010  -14.0820 O.3       1 NAP301      0.0000 
     33 C2D       -21.1200    8.2130  -13.5340 C.3       1 NAP301      0.0000 
     34 O2D       -22.4970    8.2330  -13.9730 O.3       1 NAP301      0.0000 
     35 C1D       -21.0290    8.4850  -12.0360 C.3       1 NAP301      0.0000 
     36 N1N       -20.9160    9.9000  -11.6560 N.pl3     1 NAP301      0.0000 
     37 C2N       -21.9120   10.4420  -10.9330 C.ar      1 NAP301      0.0000 
     38 C3N       -21.8940   11.7730  -10.4930 C.ar      1 NAP301      0.0000 
     39 C7N       -23.0410   12.3330   -9.6670 C.2       1 NAP301      0.0000 
     40 O7N       -23.0020   13.5270   -9.3220 O.2       1 NAP301      0.0000 
     41 N7N       -24.0690   11.5310   -9.2850 N.am      1 NAP301      0.0000 
     42 C4N       -20.7760   12.5530  -10.8270 C.ar      1 NAP301      0.0000 
     43 C5N       -19.7400   11.9800  -11.5800 C.ar      1 NAP301      0.0000 
     44 C6N       -19.8360   10.6390  -11.9770 C.ar      1 NAP301      0.0000 
     45 P2B        -7.5740    4.7990  -16.1680 P.3       1 NAP301      0.0000 
     46 O1X        -8.0680    3.7150  -17.0740 O.co2     1 NAP301      0.0000 
     47 O2X        -7.3820    6.1100  -16.8970 O.co2     1 NAP301      0.0000 
     48 O3X        -6.4240    4.4690  -15.2340 O.co2     1 NAP301      0.0000 
@<TRIPOS>BOND
     1    1    2 ar   
     2    1    3 ar   
     3    1    4 1    
     4    1   23 1    
     5    4    5 1    
     6    5    6 1    
     7    6    7 1    
     8    6    8 1    
     9    7   12 1    
    10    8    9 1    
    11    8   10 1    
    12   10   11 1    
    13   10   12 1    
    14   11   45 1    
    15   12   13 1    
    16   13   14 1    
    17   13   22 1    
    18   14   15 2    
    19   15   16 1    
    20   16   17 ar   
    21   16   22 ar   
    22   17   18 1    
    23   17   19 ar   
    24   19   20 ar   
    25   20   21 ar   
    26   21   22 ar   
    27   23   24 1    
    28   24   25 ar   
    29   24   26 ar   
    30   24   27 1    
    31   27   28 1    
    32   28   29 1    
    33   29   30 1    
    34   29   31 1    
    35   30   35 1    
    36   31   32 1    
    37   31   33 1    
    38   33   34 1    
    39   33   35 1    
    40   35   36 1    
    41   36   37 ar   
    42   36   44 ar   
    43   37   38 ar   
    44   38   39 1    
    45   38   42 ar   
    46   39   40 2    
    47   39   41 am   
    48   42   43 ar   
    49   43   44 ar   
    50   45   46 ar   
    51   45   47 ar   
    52   45   48 ar   
@<TRIPOS>SUBSTRUCTURE
     1 NAP301      1 GROUP   
@<TRIPOS>SET
ATOM$ORANGE STATIC     ATOMS   COLORGROUP SYSTEM 
42 5 5 6 6 8 8 10 10 12 12 14 14 16 16 17 17 20 \
20 22 22 28 28 29 29 31 31 33 33 35 35 37 37 38 38 39 \
39 42 42 43 43 44 44 

