#    Name: 5xv0_4_NAP
#    Modification time : Fri May 22 19:15:39 2020

@<TRIPOS>MOLECULE
5xv0_4_NAP
   48    52     1     0     1
SMALL
NO_CHARGES


@<TRIPOS>ATOM
      1 PA        -62.8080   -2.3160   66.6930 P.3       1 NAP301      0.0000 
      2 O1A       -61.7600   -2.9910   67.5530 O.co2     1 NAP301      0.0000 
      3 O2A       -62.3800   -1.0990   65.8890 O.co2     1 NAP301      0.0000 
      4 O5B       -64.0690   -1.8670   67.6020 O.3       1 NAP301      0.0000 
      5 C5B       -64.6680   -0.5990   67.3510 C.3       1 NAP301      0.0000 
      6 C4B       -65.7040   -0.2330   68.3930 C.3       1 NAP301      0.0000 
      7 O4B       -65.2240    0.6860   69.3900 O.3       1 NAP301      0.0000 
      8 C3B       -66.8580    0.5120   67.7490 C.3       1 NAP301      0.0000 
      9 O3B       -67.7270   -0.3460   66.9980 O.3       1 NAP301      0.0000 
     10 C2B       -67.5130    1.1940   68.9380 C.3       1 NAP301      0.0000 
     11 O2B       -68.5130    0.3890   69.5870 O.3       1 NAP301      0.0000 
     12 C1B       -66.3340    1.4730   69.8740 C.3       1 NAP301      0.0000 
     13 N9A       -66.1430    2.9590   69.9180 N.pl3     1 NAP301      0.0000 
     14 C8A       -66.5770    3.6840   70.9610 C.2       1 NAP301      0.0000 
     15 N7A       -66.3390    5.0090   70.7900 N.2       1 NAP301      0.0000 
     16 C5A       -65.7470    5.1660   69.6100 C.ar      1 NAP301      0.0000 
     17 C6A       -65.2380    6.3370   68.8610 C.ar      1 NAP301      0.0000 
     18 N6A       -65.3460    7.5810   69.3950 N.pl3     1 NAP301      0.0000 
     19 N1A       -64.6730    6.1020   67.6470 N.ar      1 NAP301      0.0000 
     20 C2A       -64.5810    4.8440   67.1410 C.ar      1 NAP301      0.0000 
     21 N3A       -65.0310    3.7360   67.7860 N.ar      1 NAP301      0.0000 
     22 C4A       -65.6150    3.8180   69.0150 C.ar      1 NAP301      0.0000 
     23 O3        -63.4630   -3.4920   65.7740 O.3       1 NAP301      0.0000 
     24 PN        -63.5310   -3.6110   64.1470 P.3       1 NAP301      0.0000 
     25 O1N       -63.2000   -2.2680   63.5330 O.co2     1 NAP301      0.0000 
     26 O2N       -64.8190   -4.3190   63.7710 O.co2     1 NAP301      0.0000 
     27 O5D       -62.3440   -4.6370   63.7610 O.3       1 NAP301      0.0000 
     28 C5D       -62.2560   -5.9780   64.2310 C.3       1 NAP301      0.0000 
     29 C4D       -61.5200   -6.7960   63.1740 C.3       1 NAP301      0.0000 
     30 O4D       -60.1490   -6.3840   63.1240 O.3       1 NAP301      0.0000 
     31 C3D       -61.5580   -8.2940   63.4700 C.3       1 NAP301      0.0000 
     32 O3D       -62.1210   -9.0310   62.3770 O.3       1 NAP301      0.0000 
     33 C2D       -60.1130   -8.6760   63.7190 C.3       1 NAP301      0.0000 
     34 O2D       -59.7580   -9.9320   63.1250 O.3       1 NAP301      0.0000 
     35 C1D       -59.2970   -7.5340   63.1290 C.3       1 NAP301      0.0000 
     36 N1N       -58.0620   -7.2880   63.8950 N.pl3     1 NAP301      0.0000 
     37 C2N       -56.8800   -7.5850   63.3260 C.ar      1 NAP301      0.0000 
     38 C3N       -55.6720   -7.3790   63.9840 C.ar      1 NAP301      0.0000 
     39 C7N       -54.3770   -7.7140   63.2890 C.2       1 NAP301      0.0000 
     40 O7N       -53.4310   -6.9470   63.4160 O.2       1 NAP301      0.0000 
     41 N7N       -54.2710   -8.8130   62.5320 N.am      1 NAP301      0.0000 
     42 C4N       -55.6970   -6.8480   65.2730 C.ar      1 NAP301      0.0000 
     43 C5N       -56.9290   -6.5470   65.8590 C.ar      1 NAP301      0.0000 
     44 C6N       -58.1070   -6.7750   65.1430 C.ar      1 NAP301      0.0000 
     45 P2B       -69.8430    0.9890   70.3110 P.3       1 NAP301      0.0000 
     46 O1X       -69.8590    0.2960   71.6620 O.co2     1 NAP301      0.0000 
     47 O2X       -69.6320    2.4840   70.3810 O.co2     1 NAP301      0.0000 
     48 O3X       -71.0000    0.5960   69.4180 O.co2     1 NAP301      0.0000 
@<TRIPOS>BOND
     1    1    2 ar   
     2    1    3 ar   
     3    1    4 1    
     4    1   23 1    
     5    4    5 1    
     6    5    6 1    
     7    6    7 1    
     8    6    8 1    
     9    7   12 1    
    10    8    9 1    
    11    8   10 1    
    12   10   11 1    
    13   10   12 1    
    14   11   45 1    
    15   12   13 1    
    16   13   14 1    
    17   13   22 1    
    18   14   15 2    
    19   15   16 1    
    20   16   17 ar   
    21   16   22 ar   
    22   17   18 1    
    23   17   19 ar   
    24   19   20 ar   
    25   20   21 ar   
    26   21   22 ar   
    27   23   24 1    
    28   24   25 ar   
    29   24   26 ar   
    30   24   27 1    
    31   27   28 1    
    32   28   29 1    
    33   29   30 1    
    34   29   31 1    
    35   30   35 1    
    36   31   32 1    
    37   31   33 1    
    38   33   34 1    
    39   33   35 1    
    40   35   36 1    
    41   36   37 ar   
    42   36   44 ar   
    43   37   38 ar   
    44   38   39 1    
    45   38   42 ar   
    46   39   40 2    
    47   39   41 am   
    48   42   43 ar   
    49   43   44 ar   
    50   45   46 ar   
    51   45   47 ar   
    52   45   48 ar   
@<TRIPOS>SUBSTRUCTURE
     1 NAP301      1 GROUP   
@<TRIPOS>SET
ATOM$ORANGE STATIC     ATOMS   COLORGROUP SYSTEM 
42 5 5 6 6 8 8 10 10 12 12 14 14 16 16 17 17 20 \
20 22 22 28 28 29 29 31 31 33 33 35 35 37 37 38 38 39 \
39 42 42 43 43 44 44 

