#    Name: 5xv0_3_NAP
#    Modification time : Fri May 22 19:15:28 2020

@<TRIPOS>MOLECULE
5xv0_3_NAP
   48    52     1     0     1
SMALL
NO_CHARGES


@<TRIPOS>ATOM
      1 PA        -62.7440    2.3670   37.9520 P.3       1 NAP301      0.0000 
      2 O1A       -61.8120    3.1810   37.0810 O.co2     1 NAP301      0.0000 
      3 O2A       -62.1800    1.1630   38.6790 O.co2     1 NAP301      0.0000 
      4 O5B       -63.9960    1.8400   37.0720 O.3       1 NAP301      0.0000 
      5 C5B       -64.1020    0.4520   36.7330 C.3       1 NAP301      0.0000 
      6 C4B       -65.3490    0.1520   35.9150 C.3       1 NAP301      0.0000 
      7 O4B       -65.1040   -0.8600   34.9250 O.3       1 NAP301      0.0000 
      8 C3B       -66.4750   -0.4000   36.7670 C.3       1 NAP301      0.0000 
      9 O3B       -67.2000    0.6550   37.4060 O.3       1 NAP301      0.0000 
     10 C2B       -67.2970   -1.2300   35.7920 C.3       1 NAP301      0.0000 
     11 O2B       -68.4250   -0.5250   35.2530 O.3       1 NAP301      0.0000 
     12 C1B       -66.3080   -1.6080   34.6900 C.3       1 NAP301      0.0000 
     13 N9A       -66.1330   -3.0960   34.6740 N.pl3     1 NAP301      0.0000 
     14 C8A       -66.5700   -3.8380   33.6430 C.2       1 NAP301      0.0000 
     15 N7A       -66.3290   -5.1580   33.8400 N.2       1 NAP301      0.0000 
     16 C5A       -65.7340   -5.2940   35.0230 C.ar      1 NAP301      0.0000 
     17 C6A       -65.2270   -6.4490   35.7950 C.ar      1 NAP301      0.0000 
     18 N6A       -65.3410   -7.7010   35.2840 N.pl3     1 NAP301      0.0000 
     19 N1A       -64.6560   -6.1920   37.0010 N.ar      1 NAP301      0.0000 
     20 C2A       -64.5610   -4.9240   37.4820 C.ar      1 NAP301      0.0000 
     21 N3A       -65.0120   -3.8300   36.8140 N.ar      1 NAP301      0.0000 
     22 C4A       -65.6020   -3.9370   35.5920 C.ar      1 NAP301      0.0000 
     23 O3        -63.4540    3.4180   38.9740 O.3       1 NAP301      0.0000 
     24 PN        -63.3670    3.5210   40.6030 P.3       1 NAP301      0.0000 
     25 O1N       -62.9110    2.2100   41.2060 O.co2     1 NAP301      0.0000 
     26 O2N       -64.6830    4.0970   41.0720 O.co2     1 NAP301      0.0000 
     27 O5D       -62.2350    4.6530   40.8560 O.3       1 NAP301      0.0000 
     28 C5D       -62.3670    5.5740   41.9390 C.3       1 NAP301      0.0000 
     29 C4D       -61.1810    6.5310   42.0520 C.3       1 NAP301      0.0000 
     30 O4D       -59.9450    5.9570   41.6190 O.3       1 NAP301      0.0000 
     31 C3D       -61.3420    7.8260   41.2550 C.3       1 NAP301      0.0000 
     32 O3D       -61.9230    8.8700   42.0530 O.3       1 NAP301      0.0000 
     33 C2D       -59.9260    8.1640   40.8100 C.3       1 NAP301      0.0000 
     34 O2D       -59.4990    9.4660   41.2340 O.3       1 NAP301      0.0000 
     35 C1D       -59.0700    7.0780   41.4580 C.3       1 NAP301      0.0000 
     36 N1N       -57.8660    6.7270   40.6880 N.pl3     1 NAP301      0.0000 
     37 C2N       -56.6520    7.0360   41.1960 C.ar      1 NAP301      0.0000 
     38 C3N       -55.4610    6.7220   40.5270 C.ar      1 NAP301      0.0000 
     39 C7N       -54.0970    7.0680   41.1040 C.2       1 NAP301      0.0000 
     40 O7N       -53.1150    7.1110   40.3710 O.2       1 NAP301      0.0000 
     41 N7N       -53.9320    7.3160   42.4110 N.am      1 NAP301      0.0000 
     42 C4N       -55.5730    6.0710   39.2930 C.ar      1 NAP301      0.0000 
     43 C5N       -56.8370    5.7580   38.7810 C.ar      1 NAP301      0.0000 
     44 C6N       -57.9800    6.0960   39.5040 C.ar      1 NAP301      0.0000 
     45 P2B       -69.6500   -1.2230   34.4430 P.3       1 NAP301      0.0000 
     46 O1X       -70.9000   -0.5870   35.0130 O.co2     1 NAP301      0.0000 
     47 O2X       -69.3630   -0.8180   33.0150 O.co2     1 NAP301      0.0000 
     48 O3X       -69.5610   -2.7160   34.6930 O.co2     1 NAP301      0.0000 
@<TRIPOS>BOND
     1    1    2 ar   
     2    1    3 ar   
     3    1    4 1    
     4    1   23 1    
     5    4    5 1    
     6    5    6 1    
     7    6    7 1    
     8    6    8 1    
     9    7   12 1    
    10    8    9 1    
    11    8   10 1    
    12   10   11 1    
    13   10   12 1    
    14   11   45 1    
    15   12   13 1    
    16   13   14 1    
    17   13   22 1    
    18   14   15 2    
    19   15   16 1    
    20   16   17 ar   
    21   16   22 ar   
    22   17   18 1    
    23   17   19 ar   
    24   19   20 ar   
    25   20   21 ar   
    26   21   22 ar   
    27   23   24 1    
    28   24   25 ar   
    29   24   26 ar   
    30   24   27 1    
    31   27   28 1    
    32   28   29 1    
    33   29   30 1    
    34   29   31 1    
    35   30   35 1    
    36   31   32 1    
    37   31   33 1    
    38   33   34 1    
    39   33   35 1    
    40   35   36 1    
    41   36   37 ar   
    42   36   44 ar   
    43   37   38 ar   
    44   38   39 1    
    45   38   42 ar   
    46   39   40 2    
    47   39   41 am   
    48   42   43 ar   
    49   43   44 ar   
    50   45   46 ar   
    51   45   47 ar   
    52   45   48 ar   
@<TRIPOS>SUBSTRUCTURE
     1 NAP301      1 GROUP   
@<TRIPOS>SET
ATOM$ORANGE STATIC     ATOMS   COLORGROUP SYSTEM 
42 5 5 6 6 8 8 10 10 12 12 14 14 16 16 17 17 20 \
20 22 22 28 28 29 29 31 31 33 33 35 35 37 37 38 38 39 \
39 42 42 43 43 44 44 

