#    Name: 5xv0_1_NAP_CAVITY_N1_6
#    Modification time : Fri May 22 19:15:11 2020

@<TRIPOS>MOLECULE
5xv0_1_NAP_CAVITY_N1_6
   82     0     6     0     0
SMALL
NO_CHARGES


@<TRIPOS>ATOM
      1 OG        -18.5300    7.7100  -14.3100 O.3       1 SER1        0.0000 
      2 OG        -20.6600    5.6800  -13.7400 O.3       1 SER1        0.0000 
      3 OG        -21.6800    6.7800  -13.6600 O.3       1 SER1        0.0000 
      4 OG        -16.1800    7.7700  -13.2100 O.3       1 SER1        0.0000 
      5 OG        -17.2400    6.7500  -12.9200 O.3       1 SER1        0.0000 
      6 OG        -18.2700    7.8500  -12.8400 O.3       1 SER1        0.0000 
      7 OG        -19.2900    8.9500  -12.7700 O.3       1 SER1        0.0000 
      8 OG        -20.3100   10.0400  -12.6900 O.3       1 SER1        0.0000 
      9 OG        -20.3500    7.9300  -12.4800 O.3       1 SER1        0.0000 
     10 OG        -20.4000    5.8200  -12.2700 O.3       1 SER1        0.0000 
     11 OG        -21.4200    6.9200  -12.1900 O.3       1 SER1        0.0000 
     12 OG        -14.9400    4.7000  -11.6100 O.3       1 SER1        0.0000 
     13 N         -18.8400    5.4600  -15.5700 N.am      2 ALA2        0.0000 
     14 N         -22.5700   14.2000  -14.2100 N.am      2 ALA2        0.0000 
     15 N         -18.5700    5.6000  -14.1000 N.am      2 ALA2        0.0000 
     16 N         -23.6800   11.0800  -13.7200 N.am      2 ALA2        0.0000 
     17 N         -23.3700   13.3300  -12.4600 N.am      2 ALA2        0.0000 
     18 N         -23.4600    9.1100  -12.0300 N.am      2 ALA2        0.0000 
     19 N         -18.9300   13.3100  -11.7200 N.am      2 ALA2        0.0000 
     20 N         -19.9500   14.4000  -11.6400 N.am      2 ALA2        0.0000 
     21 O         -18.9800   11.2000  -11.5100 O.2       2 ALA2        0.0000 
     22 N         -20.0000   12.2900  -11.4300 N.am      2 ALA2        0.0000 
     23 N         -21.0200   13.3900  -11.3500 N.am      2 ALA2        0.0000 
     24 N         -22.0400   14.4900  -11.2800 N.am      2 ALA2        0.0000 
     25 O         -15.9600    5.8000  -11.5300 O.2       2 ALA2        0.0000 
     26 O         -16.9800    6.9000  -11.4500 O.2       2 ALA2        0.0000 
     27 O         -19.0700    6.9800  -11.0900 O.2       2 ALA2        0.0000 
     28 N         -22.1300   10.2600  -10.8500 N.am      2 ALA2        0.0000 
     29 N         -23.1500   11.3600  -10.7800 N.am      2 ALA2        0.0000 
     30 N         -19.7400   12.4300   -9.9600 N.am      2 ALA2        0.0000 
     31 N         -20.7600   13.5300   -9.8800 N.am      2 ALA2        0.0000 
     32 N         -21.7800   14.6300   -9.8100 N.am      2 ALA2        0.0000 
     33 O         -22.8500   13.6100   -9.5200 O.2       2 ALA2        0.0000 
     34 N         -22.8900   11.5000   -9.3100 N.am      2 ALA2        0.0000 
     35 OD1       -17.5500    4.5000  -14.1800 O.co2     3 ASP3        0.0000 
     36 OD1       -14.1800    3.4700  -13.1600 O.co2     3 ASP3        0.0000 
     37 OD1       -15.2000    4.5600  -13.0800 O.co2     3 ASP3        0.0000 
     38 OD1       -15.2500    2.4500  -12.8700 O.co2     3 ASP3        0.0000 
     39 OD1       -17.2900    4.6400  -12.7100 O.co2     3 ASP3        0.0000 
     40 OD1       -18.3100    5.7400  -12.6300 O.co2     3 ASP3        0.0000 
     41 OD1       -14.9800    2.5900  -11.4000 O.co2     3 ASP3        0.0000 
     42 OD1       -16.0000    3.6900  -11.3200 O.co2     3 ASP3        0.0000 
     43 OD1       -17.0300    4.7900  -11.2400 O.co2     3 ASP3        0.0000 
     44 NZ        -21.5500   13.1100  -14.2900 N.4       4 LYS4        0.0000 
     45 NZ        -22.6100   12.0900  -14.0000 N.4       4 LYS4        0.0000 
     46 NZ        -20.6200    7.7900  -13.9500 N.4       4 LYS4        0.0000 
     47 NZ        -22.7000    7.8700  -13.5800 N.4       4 LYS4        0.0000 
     48 NZ        -23.7300    8.9700  -13.5000 N.4       4 LYS4        0.0000 
     49 NZ        -21.2400   15.3600  -13.0300 N.4       4 LYS4        0.0000 
     50 NZ        -21.3300   11.1400  -12.6100 N.4       4 LYS4        0.0000 
     51 NZ        -21.3700    9.0300  -12.4000 N.4       4 LYS4        0.0000 
     52 NZ        -22.4000   10.1200  -12.3200 N.4       4 LYS4        0.0000 
     53 CA        -20.4800   14.1200  -14.5800 C.3       5 GLY6        0.0000 
     54 CA        -15.4600    4.4200  -14.5500 C.3       5 GLY6        0.0000 
     55 CA        -16.4900    5.5200  -14.4700 C.3       5 GLY6        0.0000 
     56 CA        -17.5100    6.6100  -14.3900 C.3       5 GLY6        0.0000 
     57 CA        -19.6000    6.6900  -14.0300 C.3       5 GLY6        0.0000 
     58 CA        -19.6400    4.5800  -13.8200 C.3       5 GLY6        0.0000 
     59 CA        -20.2200   14.2600  -13.1100 C.3       5 GLY6        0.0000 
     60 CA        -15.1600    6.6700  -13.2900 C.3       5 GLY6        0.0000 
     61 CA        -20.2600   12.1500  -12.9000 C.3       5 GLY6        0.0000 
     62 CA        -16.2200    5.6600  -13.0000 C.3       5 GLY6        0.0000 
     63 CA        -19.3800    4.7300  -12.3500 C.3       5 GLY6        0.0000 
     64 CA        -22.4400    8.0100  -12.1100 C.3       5 GLY6        0.0000 
     65 CA        -19.0200    9.0900  -11.3000 C.3       5 GLY6        0.0000 
     66 CA        -20.0400   10.1800  -11.2200 C.3       5 GLY6        0.0000 
     67 CA        -18.0500    5.8800  -11.1600 C.3       5 GLY6        0.0000 
     68 CA        -20.0900    8.0700  -11.0100 C.3       5 GLY6        0.0000 
     69 CA        -21.1100    9.1700  -10.9300 C.3       5 GLY6        0.0000 
     70 CA        -21.1600    7.0600  -10.7200 C.3       5 GLY6        0.0000 
     71 CA        -22.1800    8.1500  -10.6400 C.3       5 GLY6        0.0000 
     72 CA        -20.8000   11.4200   -9.6700 C.3       5 GLY6        0.0000 
     73 CA        -21.8200   12.5200   -9.5900 C.3       5 GLY6        0.0000 
     74 CA        -21.8700   10.4100   -9.3800 C.3       5 GLY6        0.0000 
     75 DU        -21.2800   13.2500  -12.8200 H         6 CUB7        0.0000 
     76 DU        -22.3100   14.3400  -12.7400 H         6 CUB7        0.0000 
     77 DU        -22.3500   12.2300  -12.5300 H         6 CUB7        0.0000 
     78 DU        -19.3300    6.8400  -12.5600 H         6 CUB7        0.0000 
     79 DU        -21.0700   11.2800  -11.1400 H         6 CUB7        0.0000 
     80 DU        -22.0900   12.3700  -11.0600 H         6 CUB7        0.0000 
     81 DU        -23.1100   13.4700  -10.9900 H         6 CUB7        0.0000 
     82 DU        -24.1800   12.4600  -10.7000 H         6 CUB7        0.0000 
@<TRIPOS>BOND
@<TRIPOS>SUBSTRUCTURE
     1 SER1        1 GROUP   
     2 ALA2       13 GROUP   
     3 ASP3       35 GROUP   
     4 LYS4       44 GROUP   
     5 GLY6       53 GROUP   
     6 CUB7       75 GROUP   
@<TRIPOS>SET

