#    Name: 5xv0_6_NAP_CAVITY_N1_ALL
#    Modification time : Fri May 22 19:15:59 2020

@<TRIPOS>MOLECULE
5xv0_6_NAP_CAVITY_N1_ALL
   84     0     6     0     0
SMALL
NO_CHARGES


@<TRIPOS>ATOM
      1 OG        -15.4700   -4.8700  116.4600 O.3       1 SER1        0.0000 
      2 OG        -18.6700   -7.9200  117.3200 O.3       1 SER1        0.0000 
      3 OG        -20.7100   -5.7300  117.4800 O.3       1 SER1        0.0000 
      4 OG        -19.7400   -8.9300  117.6100 O.3       1 SER1        0.0000 
      5 OG        -21.7800   -6.7400  117.7700 O.3       1 SER1        0.0000 
      6 OG        -18.7600  -12.1400  117.7400 O.3       1 SER1        0.0000 
      7 OG        -19.7800  -11.0400  117.8200 O.3       1 SER1        0.0000 
      8 OG        -18.4100   -7.7800  118.7900 O.3       1 SER1        0.0000 
      9 OG        -19.4700   -8.7900  119.0800 O.3       1 SER1        0.0000 
     10 N         -22.6600  -11.3900  113.7800 N.am      2 ALA2        0.0000 
     11 O         -22.7000  -13.5000  113.9900 O.2       2 ALA2        0.0000 
     12 N         -23.7300  -12.4000  114.0700 N.am      2 ALA2        0.0000 
     13 N         -24.7500  -11.3000  114.1400 N.am      2 ALA2        0.0000 
     14 O         -23.7700  -14.5100  114.2800 O.2       2 ALA2        0.0000 
     15 N         -21.3700  -12.3400  115.1700 N.am      2 ALA2        0.0000 
     16 N         -22.4000  -11.2400  115.2500 N.am      2 ALA2        0.0000 
     17 N         -21.4200  -14.4500  115.3800 N.am      2 ALA2        0.0000 
     18 N         -24.4800  -11.1600  115.6100 N.am      2 ALA2        0.0000 
     19 O         -16.8000   -6.0300  115.2700 O.2       2 ALA2        0.0000 
     20 O         -17.8700   -7.0400  115.5600 O.2       2 ALA2        0.0000 
     21 O         -19.0200  -12.2800  116.2700 O.2       2 ALA2        0.0000 
     22 O         -20.0400  -11.1800  116.3500 O.2       2 ALA2        0.0000 
     23 N         -22.0900   -8.9900  116.5100 N.am      2 ALA2        0.0000 
     24 N         -20.0900  -13.2900  116.5600 N.am      2 ALA2        0.0000 
     25 N         -23.1500  -10.0100  116.8000 N.am      2 ALA2        0.0000 
     26 N         -21.1600  -14.3100  116.8500 N.am      2 ALA2        0.0000 
     27 O         -16.5400   -5.8900  116.7400 O.2       2 ALA2        0.0000 
     28 O         -24.0000  -12.9900  118.7700 O.2       2 ALA2        0.0000 
     29 N         -18.3600   -5.6700  118.5800 N.am      2 ALA2        0.0000 
     30 N         -19.1600   -6.5400  120.3400 N.am      2 ALA2        0.0000 
     31 OD1       -17.5600   -4.7900  116.8200 O.co2     3 ASP3        0.0000 
     32 OD1       -18.6200   -5.8100  117.1100 O.co2     3 ASP3        0.0000 
     33 OD1       -17.2900   -4.6500  118.2900 O.co2     3 ASP3        0.0000 
     34 OD1       -19.3800   -4.5700  118.6600 O.co2     3 ASP3        0.0000 
     35 NZ        -20.7600   -7.8400  117.6900 N.4       4 LYS4        0.0000 
     36 NZ        -20.8000   -9.9500  117.9000 N.4       4 LYS4        0.0000 
     37 NZ        -21.8200   -8.8500  117.9800 N.4       4 LYS4        0.0000 
     38 NZ        -21.8700  -10.9600  118.1900 N.4       4 LYS4        0.0000 
     39 NZ        -19.8700  -15.2600  118.2400 N.4       4 LYS4        0.0000 
     40 NZ        -23.9600  -10.8800  118.5500 N.4       4 LYS4        0.0000 
     41 NZ        -20.4900   -7.7000  119.1600 N.4       4 LYS4        0.0000 
     42 CA        -21.6400  -12.4800  113.7000 C.3       5 GLY6        0.0000 
     43 CA        -21.6800  -14.5900  113.9100 C.3       5 GLY6        0.0000 
     44 CA        -20.3100  -11.3300  114.8800 C.3       5 GLY6        0.0000 
     45 CA        -21.3300  -10.2300  114.9600 C.3       5 GLY6        0.0000 
     46 CA        -17.8200   -4.9300  115.3500 C.3       5 GLY6        0.0000 
     47 CA        -18.8900   -5.9500  115.6400 C.3       5 GLY6        0.0000 
     48 CA        -18.9300   -8.0600  115.8500 C.3       5 GLY6        0.0000 
     49 CA        -19.9500   -6.9600  115.9300 C.3       5 GLY6        0.0000 
     50 CA        -18.9800  -10.1700  116.0600 C.3       5 GLY6        0.0000 
     51 CA        -20.0000   -9.0700  116.1400 C.3       5 GLY6        0.0000 
     52 CA        -21.0200   -7.9800  116.2200 C.3       5 GLY6        0.0000 
     53 CA        -20.1300  -15.4000  116.7700 C.3       5 GLY6        0.0000 
     54 CA        -24.2200  -11.0200  117.0800 C.3       5 GLY6        0.0000 
     55 CA        -25.2900  -12.0400  117.3700 C.3       5 GLY6        0.0000 
     56 CA        -16.5800   -8.0000  116.9600 C.3       5 GLY6        0.0000 
     57 CA        -17.6000   -6.9000  117.0300 C.3       5 GLY6        0.0000 
     58 CA        -19.6500   -4.7100  117.1900 C.3       5 GLY6        0.0000 
     59 CA        -22.8400   -7.7600  118.0500 C.3       5 GLY6        0.0000 
     60 CA        -19.8300  -13.1500  118.0300 C.3       5 GLY6        0.0000 
     61 CA        -20.8500  -12.0600  118.1100 C.3       5 GLY6        0.0000 
     62 CA        -20.8900  -14.1700  118.3200 C.3       5 GLY6        0.0000 
     63 CA        -15.2100   -4.7300  117.9300 C.3       5 GLY6        0.0000 
     64 CA        -16.2700   -5.7500  118.2100 C.3       5 GLY6        0.0000 
     65 CA        -17.3400   -6.7600  118.5000 C.3       5 GLY6        0.0000 
     66 CA        -19.4300   -6.6800  118.8700 C.3       5 GLY6        0.0000 
     67 CA        -20.4500   -5.5900  118.9500 C.3       5 GLY6        0.0000 
     68 CA        -21.5100   -6.6000  119.2400 C.3       5 GLY6        0.0000 
     69 CA        -14.9400   -4.5900  119.4000 C.3       5 GLY6        0.0000 
     70 DU        -22.4400  -13.3500  115.4600 H         6 CUB7        0.0000 
     71 DU        -23.4600  -12.2600  115.5400 H         6 CUB7        0.0000 
     72 DU        -22.4900  -15.4600  115.6700 H         6 CUB7        0.0000 
     73 DU        -23.5100  -14.3700  115.7500 H         6 CUB7        0.0000 
     74 DU        -24.5300  -13.2700  115.8300 H         6 CUB7        0.0000 
     75 DU        -25.5500  -12.1800  115.9000 H         6 CUB7        0.0000 
     76 DU        -21.0700  -10.0900  116.4300 H         6 CUB7        0.0000 
     77 DU        -21.1100  -12.2000  116.6400 H         6 CUB7        0.0000 
     78 DU        -22.1300  -11.1000  116.7200 H         6 CUB7        0.0000 
     79 DU        -22.1800  -13.2100  116.9300 H         6 CUB7        0.0000 
     80 DU        -23.2000  -12.1200  117.0100 H         6 CUB7        0.0000 
     81 DU        -22.2200  -15.3200  117.1400 H         6 CUB7        0.0000 
     82 DU        -24.2600  -13.1300  117.3000 H         6 CUB7        0.0000 
     83 DU        -19.6900   -6.8200  117.4000 H         6 CUB7        0.0000 
     84 DU        -22.9800  -14.0900  118.6900 H         6 CUB7        0.0000 
@<TRIPOS>BOND
@<TRIPOS>SUBSTRUCTURE
     1 SER1        1 GROUP   
     2 ALA2       10 GROUP   
     3 ASP3       31 GROUP   
     4 LYS4       35 GROUP   
     5 GLY6       42 GROUP   
     6 CUB7       70 GROUP   
@<TRIPOS>SET

