#    Name: 5mpm_1_CZA
#    Modification time : Fri May 22 19:20:52 2020

@<TRIPOS>MOLECULE
5mpm_1_CZA
   25    29     1     0     0
SMALL
NO_CHARGES


@<TRIPOS>ATOM
      1 O2        -18.3410   20.3890  -49.4000 O.2       1 CZA1002     0.0000 
      2 C6        -18.2670   19.1970  -49.6880 C.2       1 CZA1002     0.0000 
      3 C3        -17.1310   18.2830  -49.5670 C.2       1 CZA1002     0.0000 
      4 C2        -15.7870   18.7400  -49.1530 C.2       1 CZA1002     0.0000 
      5 O1        -15.4220   19.9090  -49.2770 O.2       1 CZA1002     0.0000 
      6 C1        -14.9070   17.8040  -48.3240 C.3       1 CZA1002     0.0000 
      7 C5        -19.3810   18.3950  -50.3250 C.3       1 CZA1002     0.0000 
      8 C7        -20.6560   18.1310  -49.5340 C.3       1 CZA1002     0.0000 
      9 C15       -21.7240   19.1750  -49.4640 C.2       1 CZA1002     0.0000 
     10 C16       -21.9150   20.2710  -48.6970 C.2       1 CZA1002     0.0000 
     11 N2        -23.1140   20.8690  -49.0800 N.pl3     1 CZA1002     0.0000 
     12 C17       -23.7330   20.1690  -50.1090 C.ar      1 CZA1002     0.0000 
     13 C14       -22.8400   19.1000  -50.3370 C.ar      1 CZA1002     0.0000 
     14 C18       -24.9090   20.2860  -50.8690 C.ar      1 CZA1002     0.0000 
     15 C19       -25.1750   19.3190  -51.8630 C.ar      1 CZA1002     0.0000 
     16 C20       -24.2750   18.2540  -52.0840 C.ar      1 CZA1002     0.0000 
     17 C13       -23.0990   18.1470  -51.3170 C.ar      1 CZA1002     0.0000 
     18 C12       -22.0970   17.0210  -51.4990 C.3       1 CZA1002     0.0000 
     19 C8        -21.1410   16.8190  -50.2540 C.3       1 CZA1002     0.0000 
     20 C9        -19.8360   15.9980  -50.4820 C.3       1 CZA1002     0.0000 
     21 C10       -19.7390   14.8270  -49.4820 C.3       1 CZA1002     0.0000 
     22 C11       -19.6920   15.4450  -51.8900 C.3       1 CZA1002     0.0000 
     23 N1        -18.8340   17.0530  -50.2980 N.4       1 CZA1002     0.0000 
     24 C4        -17.5300   17.0430  -49.9420 C.2       1 CZA1002     0.0000 
     25 O3        -16.7530   15.9120  -49.9730 O.co2     1 CZA1002     0.0000 
@<TRIPOS>BOND
     1    1    2 2    
     2    2    3 1    
     3    2    7 1    
     4    3    4 1    
     5    3   24 2    
     6    4    5 2    
     7    4    6 1    
     8    7    8 1    
     9    7   23 1    
    10    8    9 1    
    11    8   19 1    
    12    9   10 2    
    13    9   13 1    
    14   10   11 1    
    15   11   12 1    
    16   12   13 ar   
    17   12   14 ar   
    18   13   17 ar   
    19   14   15 ar   
    20   15   16 ar   
    21   16   17 ar   
    22   17   18 1    
    23   18   19 1    
    24   19   20 1    
    25   20   21 1    
    26   20   22 1    
    27   20   23 1    
    28   23   24 1    
    29   24   25 ar   
@<TRIPOS>SUBSTRUCTURE
     1 CZA1002     1 GROUP   
@<TRIPOS>SET

