#    Name: 6mo6_4_FAD
#    Modification time : Fri May 22 19:24:35 2020

@<TRIPOS>MOLECULE
6mo6_4_FAD
   53    58     1     0     1
SMALL
NO_CHARGES


@<TRIPOS>ATOM
      1 PA          2.0480  108.3330   75.6850 P.3       1 FAD501      0.0000 
      2 O1A         2.6860  107.3650   74.7600 O.co2     1 FAD501      0.0000 
      3 O2A         1.3590  107.6890   76.8930 O.co2     1 FAD501      0.0000 
      4 O5B         3.0870  109.4240   76.1510 O.3       1 FAD501      0.0000 
      5 C5B         2.7720  110.3610   77.2020 C.3       1 FAD501      0.0000 
      6 C4B         4.0370  110.6580   77.9660 C.3       1 FAD501      0.0000 
      7 O4B         3.9070  111.9160   78.6670 O.3       1 FAD501      0.0000 
      8 C3B         4.4310  109.6080   79.0100 C.3       1 FAD501      0.0000 
      9 O3B         5.7580  109.1450   78.7860 O.3       1 FAD501      0.0000 
     10 C2B         4.2990  110.3530   80.3450 C.3       1 FAD501      0.0000 
     11 O2B         5.2810  109.9330   81.2850 O.3       1 FAD501      0.0000 
     12 C1B         4.5510  111.7920   79.9110 C.3       1 FAD501      0.0000 
     13 N9A         4.0230  112.8070   80.8190 N.pl3     1 FAD501      0.0000 
     14 C8A         2.7980  112.8240   81.4300 C.2       1 FAD501      0.0000 
     15 N7A         2.5990  113.8660   82.2020 N.2       1 FAD501      0.0000 
     16 C5A         3.7800  114.5860   82.0910 C.ar      1 FAD501      0.0000 
     17 C6A         4.2110  115.7980   82.6630 C.ar      1 FAD501      0.0000 
     18 N6A         3.4710  116.5320   83.4980 N.pl3     1 FAD501      0.0000 
     19 N1A         5.4490  116.2370   82.3430 N.ar      1 FAD501      0.0000 
     20 C2A         6.1950  115.5090   81.5090 C.ar      1 FAD501      0.0000 
     21 N3A         5.8950  114.3550   80.9090 N.ar      1 FAD501      0.0000 
     22 C4A         4.6670  113.9430   81.2440 C.ar      1 FAD501      0.0000 
     23 N1         -2.9270  102.2810   70.1910 N.2       1 FAD501      0.0000 
     24 C2         -2.9460  101.7130   68.9510 C.2       1 FAD501      0.0000 
     25 O2         -2.8010  102.3870   67.9250 O.2       1 FAD501      0.0000 
     26 N3         -3.1320  100.3460   68.8260 N.am      1 FAD501      0.0000 
     27 C4         -3.3060   99.4510   69.8620 C.2       1 FAD501      0.0000 
     28 O4         -3.4620   98.2540   69.6270 O.2       1 FAD501      0.0000 
     29 C4X        -3.2860  100.0650   71.1740 C.2       1 FAD501      0.0000 
     30 N5         -3.4440   99.2950   72.2140 N.2       1 FAD501      0.0000 
     31 C5X        -3.4200   99.8820   73.4690 C.ar      1 FAD501      0.0000 
     32 C6         -3.5870   99.0730   74.5910 C.ar      1 FAD501      0.0000 
     33 C7         -3.5730   99.6150   75.8720 C.ar      1 FAD501      0.0000 
     34 C7M        -3.7570   98.7100   77.0620 C.3       1 FAD501      0.0000 
     35 C8         -3.3870  100.9970   76.0380 C.ar      1 FAD501      0.0000 
     36 C8M        -3.3630  101.6170   77.4090 C.3       1 FAD501      0.0000 
     37 C9         -3.2220  101.8080   74.9190 C.ar      1 FAD501      0.0000 
     38 C9A        -3.2360  101.2620   73.6420 C.ar      1 FAD501      0.0000 
     39 N10        -3.0570  102.0550   72.4890 N.pl3     1 FAD501      0.0000 
     40 C10        -3.0880  101.4910   71.2380 C.2       1 FAD501      0.0000 
     41 C1'        -2.8880  103.5110   72.5970 C.3       1 FAD501      0.0000 
     42 C2'        -1.4360  103.9550   72.7020 C.3       1 FAD501      0.0000 
     43 O2'        -0.7820  103.2690   73.7710 O.3       1 FAD501      0.0000 
     44 C3'        -1.4030  105.4570   72.9840 C.3       1 FAD501      0.0000 
     45 O3'        -2.4710  106.0760   72.2750 O.3       1 FAD501      0.0000 
     46 C4'        -0.0980  106.1570   72.6080 C.3       1 FAD501      0.0000 
     47 O4'         0.8830  105.8920   73.6110 O.3       1 FAD501      0.0000 
     48 C5'        -0.2900  107.6480   72.4270 C.3       1 FAD501      0.0000 
     49 O5'         0.9790  108.3120   72.6020 O.3       1 FAD501      0.0000 
     50 P           1.0910  109.6600   73.4070 P.3       1 FAD501      0.0000 
     51 O1P         2.4910  110.2540   73.2190 O.co2     1 FAD501      0.0000 
     52 O2P        -0.0370  110.5610   73.0600 O.co2     1 FAD501      0.0000 
     53 O3P         0.9570  109.1840   74.9120 O.3       1 FAD501      0.0000 
@<TRIPOS>BOND
     1    1    2 ar   
     2    1    3 ar   
     3    1    4 1    
     4    1   53 1    
     5    4    5 1    
     6    5    6 1    
     7    6    7 1    
     8    6    8 1    
     9    7   12 1    
    10    8    9 1    
    11    8   10 1    
    12   10   11 1    
    13   10   12 1    
    14   12   13 1    
    15   13   14 1    
    16   13   22 1    
    17   14   15 2    
    18   15   16 1    
    19   16   17 ar   
    20   16   22 ar   
    21   17   18 1    
    22   17   19 ar   
    23   19   20 ar   
    24   20   21 ar   
    25   21   22 ar   
    26   23   24 1    
    27   23   40 2    
    28   24   25 2    
    29   24   26 am   
    30   26   27 am   
    31   27   28 2    
    32   27   29 1    
    33   29   30 2    
    34   29   40 1    
    35   30   31 1    
    36   31   32 ar   
    37   31   38 ar   
    38   32   33 ar   
    39   33   34 1    
    40   33   35 ar   
    41   35   36 1    
    42   35   37 ar   
    43   37   38 ar   
    44   38   39 1    
    45   39   40 1    
    46   39   41 1    
    47   41   42 1    
    48   42   43 1    
    49   42   44 1    
    50   44   45 1    
    51   44   46 1    
    52   46   47 1    
    53   46   48 1    
    54   48   49 1    
    55   49   50 1    
    56   50   51 ar   
    57   50   52 ar   
    58   50   53 1    
@<TRIPOS>SUBSTRUCTURE
     1 FAD501      1 GROUP   
@<TRIPOS>SET
ATOM$ORANGE STATIC     ATOMS   COLORGROUP SYSTEM 
54 5 5 6 6 8 8 10 10 12 12 14 14 16 16 17 17 20 \
20 22 22 24 24 27 27 29 29 31 31 32 32 33 33 34 34 35 \
35 36 36 37 37 38 38 40 40 41 41 42 42 44 44 46 46 48 \
48 

