#    Name: 6mo6_1_FAD
#    Modification time : Fri May 22 19:24:20 2020

@<TRIPOS>MOLECULE
6mo6_1_FAD
   53    58     1     0     1
SMALL
NO_CHARGES


@<TRIPOS>ATOM
      1 PA         -5.6580  126.0330  112.0100 P.3       1 FAD501      0.0000 
      2 O1A        -5.4000  127.2600  112.8040 O.co2     1 FAD501      0.0000 
      3 O2A        -6.7450  126.1920  110.9410 O.co2     1 FAD501      0.0000 
      4 O5B        -4.3210  125.4930  111.3750 O.3       1 FAD501      0.0000 
      5 C5B        -4.3360  124.5340  110.2960 C.3       1 FAD501      0.0000 
      6 C4B        -3.1180  124.7700  109.4380 C.3       1 FAD501      0.0000 
      7 O4B        -2.6980  123.5300  108.8250 O.3       1 FAD501      0.0000 
      8 C3B        -3.3030  125.7850  108.3060 C.3       1 FAD501      0.0000 
      9 O3B        -2.3180  126.8090  108.3760 O.3       1 FAD501      0.0000 
     10 C2B        -3.1680  124.9400  107.0330 C.3       1 FAD501      0.0000 
     11 O2B        -2.5420  125.6620  105.9780 O.3       1 FAD501      0.0000 
     12 C1B        -2.2680  123.8090  107.5150 C.3       1 FAD501      0.0000 
     13 N9A        -2.3500  122.5880  106.7200 N.pl3     1 FAD501      0.0000 
     14 C8A        -3.4810  121.9790  106.2440 C.2       1 FAD501      0.0000 
     15 N7A        -3.2500  120.8900  105.5480 N.2       1 FAD501      0.0000 
     16 C5A        -1.8680  120.7780  105.5650 C.ar      1 FAD501      0.0000 
     17 C6A        -0.9850  119.8330  105.0060 C.ar      1 FAD501      0.0000 
     18 N6A        -1.3800  118.7760  104.2910 N.pl3     1 FAD501      0.0000 
     19 N1A         0.3380  120.0140  105.2120 N.ar      1 FAD501      0.0000 
     20 C2A         0.7410  121.0680  105.9270 C.ar      1 FAD501      0.0000 
     21 N3A         0.0040  122.0210  106.5010 N.ar      1 FAD501      0.0000 
     22 C4A        -1.3000  121.8180  106.2810 C.ar      1 FAD501      0.0000 
     23 N1        -12.2610  129.6370  118.0430 N.2       1 FAD501      0.0000 
     24 C2        -12.3750  130.2500  119.2580 C.2       1 FAD501      0.0000 
     25 O2        -11.7960  129.8200  120.2620 O.2       1 FAD501      0.0000 
     26 N3        -13.1570  131.3860  119.3830 N.am      1 FAD501      0.0000 
     27 C4        -13.8670  131.9980  118.3720 C.2       1 FAD501      0.0000 
     28 O4        -14.5290  133.0080  118.6040 O.2       1 FAD501      0.0000 
     29 C4X       -13.7410  131.3410  117.0860 C.2       1 FAD501      0.0000 
     30 N5        -14.3790  131.8530  116.0730 N.2       1 FAD501      0.0000 
     31 C5X       -14.2570  131.2280  114.8440 C.ar      1 FAD501      0.0000 
     32 C6        -14.9340  131.7640  113.7490 C.ar      1 FAD501      0.0000 
     33 C7        -14.8460  131.1740  112.4930 C.ar      1 FAD501      0.0000 
     34 C7M       -15.5910  131.7810  111.3340 C.3       1 FAD501      0.0000 
     35 C8        -14.0630  130.0200  112.3240 C.ar      1 FAD501      0.0000 
     36 C8M       -13.9420  129.3580  110.9770 C.3       1 FAD501      0.0000 
     37 C9        -13.3860  129.4810  113.4140 C.ar      1 FAD501      0.0000 
     38 C9A       -13.4750  130.0760  114.6670 C.ar      1 FAD501      0.0000 
     39 N10       -12.7910  129.5620  115.7890 N.pl3     1 FAD501      0.0000 
     40 C10       -12.9130  130.1640  117.0190 C.2       1 FAD501      0.0000 
     41 C1'       -11.9830  128.3380  115.6810 C.3       1 FAD501      0.0000 
     42 C2'       -10.5040  128.5930  115.4120 C.3       1 FAD501      0.0000 
     43 O2'       -10.3430  129.4470  114.2800 O.3       1 FAD501      0.0000 
     44 C3'        -9.8210  127.2530  115.1300 C.3       1 FAD501      0.0000 
     45 O3'       -10.3980  126.2660  115.9780 O.3       1 FAD501      0.0000 
     46 C4'        -8.3040  127.2280  115.3190 C.3       1 FAD501      0.0000 
     47 O4'        -7.6790  127.9560  114.2610 O.3       1 FAD501      0.0000 
     48 C5'        -7.7680  125.8130  115.3830 C.3       1 FAD501      0.0000 
     49 O5'        -6.3350  125.8400  115.2200 O.3       1 FAD501      0.0000 
     50 P          -5.5770  124.6870  114.4580 P.3       1 FAD501      0.0000 
     51 O1P        -4.0700  124.9630  114.4610 O.co2     1 FAD501      0.0000 
     52 O2P        -5.9750  123.3610  114.9880 O.co2     1 FAD501      0.0000 
     53 O3P        -6.0970  124.8510  112.9700 O.3       1 FAD501      0.0000 
@<TRIPOS>BOND
     1    1    2 ar   
     2    1    3 ar   
     3    1    4 1    
     4    1   53 1    
     5    4    5 1    
     6    5    6 1    
     7    6    7 1    
     8    6    8 1    
     9    7   12 1    
    10    8    9 1    
    11    8   10 1    
    12   10   11 1    
    13   10   12 1    
    14   12   13 1    
    15   13   14 1    
    16   13   22 1    
    17   14   15 2    
    18   15   16 1    
    19   16   17 ar   
    20   16   22 ar   
    21   17   18 1    
    22   17   19 ar   
    23   19   20 ar   
    24   20   21 ar   
    25   21   22 ar   
    26   23   24 1    
    27   23   40 2    
    28   24   25 2    
    29   24   26 am   
    30   26   27 am   
    31   27   28 2    
    32   27   29 1    
    33   29   30 2    
    34   29   40 1    
    35   30   31 1    
    36   31   32 ar   
    37   31   38 ar   
    38   32   33 ar   
    39   33   34 1    
    40   33   35 ar   
    41   35   36 1    
    42   35   37 ar   
    43   37   38 ar   
    44   38   39 1    
    45   39   40 1    
    46   39   41 1    
    47   41   42 1    
    48   42   43 1    
    49   42   44 1    
    50   44   45 1    
    51   44   46 1    
    52   46   47 1    
    53   46   48 1    
    54   48   49 1    
    55   49   50 1    
    56   50   51 ar   
    57   50   52 ar   
    58   50   53 1    
@<TRIPOS>SUBSTRUCTURE
     1 FAD501      1 GROUP   
@<TRIPOS>SET
ATOM$ORANGE STATIC     ATOMS   COLORGROUP SYSTEM 
54 5 5 6 6 8 8 10 10 12 12 14 14 16 16 17 17 20 \
20 22 22 24 24 27 27 29 29 31 31 32 32 33 33 34 34 35 \
35 36 36 37 37 38 38 40 40 41 41 42 42 44 44 46 46 48 \
48 

