#    Name: 6mo6_2_FAD
#    Modification time : Fri May 22 19:24:25 2020

@<TRIPOS>MOLECULE
6mo6_2_FAD
   53    58     1     0     1
SMALL
NO_CHARGES


@<TRIPOS>ATOM
      1 PA         43.7680   49.4730   68.3940 P.3       1 FAD501      0.0000 
      2 O1A        43.0320   50.6170   67.8010 O.co2     1 FAD501      0.0000 
      3 O2A        44.6050   49.8140   69.6310 O.co2     1 FAD501      0.0000 
      4 O5B        42.7780   48.2930   68.7230 O.3       1 FAD501      0.0000 
      5 C5B        43.1250   47.2680   69.6780 C.3       1 FAD501      0.0000 
      6 C4B        41.8720   46.8380   70.3990 C.3       1 FAD501      0.0000 
      7 O4B        41.9970   45.4610   70.8220 O.3       1 FAD501      0.0000 
      8 C3B        41.5270   47.6550   71.6470 C.3       1 FAD501      0.0000 
      9 O3B        40.1730   48.0900   71.6130 O.3       1 FAD501      0.0000 
     10 C2B        41.8000   46.6810   72.8000 C.3       1 FAD501      0.0000 
     11 O2B        40.9210   46.8900   73.9000 O.3       1 FAD501      0.0000 
     12 C1B        41.5050   45.3410   72.1360 C.3       1 FAD501      0.0000 
     13 N9A        42.1470   44.1970   72.7770 N.pl3     1 FAD501      0.0000 
     14 C8A        43.4380   44.1140   73.2260 C.2       1 FAD501      0.0000 
     15 N7A        43.7430   42.9600   73.7710 N.2       1 FAD501      0.0000 
     16 C5A        42.5660   42.2320   73.6760 C.ar      1 FAD501      0.0000 
     17 C6A        42.2230   40.9240   74.0720 C.ar      1 FAD501      0.0000 
     18 N6A        43.0700   40.0810   74.6690 N.pl3     1 FAD501      0.0000 
     19 N1A        40.9600   40.5060   73.8300 N.ar      1 FAD501      0.0000 
     20 C2A        40.1080   41.3440   73.2330 C.ar      1 FAD501      0.0000 
     21 N3A        40.3180   42.5940   72.8150 N.ar      1 FAD501      0.0000 
     22 C4A        41.5730   42.9830   73.0680 C.ar      1 FAD501      0.0000 
     23 N1         48.0710   56.5000   63.6370 N.2       1 FAD501      0.0000 
     24 C2         47.9650   57.2660   62.5120 C.2       1 FAD501      0.0000 
     25 O2         47.7140   56.7700   61.4080 O.2       1 FAD501      0.0000 
     26 N3         48.1410   58.6370   62.5960 N.am      1 FAD501      0.0000 
     27 C4         48.4230   59.3510   63.7410 C.2       1 FAD501      0.0000 
     28 O4         48.5580   60.5720   63.6900 O.2       1 FAD501      0.0000 
     29 C4X        48.5350   58.5290   64.9300 C.2       1 FAD501      0.0000 
     30 N5         48.8010   59.1220   66.0600 N.2       1 FAD501      0.0000 
     31 C5X        48.9030   58.3380   67.1980 C.ar      1 FAD501      0.0000 
     32 C6         49.1860   58.9560   68.4140 C.ar      1 FAD501      0.0000 
     33 C7         49.3000   58.2130   69.5850 C.ar      1 FAD501      0.0000 
     34 C7M        49.6080   58.9150   70.8810 C.3       1 FAD501      0.0000 
     35 C8         49.1290   56.8190   69.5400 C.ar      1 FAD501      0.0000 
     36 C8M        49.2410   55.9860   70.7880 C.3       1 FAD501      0.0000 
     37 C9         48.8460   56.1990   68.3280 C.ar      1 FAD501      0.0000 
     38 C9A        48.7330   56.9460   67.1620 C.ar      1 FAD501      0.0000 
     39 N10        48.4360   56.3480   65.9200 N.pl3     1 FAD501      0.0000 
     40 C10        48.3400   57.1110   64.7800 C.2       1 FAD501      0.0000 
     41 C1'        48.2740   54.8920   65.8100 C.3       1 FAD501      0.0000 
     42 C2'        46.8240   54.4280   65.8700 C.3       1 FAD501      0.0000 
     43 O2'        46.2080   54.8800   67.0760 O.3       1 FAD501      0.0000 
     44 C3'        46.7950   52.8990   65.8300 C.3       1 FAD501      0.0000 
     45 O3'        47.6970   52.4470   64.8250 O.3       1 FAD501      0.0000 
     46 C4'        45.4200   52.2860   65.5680 C.3       1 FAD501      0.0000 
     47 O4'        44.6840   52.2490   66.7920 O.3       1 FAD501      0.0000 
     48 C5'        45.5190   50.9010   64.9640 C.3       1 FAD501      0.0000 
     49 O5'        44.3180   50.1640   65.2750 O.3       1 FAD501      0.0000 
     50 P          44.3810   48.6730   65.7820 P.3       1 FAD501      0.0000 
     51 O1P        42.9920   48.0350   65.6890 O.co2     1 FAD501      0.0000 
     52 O2P        45.4610   47.9320   65.0860 O.co2     1 FAD501      0.0000 
     53 O3P        44.7420   48.8380   67.3170 O.3       1 FAD501      0.0000 
@<TRIPOS>BOND
     1    1    2 ar   
     2    1    3 ar   
     3    1    4 1    
     4    1   53 1    
     5    4    5 1    
     6    5    6 1    
     7    6    7 1    
     8    6    8 1    
     9    7   12 1    
    10    8    9 1    
    11    8   10 1    
    12   10   11 1    
    13   10   12 1    
    14   12   13 1    
    15   13   14 1    
    16   13   22 1    
    17   14   15 2    
    18   15   16 1    
    19   16   17 ar   
    20   16   22 ar   
    21   17   18 1    
    22   17   19 ar   
    23   19   20 ar   
    24   20   21 ar   
    25   21   22 ar   
    26   23   24 1    
    27   23   40 2    
    28   24   25 2    
    29   24   26 am   
    30   26   27 am   
    31   27   28 2    
    32   27   29 1    
    33   29   30 2    
    34   29   40 1    
    35   30   31 1    
    36   31   32 ar   
    37   31   38 ar   
    38   32   33 ar   
    39   33   34 1    
    40   33   35 ar   
    41   35   36 1    
    42   35   37 ar   
    43   37   38 ar   
    44   38   39 1    
    45   39   40 1    
    46   39   41 1    
    47   41   42 1    
    48   42   43 1    
    49   42   44 1    
    50   44   45 1    
    51   44   46 1    
    52   46   47 1    
    53   46   48 1    
    54   48   49 1    
    55   49   50 1    
    56   50   51 ar   
    57   50   52 ar   
    58   50   53 1    
@<TRIPOS>SUBSTRUCTURE
     1 FAD501      1 GROUP   
@<TRIPOS>SET
ATOM$ORANGE STATIC     ATOMS   COLORGROUP SYSTEM 
54 5 5 6 6 8 8 10 10 12 12 14 14 16 16 17 17 20 \
20 22 22 24 24 27 27 29 29 31 31 32 32 33 33 34 34 35 \
35 36 36 37 37 38 38 40 40 41 41 42 42 44 44 46 46 48 \
48 

