#    Name: 6mo6_3_FAD
#    Modification time : Fri May 22 19:24:29 2020

@<TRIPOS>MOLECULE
6mo6_3_FAD
   53    58     1     0     1
SMALL
NO_CHARGES


@<TRIPOS>ATOM
      1 PA         52.7780   99.6400   72.5240 P.3       1 FAD501      0.0000 
      2 O1A        51.7230   98.9330   71.7570 O.co2     1 FAD501      0.0000 
      3 O2A        52.3040  100.2730   73.8370 O.co2     1 FAD501      0.0000 
      4 O5B        53.9980   98.6900   72.7990 O.3       1 FAD501      0.0000 
      5 C5B        54.8900   98.9160   73.9100 C.3       1 FAD501      0.0000 
      6 C4B        55.3010   97.5790   74.4730 C.3       1 FAD501      0.0000 
      7 O4B        56.6500   97.6590   74.9890 O.3       1 FAD501      0.0000 
      8 C3B        54.4230   97.0540   75.6120 C.3       1 FAD501      0.0000 
      9 O3B        54.0130   95.7140   75.3650 O.3       1 FAD501      0.0000 
     10 C2B        55.3260   97.1700   76.8460 C.3       1 FAD501      0.0000 
     11 O2B        55.0680   96.1410   77.7950 O.3       1 FAD501      0.0000 
     12 C1B        56.7050   96.9860   76.2240 C.3       1 FAD501      0.0000 
     13 N9A        57.8030   97.5410   77.0100 N.pl3     1 FAD501      0.0000 
     14 C8A        57.8350   98.7480   77.6560 C.2       1 FAD501      0.0000 
     15 N7A        58.9580   98.9870   78.2900 N.2       1 FAD501      0.0000 
     16 C5A        59.7200   97.8540   78.0440 C.ar      1 FAD501      0.0000 
     17 C6A        61.0200   97.4790   78.4370 C.ar      1 FAD501      0.0000 
     18 N6A        61.8170   98.2380   79.1940 N.pl3     1 FAD501      0.0000 
     19 N1A        61.4800   96.2790   78.0190 N.ar      1 FAD501      0.0000 
     20 C2A        60.6890   95.5150   77.2610 C.ar      1 FAD501      0.0000 
     21 N3A        59.4500   95.7620   76.8290 N.ar      1 FAD501      0.0000 
     22 C4A        59.0200   96.9550   77.2570 C.ar      1 FAD501      0.0000 
     23 N1         45.8950  104.5890   67.9070 N.2       1 FAD501      0.0000 
     24 C2         45.1520  104.6430   66.7620 C.2       1 FAD501      0.0000 
     25 O2         45.6750  104.5860   65.6450 O.2       1 FAD501      0.0000 
     26 N3         43.7750  104.7640   66.8430 N.am      1 FAD501      0.0000 
     27 C4         43.0330  104.8390   68.0030 C.2       1 FAD501      0.0000 
     28 O4         41.8090  104.9450   67.9510 O.2       1 FAD501      0.0000 
     29 C4X        43.8300  104.7830   69.2130 C.2       1 FAD501      0.0000 
     30 N5         43.2110  104.8490   70.3550 N.2       1 FAD501      0.0000 
     31 C5X        43.9700  104.7900   71.5110 C.ar      1 FAD501      0.0000 
     32 C6         43.3200  104.8580   72.7430 C.ar      1 FAD501      0.0000 
     33 C7         44.0370  104.8060   73.9330 C.ar      1 FAD501      0.0000 
     34 C7M        43.3010  104.8830   75.2450 C.3       1 FAD501      0.0000 
     35 C8         45.4360  104.6830   73.8950 C.ar      1 FAD501      0.0000 
     36 C8M        46.2430  104.6210   75.1640 C.3       1 FAD501      0.0000 
     37 C9         46.0870  104.6170   72.6680 C.ar      1 FAD501      0.0000 
     38 C9A        45.3670  104.6670   71.4810 C.ar      1 FAD501      0.0000 
     39 N10        45.9960  104.5900   70.2210 N.pl3     1 FAD501      0.0000 
     40 C10        45.2570  104.6550   69.0640 C.2       1 FAD501      0.0000 
     41 C1'        47.4580  104.4880   70.1160 C.3       1 FAD501      0.0000 
     42 C2'        47.9760  103.0550   70.0950 C.3       1 FAD501      0.0000 
     43 O2'        47.4140  102.3010   71.1690 O.3       1 FAD501      0.0000 
     44 C3'        49.4980  103.0800   70.2470 C.3       1 FAD501      0.0000 
     45 O3'        50.0130  104.1960   69.5290 O.3       1 FAD501      0.0000 
     46 C4'        50.2170  101.8210   69.7640 C.3       1 FAD501      0.0000 
     47 O4'        50.0920  100.7960   70.7500 O.3       1 FAD501      0.0000 
     48 C5'        51.6750  102.0900   69.4570 C.3       1 FAD501      0.0000 
     49 O5'        52.3830  100.8350   69.3940 O.3       1 FAD501      0.0000 
     50 P          53.7770  100.6480   70.1010 P.3       1 FAD501      0.0000 
     51 O1P        54.2880   99.2230   69.8670 O.co2     1 FAD501      0.0000 
     52 O2P        54.7040  101.7380   69.6950 O.co2     1 FAD501      0.0000 
     53 O3P        53.4110  100.7920   71.6370 O.3       1 FAD501      0.0000 
@<TRIPOS>BOND
     1    1    2 ar   
     2    1    3 ar   
     3    1    4 1    
     4    1   53 1    
     5    4    5 1    
     6    5    6 1    
     7    6    7 1    
     8    6    8 1    
     9    7   12 1    
    10    8    9 1    
    11    8   10 1    
    12   10   11 1    
    13   10   12 1    
    14   12   13 1    
    15   13   14 1    
    16   13   22 1    
    17   14   15 2    
    18   15   16 1    
    19   16   17 ar   
    20   16   22 ar   
    21   17   18 1    
    22   17   19 ar   
    23   19   20 ar   
    24   20   21 ar   
    25   21   22 ar   
    26   23   24 1    
    27   23   40 2    
    28   24   25 2    
    29   24   26 am   
    30   26   27 am   
    31   27   28 2    
    32   27   29 1    
    33   29   30 2    
    34   29   40 1    
    35   30   31 1    
    36   31   32 ar   
    37   31   38 ar   
    38   32   33 ar   
    39   33   34 1    
    40   33   35 ar   
    41   35   36 1    
    42   35   37 ar   
    43   37   38 ar   
    44   38   39 1    
    45   39   40 1    
    46   39   41 1    
    47   41   42 1    
    48   42   43 1    
    49   42   44 1    
    50   44   45 1    
    51   44   46 1    
    52   46   47 1    
    53   46   48 1    
    54   48   49 1    
    55   49   50 1    
    56   50   51 ar   
    57   50   52 ar   
    58   50   53 1    
@<TRIPOS>SUBSTRUCTURE
     1 FAD501      1 GROUP   
@<TRIPOS>SET
ATOM$ORANGE STATIC     ATOMS   COLORGROUP SYSTEM 
54 5 5 6 6 8 8 10 10 12 12 14 14 16 16 17 17 20 \
20 22 22 24 24 27 27 29 29 31 31 32 32 33 33 34 34 35 \
35 36 36 37 37 38 38 40 40 41 41 42 42 44 44 46 46 48 \
48 

