#    Name: 6d32_2_CY8
#    Modification time : Fri May 22 19:24:16 2020

@<TRIPOS>MOLECULE
6d32_2_CY8
   30    35     1     0     0
SMALL
NO_CHARGES


@<TRIPOS>ATOM
      1 O01        16.6950  -38.4360   24.7270           1 CY81202     0.0000 
      2 O02        18.8380  -44.5150   15.9160           1 CY81202     0.0000 
      3 N03        14.5990  -38.1060   27.5870           1 CY81202     0.0000 
      4 C04        16.6260  -42.2730   20.6590           1 CY81202     0.0000 
      5 C05        15.9230  -40.9450   20.4590           1 CY81202     0.0000 
      6 C06        15.3190  -40.6500   21.8200           1 CY81202     0.0000 
      7 C07        17.5880  -42.5450   19.5180           1 CY81202     0.0000 
      8 C08        15.8260  -39.5560   24.5290           1 CY81202     0.0000 
      9 C09        16.3890  -41.1750   22.7190           1 CY81202     0.0000 
     10 C10        17.2410  -42.2320   22.0570           1 CY81202     0.0000 
     11 C11        15.1080  -39.1850   22.1360           1 CY81202     0.0000 
     12 C12        15.2940  -39.9060   25.9190           1 CY81202     0.0000 
     13 C13        14.7010  -39.1100   23.5990           1 CY81202     0.0000 
     14 C14        16.5830  -40.7440   23.9680           1 CY81202     0.0000 
     15 C15        14.9640  -41.0710   19.2910           1 CY81202     0.0000 
     16 C16        15.6670  -38.7040   26.7710           1 CY81202     0.0000 
     17 C17        16.9210  -42.2390   18.1930           1 CY81202     0.0000 
     18 C18        16.0390  -37.6720   25.7370           1 CY81202     0.0000 
     19 C19        17.9970  -44.0110   19.5430           1 CY81202     0.0000 
     20 C20        15.7620  -41.5510   18.0950           1 CY81202     0.0000 
     21 C21        18.8090  -41.6440   19.6640           1 CY81202     0.0000 
     22 C22        17.6010  -42.6960   16.9220           1 CY81202     0.0000 
     23 C23        18.8300  -44.3620   18.3190           1 CY81202     0.0000 
     24 C24        16.8120  -36.5630   26.4280           1 CY81202     0.0000 
     25 C25        18.0280  -44.1560   17.0410           1 CY81202     0.0000 
     26 C26        13.8040  -40.2180   25.9470           1 CY81202     0.0000 
     27 C27        17.5790  -41.4490   24.8410           1 CY81202     0.0000 
     28 C28        15.8330  -35.9220   27.4140           1 CY81202     0.0000 
     29 C29        15.1930  -36.9730   28.3330           1 CY81202     0.0000 
     30 C30        16.5110  -34.8270   28.2290           1 CY81202     0.0000 
@<TRIPOS>BOND
     1    1    8 du   
     2    1   18 du   
     3    2   25 du   
     4    3   16 du   
     5    3   29 du   
     6    4    5 du   
     7    4    7 du   
     8    4   10 du   
     9    5    6 du   
    10    5   15 du   
    11    6    9 du   
    12    6   11 du   
    13    7   17 du   
    14    7   19 du   
    15    7   21 du   
    16    8   12 du   
    17    8   13 du   
    18    8   14 du   
    19    9   10 du   
    20    9   14 du   
    21   11   13 du   
    22   12   16 du   
    23   12   26 du   
    24   14   27 du   
    25   15   20 du   
    26   16   18 du   
    27   17   20 du   
    28   17   22 du   
    29   18   24 du   
    30   19   23 du   
    31   22   25 du   
    32   23   25 du   
    33   24   28 du   
    34   28   29 du   
    35   28   30 du   
@<TRIPOS>SUBSTRUCTURE
     1 CY81202     1 GROUP   
@<TRIPOS>SET

