#    Name: 6d32_1_CY8
#    Modification time : Fri May 22 19:24:10 2020

@<TRIPOS>MOLECULE
6d32_1_CY8
   30    35     1     0     0
SMALL
NO_CHARGES


@<TRIPOS>ATOM
      1 O01        12.5730  -11.8960   53.2660           1 CY81201     0.0000 
      2 O02         4.6570  -18.3050   53.7370           1 CY81201     0.0000 
      3 N03        15.5340  -10.2210   52.1750           1 CY81201     0.0000 
      4 C04         9.8550  -16.0700   53.4920           1 CY81201     0.0000 
      5 C05        10.3830  -15.4450   54.7740           1 CY81201     0.0000 
      6 C06        11.8500  -15.1690   54.4970           1 CY81201     0.0000 
      7 C07         8.3360  -16.0680   53.4730           1 CY81201     0.0000 
      8 C08        13.4260  -13.0480   53.1830           1 CY81201     0.0000 
      9 C09        11.7740  -14.8360   53.0420           1 CY81201     0.0000 
     10 C10        10.5370  -15.3430   52.3400           1 CY81201     0.0000 
     11 C11        12.4420  -14.0010   55.2770           1 CY81201     0.0000 
     12 C12        14.6660  -12.6320   52.3900           1 CY81201     0.0000 
     13 C13        13.7250  -13.5230   54.6010           1 CY81201     0.0000 
     14 C14        12.7200  -14.1440   52.4310           1 CY81201     0.0000 
     15 C15        10.0910  -16.3750   55.9330           1 CY81201     0.0000 
     16 C16        14.4110  -11.1650   52.0820           1 CY81201     0.0000 
     17 C17         7.8410  -16.6360   54.7930           1 CY81201     0.0000 
     18 C18        13.4060  -10.7490   53.1260           1 CY81201     0.0000 
     19 C19         7.8260  -16.9090   52.3080           1 CY81201     0.0000 
     20 C20         8.6090  -16.6850   55.9060           1 CY81201     0.0000 
     21 C21         7.8200  -14.6410   53.3220           1 CY81201     0.0000 
     22 C22         6.4260  -17.1580   54.9080           1 CY81201     0.0000 
     23 C23         6.3240  -17.1250   52.4300           1 CY81201     0.0000 
     24 C24        12.7410   -9.4740   52.6380           1 CY81201     0.0000 
     25 C25         6.0460  -17.9620   53.6710           1 CY81201     0.0000 
     26 C26        15.9850  -12.9280   53.0880           1 CY81201     0.0000 
     27 C27        13.0690  -14.4670   51.0080           1 CY81201     0.0000 
     28 C28        13.8340   -8.4120   52.4980           1 CY81201     0.0000 
     29 C29        15.0240   -8.9230   51.6740           1 CY81201     0.0000 
     30 C30        13.2700   -7.1240   51.9040           1 CY81201     0.0000 
@<TRIPOS>BOND
     1    1    8 du   
     2    1   18 du   
     3    2   25 du   
     4    3   16 du   
     5    3   29 du   
     6    4    5 du   
     7    4    7 du   
     8    4   10 du   
     9    5    6 du   
    10    5   15 du   
    11    6    9 du   
    12    6   11 du   
    13    7   17 du   
    14    7   19 du   
    15    7   21 du   
    16    8   12 du   
    17    8   13 du   
    18    8   14 du   
    19    9   10 du   
    20    9   14 du   
    21   11   13 du   
    22   12   16 du   
    23   12   26 du   
    24   14   27 du   
    25   15   20 du   
    26   16   18 du   
    27   17   20 du   
    28   17   22 du   
    29   18   24 du   
    30   19   23 du   
    31   22   25 du   
    32   23   25 du   
    33   24   28 du   
    34   28   29 du   
    35   28   30 du   
@<TRIPOS>SUBSTRUCTURE
     1 CY81201     1 GROUP   
@<TRIPOS>SET

