#    Name: 5oxf_3_GDP
#    Modification time : Fri May 22 19:12:31 2020

@<TRIPOS>MOLECULE
5oxf_3_GDP
   28    30     1     0     1
SMALL
NO_CHARGES


@<TRIPOS>ATOM
      1 PB          1.3110   31.6740  -93.9440 P.3       1 GDP1000     0.0000 
      2 O1B         1.1730   30.1820  -94.1000 O.co2     1 GDP1000     0.0000 
      3 O2B         0.1770   32.2450  -93.1270 O.co2     1 GDP1000     0.0000 
      4 O3B         2.6420   32.0050  -93.3120 O.co2     1 GDP1000     0.0000 
      5 O3A         1.2740   32.3460  -95.3990 O.3       1 GDP1000     0.0000 
      6 PA          0.1390   32.0290  -96.4930 P.3       1 GDP1000     0.0000 
      7 O1A         0.4350   30.7400  -97.2220 O.co2     1 GDP1000     0.0000 
      8 O2A        -1.2230   31.9840  -95.8420 O.co2     1 GDP1000     0.0000 
      9 O5'         0.2010   33.2400  -97.5430 O.3       1 GDP1000     0.0000 
     10 C5'         0.0340   34.5750  -97.0740 C.3       1 GDP1000     0.0000 
     11 C4'        -0.1940   35.4610  -98.2840 C.3       1 GDP1000     0.0000 
     12 O4'         1.0690   35.8870  -98.8010 O.3       1 GDP1000     0.0000 
     13 C3'        -0.9030   34.6620  -99.3700 C.3       1 GDP1000     0.0000 
     14 O3'        -2.1600   35.2430  -99.7310 O.3       1 GDP1000     0.0000 
     15 C2'         0.0400   34.6700 -100.5530 C.3       1 GDP1000     0.0000 
     16 O2'        -0.6610   34.9860 -101.7600 O.3       1 GDP1000     0.0000 
     17 C1'         1.0990   35.7090 -100.2150 C.3       1 GDP1000     0.0000 
     18 N9          2.3770   35.1240 -100.6670 N.pl3     1 GDP1000     0.0000 
     19 C8          3.0840   34.1620 -100.0430 C.2       1 GDP1000     0.0000 
     20 N7          4.1970   33.8430 -100.7490 N.2       1 GDP1000     0.0000 
     21 C5          4.1980   34.6120 -101.8530 C.2       1 GDP1000     0.0000 
     22 C6          5.0770   34.7900 -103.0250 C.2       1 GDP1000     0.0000 
     23 O6          6.1090   34.1000 -103.1330 O.2       1 GDP1000     0.0000 
     24 N1          4.7260   35.6930 -103.9530 N.am      1 GDP1000     0.0000 
     25 C2          3.6060   36.4360 -103.8470 C.2       1 GDP1000     0.0000 
     26 N2          3.3080   37.3320 -104.8190 N.pl3     1 GDP1000     0.0000 
     27 N3          2.7540   36.3250 -102.7970 N.2       1 GDP1000     0.0000 
     28 C4          2.9970   35.4490 -101.7960 C.2       1 GDP1000     0.0000 
@<TRIPOS>BOND
     1    1    2 ar   
     2    1    3 ar   
     3    1    4 ar   
     4    1    5 1    
     5    5    6 1    
     6    6    7 ar   
     7    6    8 ar   
     8    6    9 1    
     9    9   10 1    
    10   10   11 1    
    11   11   12 1    
    12   11   13 1    
    13   12   17 1    
    14   13   14 1    
    15   13   15 1    
    16   15   16 1    
    17   15   17 1    
    18   17   18 1    
    19   18   19 1    
    20   18   28 1    
    21   19   20 2    
    22   20   21 1    
    23   21   22 1    
    24   21   28 2    
    25   22   23 2    
    26   22   24 am   
    27   24   25 1    
    28   25   26 1    
    29   25   27 2    
    30   27   28 1    
@<TRIPOS>SUBSTRUCTURE
     1 GDP1000     1 GROUP   
@<TRIPOS>SET
ATOM$ORANGE STATIC     ATOMS   COLORGROUP SYSTEM 
20 10 10 11 11 13 13 15 15 17 17 19 19 21 21 22 22 25 \
25 28 28 

