#    Name: 5oxf_3_GDP_CAVITY_N1_4
#    Modification time : Fri May 22 19:12:32 2020

@<TRIPOS>MOLECULE
5oxf_3_GDP_CAVITY_N1_4
   37     0     4     0     0
SMALL
NO_CHARGES


@<TRIPOS>ATOM
      1 OG          0.1600   31.3400  -98.6800 O.3       1 SER1        0.0000 
      2 OG         -2.3300   29.9900  -91.9000 O.3       1 SER1        0.0000 
      3 OG         -1.7600   31.3700  -93.4100 O.3       1 SER1        0.0000 
      4 OG         -1.1100   30.2000  -92.7400 O.3       1 SER1        0.0000 
      5 OG         -0.5300   31.5800  -94.2400 O.3       1 SER1        0.0000 
      6 OG          0.0500   32.9600  -95.7500 O.3       1 SER1        0.0000 
      7 OG         -0.5500   31.1100  -91.6900 O.3       1 SER1        0.0000 
      8 OG         -0.6200   33.6600  -93.8600 O.3       1 SER1        0.0000 
      9 OG          0.0300   32.4900  -93.1900 O.3       1 SER1        0.0000 
     10 OG          0.6800   31.3200  -92.5200 O.3       1 SER1        0.0000 
     11 OG          1.2600   32.7000  -94.0300 O.3       1 SER1        0.0000 
     12 N          -2.9900   31.1700  -92.5700 N.am      2 ALA2        0.0000 
     13 N          -3.0600   33.7200  -94.7500 N.am      2 ALA2        0.0000 
     14 N          -1.1800   32.7500  -94.9100 N.am      2 ALA2        0.0000 
     15 O           1.3500   30.6100  -94.4100 O.2       2 ALA2        0.0000 
     16 O           1.9100   31.5300  -93.3500 O.2       2 ALA2        0.0000 
     17 N           0.5700   32.9400  -89.5800 N.am      2 ALA2        0.0000 
     18 OD1         0.1100   29.9400  -91.0100 O.co2     3 ASP3        0.0000 
     19 OD1         1.3400   30.1500  -91.8500 O.co2     3 ASP3        0.0000 
     20 OD1         0.6700   30.8500  -89.9600 O.co2     3 ASP3        0.0000 
     21 CA         -2.3200   30.4600  -94.4600 C.3       4 GLY6        0.0000 
     22 CA         -1.7400   31.8400  -95.9600 C.3       4 GLY6        0.0000 
     23 CA         -1.0900   30.6700  -95.2900 C.3       4 GLY6        0.0000 
     24 CA         -0.5100   32.0500  -96.8000 C.3       4 GLY6        0.0000 
     25 CA          0.7200   32.2500  -97.6300 C.3       4 GLY6        0.0000 
     26 CA          1.3700   31.0800  -96.9600 C.3       4 GLY6        0.0000 
     27 CA          0.7000   31.7900  -95.0800 C.3       4 GLY6        0.0000 
     28 CA          1.2800   33.1700  -96.5800 C.3       4 GLY6        0.0000 
     29 CA         -2.4300   32.0800  -91.5200 C.3       4 GLY6        0.0000 
     30 CA         -1.7700   30.9100  -90.8500 C.3       4 GLY6        0.0000 
     31 CA         -1.8500   33.4600  -93.0300 C.3       4 GLY6        0.0000 
     32 CA         -1.2000   32.2900  -92.3600 C.3       4 GLY6        0.0000 
     33 CA         -0.6400   33.2000  -91.3100 C.3       4 GLY6        0.0000 
     34 CA          0.0100   32.0300  -90.6300 C.3       4 GLY6        0.0000 
     35 CA          0.5900   33.4000  -92.1400 C.3       4 GLY6        0.0000 
     36 CA          1.2400   32.2300  -91.4700 C.3       4 GLY6        0.0000 
     37 CA          2.4700   32.4400  -92.3000 C.3       4 GLY6        0.0000 
@<TRIPOS>BOND
@<TRIPOS>SUBSTRUCTURE
     1 SER1        1 GROUP   
     2 ALA2       12 GROUP   
     3 ASP3       18 GROUP   
     4 GLY6       21 GROUP   
@<TRIPOS>SET

