#    Name: 5oxf_2_GDP
#    Modification time : Fri May 22 19:12:21 2020

@<TRIPOS>MOLECULE
5oxf_2_GDP
   28    30     1     0     1
SMALL
NO_CHARGES


@<TRIPOS>ATOM
      1 PB         20.6840  -62.3230  -65.8090 P.3       1 GDP1000     0.0000 
      2 O1B        21.4360  -62.8120  -67.0240 O.co2     1 GDP1000     0.0000 
      3 O2B        19.5300  -63.2370  -65.4700 O.co2     1 GDP1000     0.0000 
      4 O3B        20.1670  -60.9290  -66.0560 O.co2     1 GDP1000     0.0000 
      5 O3A        21.6920  -62.2690  -64.5560 O.3       1 GDP1000     0.0000 
      6 PA         22.6810  -63.4840  -64.2010 P.3       1 GDP1000     0.0000 
      7 O1A        22.5840  -64.5340  -65.2810 O.co2     1 GDP1000     0.0000 
      8 O2A        22.2830  -64.0420  -62.8580 O.co2     1 GDP1000     0.0000 
      9 O5'        24.1980  -62.9540  -64.1090 O.3       1 GDP1000     0.0000 
     10 C5'        24.9750  -62.7560  -65.2880 C.3       1 GDP1000     0.0000 
     11 C4'        26.4340  -63.1020  -65.0050 C.3       1 GDP1000     0.0000 
     12 O4'        26.9810  -62.1740  -64.0670 O.3       1 GDP1000     0.0000 
     13 C3'        26.5900  -64.4760  -64.3780 C.3       1 GDP1000     0.0000 
     14 O3'        27.7370  -65.1080  -64.9510 O.3       1 GDP1000     0.0000 
     15 C2'        26.8400  -64.2090  -62.9080 C.3       1 GDP1000     0.0000 
     16 O2'        27.6980  -65.2110  -62.3590 O.3       1 GDP1000     0.0000 
     17 C1'        27.5210  -62.8520  -62.9300 C.3       1 GDP1000     0.0000 
     18 N9         27.2430  -62.0430  -61.7160 N.pl3     1 GDP1000     0.0000 
     19 C8         26.0350  -61.8370  -61.1670 C.2       1 GDP1000     0.0000 
     20 N7         26.1160  -61.0360  -60.0740 N.2       1 GDP1000     0.0000 
     21 C5         27.4110  -60.7050  -59.9130 C.2       1 GDP1000     0.0000 
     22 C6         28.2020  -59.8860  -58.9610 C.2       1 GDP1000     0.0000 
     23 O6         27.6580  -59.2890  -58.0060 O.2       1 GDP1000     0.0000 
     24 N1         29.5240  -59.8030  -59.1510 N.am      1 GDP1000     0.0000 
     25 C2         30.1470  -60.4320  -60.1660 C.2       1 GDP1000     0.0000 
     26 N2         31.4890  -60.2960  -60.2880 N.pl3     1 GDP1000     0.0000 
     27 N3         29.4870  -61.1970  -61.0740 N.2       1 GDP1000     0.0000 
     28 C4         28.1460  -61.3680  -61.0010 C.2       1 GDP1000     0.0000 
@<TRIPOS>BOND
     1    1    2 ar   
     2    1    3 ar   
     3    1    4 ar   
     4    1    5 1    
     5    5    6 1    
     6    6    7 ar   
     7    6    8 ar   
     8    6    9 1    
     9    9   10 1    
    10   10   11 1    
    11   11   12 1    
    12   11   13 1    
    13   12   17 1    
    14   13   14 1    
    15   13   15 1    
    16   15   16 1    
    17   15   17 1    
    18   17   18 1    
    19   18   19 1    
    20   18   28 1    
    21   19   20 2    
    22   20   21 1    
    23   21   22 1    
    24   21   28 2    
    25   22   23 2    
    26   22   24 am   
    27   24   25 1    
    28   25   26 1    
    29   25   27 2    
    30   27   28 1    
@<TRIPOS>SUBSTRUCTURE
     1 GDP1000     1 GROUP   
@<TRIPOS>SET
ATOM$ORANGE STATIC     ATOMS   COLORGROUP SYSTEM 
20 10 10 11 11 13 13 15 15 17 17 19 19 21 21 22 22 25 \
25 28 28 

