#    Name: 5oxf_4_GDP_CAVITY_N1_4
#    Modification time : Fri May 22 19:12:42 2020

@<TRIPOS>MOLECULE
5oxf_4_GDP_CAVITY_N1_4
   35     0     4     0     0
SMALL
NO_CHARGES


@<TRIPOS>ATOM
      1 OG        -16.1900  -21.1100  -87.2300 O.3       1 SER1        0.0000 
      2 OG        -16.2700  -18.5600  -89.4100 O.3       1 SER1        0.0000 
      3 OG        -14.4100  -20.0000  -87.0100 O.3       1 SER1        0.0000 
      4 OG        -13.1800  -19.7900  -87.8500 O.3       1 SER1        0.0000 
      5 OG        -14.5000  -17.9100  -86.6300 O.3       1 SER1        0.0000 
      6 OG        -13.8500  -19.0800  -85.9600 O.3       1 SER1        0.0000 
      7 OG        -13.2700  -17.7000  -87.4700 O.3       1 SER1        0.0000 
      8 OG        -12.6200  -18.8800  -86.8000 O.3       1 SER1        0.0000 
      9 OG        -12.0400  -17.5000  -88.3000 O.3       1 SER1        0.0000 
     10 OG        -13.9400  -17.0000  -85.5800 O.3       1 SER1        0.0000 
     11 OG        -12.0600  -17.9600  -85.7500 O.3       1 SER1        0.0000 
     12 N         -15.6200  -19.7400  -88.7400 N.am      2 ALA2        0.0000 
     13 N         -14.3900  -19.5300  -89.5700 N.am      2 ALA2        0.0000 
     14 O         -15.7100  -17.6500  -88.3600 O.2       2 ALA2        0.0000 
     15 N         -13.8300  -18.6200  -88.5200 N.am      2 ALA2        0.0000 
     16 N         -10.8100  -17.2900  -89.1400 N.am      2 ALA2        0.0000 
     17 O         -14.5200  -18.3800  -84.0800 O.2       2 ALA2        0.0000 
     18 O          -9.6000  -17.5500  -87.4200 O.2       2 ALA2        0.0000 
     19 OD1       -13.2900  -18.1700  -84.9100 O.co2     3 ASP3        0.0000 
     20 OD1       -12.0700  -18.4300  -83.1900 O.co2     3 ASP3        0.0000 
     21 OD1       -11.5000  -17.0500  -84.7000 O.co2     3 ASP3        0.0000 
     22 OD1       -10.2800  -17.3100  -82.9800 O.co2     3 ASP3        0.0000 
     23 CA        -16.8500  -19.9400  -87.9000 C.3       4 GLY6        0.0000 
     24 CA        -13.7400  -20.7000  -88.9000 C.3       4 GLY6        0.0000 
     25 CA        -15.0600  -18.8200  -87.6900 C.3       4 GLY6        0.0000 
     26 CA        -14.4800  -17.4400  -89.1900 C.3       4 GLY6        0.0000 
     27 CA        -12.6000  -18.4100  -89.3500 C.3       4 GLY6        0.0000 
     28 CA        -11.9600  -20.0500  -86.1300 C.3       4 GLY6        0.0000 
     29 CA        -11.3900  -18.6700  -87.6300 C.3       4 GLY6        0.0000 
     30 CA        -10.1600  -18.4600  -88.4700 C.3       4 GLY6        0.0000 
     31 CA        -12.6300  -19.3400  -84.2400 C.3       4 GLY6        0.0000 
     32 CA        -11.4000  -19.1400  -85.0800 C.3       4 GLY6        0.0000 
     33 CA        -10.8300  -17.7600  -86.5800 C.3       4 GLY6        0.0000 
     34 CA        -10.8400  -18.2200  -84.0300 C.3       4 GLY6        0.0000 
     35 CA        -10.2700  -16.8400  -85.5300 C.3       4 GLY6        0.0000 
@<TRIPOS>BOND
@<TRIPOS>SUBSTRUCTURE
     1 SER1        1 GROUP   
     2 ALA2       12 GROUP   
     3 ASP3       19 GROUP   
     4 GLY6       23 GROUP   
@<TRIPOS>SET

