#    Name: 5oxf_3_GDP_CAVITY_N1_6
#    Modification time : Fri May 22 19:12:32 2020

@<TRIPOS>MOLECULE
5oxf_3_GDP_CAVITY_N1_6
   64     0     6     0     0
SMALL
NO_CHARGES


@<TRIPOS>ATOM
      1 OG          0.1600   31.3400  -98.6800 O.3       1 SER1        0.0000 
      2 OG         -2.2400   27.9100  -92.2800 O.3       1 SER1        0.0000 
      3 OG         -1.5900   26.7400  -91.6100 O.3       1 SER1        0.0000 
      4 OG         -2.3300   29.9900  -91.9000 O.3       1 SER1        0.0000 
      5 OG         -1.6800   28.8200  -91.2300 O.3       1 SER1        0.0000 
      6 OG         -1.0300   27.6500  -90.5600 O.3       1 SER1        0.0000 
      7 OG         -1.7600   31.3700  -93.4100 O.3       1 SER1        0.0000 
      8 OG         -1.1100   30.2000  -92.7400 O.3       1 SER1        0.0000 
      9 OG         -0.5300   31.5800  -94.2400 O.3       1 SER1        0.0000 
     10 OG          0.0500   32.9600  -95.7500 O.3       1 SER1        0.0000 
     11 OG         -0.5500   31.1100  -91.6900 O.3       1 SER1        0.0000 
     12 OG         -0.6200   33.6600  -93.8600 O.3       1 SER1        0.0000 
     13 OG          0.0300   32.4900  -93.1900 O.3       1 SER1        0.0000 
     14 OG          0.6800   31.3200  -92.5200 O.3       1 SER1        0.0000 
     15 OG          1.2600   32.7000  -94.0300 O.3       1 SER1        0.0000 
     16 N          -2.8000   27.0000  -93.3300 N.am      2 ALA2        0.0000 
     17 N          -2.1500   25.8200  -92.6600 N.am      2 ALA2        0.0000 
     18 N          -0.2700   24.8600  -92.8200 N.am      2 ALA2        0.0000 
     19 N          -4.7800   30.0500  -92.7900 N.am      2 ALA2        0.0000 
     20 N          -4.1200   28.8700  -92.1200 N.am      2 ALA2        0.0000 
     21 N          -3.4700   27.7000  -91.4500 N.am      2 ALA2        0.0000 
     22 N          -2.8900   29.0800  -92.9500 N.am      2 ALA2        0.0000 
     23 N          -2.9900   31.1700  -92.5700 N.am      2 ALA2        0.0000 
     24 N          -3.0600   33.7200  -94.7500 N.am      2 ALA2        0.0000 
     25 N          -1.1800   32.7500  -94.9100 N.am      2 ALA2        0.0000 
     26 O           1.3500   30.6100  -94.4100 O.2       2 ALA2        0.0000 
     27 N          -2.3500   29.5300  -89.3500 N.am      2 ALA2        0.0000 
     28 O           1.9100   31.5300  -93.3500 O.2       2 ALA2        0.0000 
     29 N           0.5700   32.9400  -89.5800 N.am      2 ALA2        0.0000 
     30 N           1.7900   32.6800  -87.8600 N.am      2 ALA2        0.0000 
     31 OD1        -0.4700   28.5600  -89.5100 O.co2     3 ASP3        0.0000 
     32 OD1         0.1100   29.9400  -91.0100 O.co2     3 ASP3        0.0000 
     33 OD1         1.3400   30.1500  -91.8500 O.co2     3 ASP3        0.0000 
     34 OD1         0.0900   29.4700  -88.4600 O.co2     3 ASP3        0.0000 
     35 OD1         0.6700   30.8500  -89.9600 O.co2     3 ASP3        0.0000 
     36 OD1         1.2300   31.7700  -88.9100 O.co2     3 ASP3        0.0000 
     37 OD1         1.8800   30.5900  -88.2400 O.co2     3 ASP3        0.0000 
     38 NZ         -0.9400   25.5600  -90.9400 N.4       4 LYS4        0.0000 
     39 CA         -2.3200   30.4600  -94.4600 C.3       5 GLY6        0.0000 
     40 CA         -1.7400   31.8400  -95.9600 C.3       5 GLY6        0.0000 
     41 CA         -1.0900   30.6700  -95.2900 C.3       5 GLY6        0.0000 
     42 CA         -0.5100   32.0500  -96.8000 C.3       5 GLY6        0.0000 
     43 CA          0.7200   32.2500  -97.6300 C.3       5 GLY6        0.0000 
     44 CA          1.3700   31.0800  -96.9600 C.3       5 GLY6        0.0000 
     45 CA         -4.2200   30.9600  -91.7400 C.3       5 GLY6        0.0000 
     46 CA          0.7000   31.7900  -95.0800 C.3       5 GLY6        0.0000 
     47 CA          1.2800   33.1700  -96.5800 C.3       5 GLY6        0.0000 
     48 CA         -3.0000   30.7000  -90.0200 C.3       5 GLY6        0.0000 
     49 CA         -2.4300   32.0800  -91.5200 C.3       5 GLY6        0.0000 
     50 CA         -1.7700   30.9100  -90.8500 C.3       5 GLY6        0.0000 
     51 CA         -1.8500   33.4600  -93.0300 C.3       5 GLY6        0.0000 
     52 CA         -1.2000   32.2900  -92.3600 C.3       5 GLY6        0.0000 
     53 CA         -1.7900   30.4400  -88.3000 C.3       5 GLY6        0.0000 
     54 CA         -0.5600   30.6500  -89.1300 C.3       5 GLY6        0.0000 
     55 CA         -0.6400   33.2000  -91.3100 C.3       5 GLY6        0.0000 
     56 CA          0.0100   32.0300  -90.6300 C.3       5 GLY6        0.0000 
     57 CA          0.5900   33.4000  -92.1400 C.3       5 GLY6        0.0000 
     58 CA          1.2400   32.2300  -91.4700 C.3       5 GLY6        0.0000 
     59 CA          2.4700   32.4400  -92.3000 C.3       5 GLY6        0.0000 
     60 CA          0.0000   31.5600  -88.0800 C.3       5 GLY6        0.0000 
     61 CA         -0.1000   33.6400  -87.7000 C.3       5 GLY6        0.0000 
     62 DU         -3.5600   29.7900  -91.0700 H         6 CUB7        0.0000 
     63 DU         -2.9100   28.6100  -90.4000 H         6 CUB7        0.0000 
     64 DU         -1.1200   29.7300  -90.1800 H         6 CUB7        0.0000 
@<TRIPOS>BOND
@<TRIPOS>SUBSTRUCTURE
     1 SER1        1 GROUP   
     2 ALA2       16 GROUP   
     3 ASP3       31 GROUP   
     4 LYS4       38 GROUP   
     5 GLY6       39 GROUP   
     6 CUB7       62 GROUP   
@<TRIPOS>SET

