#    Name: 5oxf_1_GDP
#    Modification time : Fri May 22 19:12:05 2020

@<TRIPOS>MOLECULE
5oxf_1_GDP
   28    30     1     0     1
SMALL
NO_CHARGES


@<TRIPOS>ATOM
      1 PB         -2.0030   76.8440  -54.9760 P.3       1 GDP1000     0.0000 
      2 O1B        -1.2460   77.9710  -55.6350 O.co2     1 GDP1000     0.0000 
      3 O2B        -3.4940   77.0480  -55.1090 O.co2     1 GDP1000     0.0000 
      4 O3B        -1.6090   75.5310  -55.6040 O.co2     1 GDP1000     0.0000 
      5 O3A        -1.6280   76.8230  -53.4100 O.3       1 GDP1000     0.0000 
      6 PA         -1.9580   78.0970  -52.4830 P.3       1 GDP1000     0.0000 
      7 O1A        -2.7390   79.0980  -53.2990 O.co2     1 GDP1000     0.0000 
      8 O2A        -0.6670   78.7210  -52.0080 O.co2     1 GDP1000     0.0000 
      9 O5'        -2.8600   77.6470  -51.2230 O.3       1 GDP1000     0.0000 
     10 C5'        -4.2830   77.5820  -51.3380 C.3       1 GDP1000     0.0000 
     11 C4'        -4.9480   78.1050  -50.0660 C.3       1 GDP1000     0.0000 
     12 O4'        -4.6790   77.2200  -48.9760 O.3       1 GDP1000     0.0000 
     13 C3'        -4.4280   79.4750  -49.6610 C.3       1 GDP1000     0.0000 
     14 O3'        -5.5250   80.2980  -49.2580 O.3       1 GDP1000     0.0000 
     15 C2'        -3.5260   79.2230  -48.4720 C.3       1 GDP1000     0.0000 
     16 O2'        -3.6650   80.2740  -47.5120 O.3       1 GDP1000     0.0000 
     17 C1'        -4.0190   77.9020  -47.9080 C.3       1 GDP1000     0.0000 
     18 N9         -2.8820   77.0580  -47.4840 N.pl3     1 GDP1000     0.0000 
     19 C8         -1.8400   76.7390  -48.2640 C.2       1 GDP1000     0.0000 
     20 N7         -0.9620   75.9380  -47.6100 N.2       1 GDP1000     0.0000 
     21 C5         -1.4560   75.7280  -46.3800 C.2       1 GDP1000     0.0000 
     22 C6         -1.0340   74.9750  -45.1800 C.2       1 GDP1000     0.0000 
     23 O6          0.0290   74.3280  -45.1750 O.2       1 GDP1000     0.0000 
     24 N1         -1.8260   75.0040  -44.1050 N.am      1 GDP1000     0.0000 
     25 C2         -2.9790   75.6960  -44.0840 C.2       1 GDP1000     0.0000 
     26 N2         -3.7260   75.6790  -42.9550 N.pl3     1 GDP1000     0.0000 
     27 N3         -3.4300   76.4100  -45.1480 N.2       1 GDP1000     0.0000 
     28 C4         -2.7250   76.4620  -46.3010 C.2       1 GDP1000     0.0000 
@<TRIPOS>BOND
     1    1    2 ar   
     2    1    3 ar   
     3    1    4 ar   
     4    1    5 1    
     5    5    6 1    
     6    6    7 ar   
     7    6    8 ar   
     8    6    9 1    
     9    9   10 1    
    10   10   11 1    
    11   11   12 1    
    12   11   13 1    
    13   12   17 1    
    14   13   14 1    
    15   13   15 1    
    16   15   16 1    
    17   15   17 1    
    18   17   18 1    
    19   18   19 1    
    20   18   28 1    
    21   19   20 2    
    22   20   21 1    
    23   21   22 1    
    24   21   28 2    
    25   22   23 2    
    26   22   24 am   
    27   24   25 1    
    28   25   26 1    
    29   25   27 2    
    30   27   28 1    
@<TRIPOS>SUBSTRUCTURE
     1 GDP1000     1 GROUP   
@<TRIPOS>SET
ATOM$ORANGE STATIC     ATOMS   COLORGROUP SYSTEM 
20 10 10 11 11 13 13 15 15 17 17 19 19 21 21 22 22 25 \
25 28 28 

