#    Name: 5oxf_4_GDP
#    Modification time : Fri May 22 19:12:40 2020

@<TRIPOS>MOLECULE
5oxf_4_GDP
   28    30     1     0     1
SMALL
NO_CHARGES


@<TRIPOS>ATOM
      1 PB        -14.0600  -18.4210  -85.3830 P.3       1 GDP1000     0.0000 
      2 O1B       -14.0600  -16.9480  -85.7100 O.co2     1 GDP1000     0.0000 
      3 O2B       -12.6700  -18.9910  -85.5320 O.co2     1 GDP1000     0.0000 
      4 O3B       -14.5670  -18.6510  -83.9790 O.co2     1 GDP1000     0.0000 
      5 O3A       -15.0380  -19.1790  -86.4100 O.3       1 GDP1000     0.0000 
      6 PA        -15.0260  -18.8360  -87.9830 P.3       1 GDP1000     0.0000 
      7 O1A       -13.5930  -18.8200  -88.4590 O.co2     1 GDP1000     0.0000 
      8 O2A       -15.7060  -17.5170  -88.2600 O.co2     1 GDP1000     0.0000 
      9 O5'       -15.8300  -19.9870  -88.7610 O.3       1 GDP1000     0.0000 
     10 C5'       -15.2080  -21.2540  -88.9460 C.3       1 GDP1000     0.0000 
     11 C4'       -16.1170  -22.1530  -89.7660 C.3       1 GDP1000     0.0000 
     12 O4'       -17.3050  -22.4050  -89.0190 O.3       1 GDP1000     0.0000 
     13 C3'       -16.5360  -21.4980  -91.0770 C.3       1 GDP1000     0.0000 
     14 O3'       -16.3240  -22.3980  -92.1680 O.3       1 GDP1000     0.0000 
     15 C2'       -18.0180  -21.2400  -90.9270 C.3       1 GDP1000     0.0000 
     16 O2'       -18.6920  -21.4700  -92.1650 O.3       1 GDP1000     0.0000 
     17 C1'       -18.4080  -22.2910  -89.9090 C.3       1 GDP1000     0.0000 
     18 N9        -19.6370  -21.9510  -89.1690 N.pl3     1 GDP1000     0.0000 
     19 C8        -19.8370  -20.9590  -88.2790 C.2       1 GDP1000     0.0000 
     20 N7        -21.1090  -20.9970  -87.8070 N.2       1 GDP1000     0.0000 
     21 C5        -21.7160  -22.0400  -88.4060 C.2       1 GDP1000     0.0000 
     22 C6        -23.0400  -22.6730  -88.3780 C.2       1 GDP1000     0.0000 
     23 O6        -23.9000  -22.1820  -87.6520 O.2       1 GDP1000     0.0000 
     24 N1        -23.2900  -23.7410  -89.1470 N.am      1 GDP1000     0.0000 
     25 C2        -22.3430  -24.2640  -89.9450 C.2       1 GDP1000     0.0000 
     26 N2        -22.6240  -25.3480  -90.7050 N.pl3     1 GDP1000     0.0000 
     27 N3        -21.0960  -23.7430  -90.0210 N.2       1 GDP1000     0.0000 
     28 C4        -20.7430  -22.6620  -89.2920 C.2       1 GDP1000     0.0000 
@<TRIPOS>BOND
     1    1    2 ar   
     2    1    3 ar   
     3    1    4 ar   
     4    1    5 1    
     5    5    6 1    
     6    6    7 ar   
     7    6    8 ar   
     8    6    9 1    
     9    9   10 1    
    10   10   11 1    
    11   11   12 1    
    12   11   13 1    
    13   12   17 1    
    14   13   14 1    
    15   13   15 1    
    16   15   16 1    
    17   15   17 1    
    18   17   18 1    
    19   18   19 1    
    20   18   28 1    
    21   19   20 2    
    22   20   21 1    
    23   21   22 1    
    24   21   28 2    
    25   22   23 2    
    26   22   24 am   
    27   24   25 1    
    28   25   26 1    
    29   25   27 2    
    30   27   28 1    
@<TRIPOS>SUBSTRUCTURE
     1 GDP1000     1 GROUP   
@<TRIPOS>SET
ATOM$ORANGE STATIC     ATOMS   COLORGROUP SYSTEM 
20 10 10 11 11 13 13 15 15 17 17 19 19 21 21 22 22 25 \
25 28 28 

