#    Name: 6opk_1_390
#    Modification time : Fri May 22 19:25:50 2020

@<TRIPOS>MOLECULE
6opk_1_390
   34    37     1     0     0
SMALL
NO_CHARGES


@<TRIPOS>ATOM
      1 O1         51.5690   15.7240   15.0780           1 390401      0.0000 
      2 C14        52.7230   16.1840   15.0460           1 390401      0.0000 
      3 N3         53.7480   15.5850   15.6200           1 390401      0.0000 
      4 C15        53.6120   14.3970   16.4160           1 390401      0.0000 
      5 C17        53.7100   13.2020   15.5450           1 390401      0.0000 
      6 C22        53.3310   11.9700   16.0850           1 390401      0.0000 
      7 C21        53.4280   10.8300   15.2950           1 390401      0.0000 
      8 CL1        52.9250    9.3000   15.9050           1 390401      0.0000 
      9 C20        53.9390   10.9110   14.0050           1 390401      0.0000 
     10 C19        54.3470   12.1560   13.5300           1 390401      0.0000 
     11 C18        54.2220   13.3290   14.2550           1 390401      0.0000 
     12 C16        54.8060   14.2960   17.3240           1 390401      0.0000 
     13 O          54.3720   14.6410   18.5690           1 390401      0.0000 
     14 C13        53.1960   17.3970   14.4710           1 390401      0.0000 
     15 C12        52.6560   18.0890   13.3590           1 390401      0.0000 
     16 N4         54.3180   17.9800   14.9230           1 390401      0.0000 
     17 C23        54.5550   19.1140   14.1300           1 390401      0.0000 
     18 C11        53.5220   19.1940   13.1760           1 390401      0.0000 
     19 C10        53.3720   20.2790   12.1910           1 390401      0.0000 
     20 C1         52.1920   20.4680   11.4520           1 390401      0.0000 
     21 C          50.9970   19.5760   11.5160           1 390401      0.0000 
     22 N2         54.4450   21.1090   12.0680           1 390401      0.0000 
     23 C3         54.2920   22.1570   11.1960           1 390401      0.0000 
     24 N          53.1740   22.4390   10.4570           1 390401      0.0000 
     25 C2         52.1490   21.5440   10.5670           1 390401      0.0000 
     26 N1         55.3960   23.0960   11.0450           1 390401      0.0000 
     27 C4         56.6680   22.9170   11.7500           1 390401      0.0000 
     28 C9         57.8720   23.1460   11.0770           1 390401      0.0000 
     29 CL         57.8930   23.6000    9.4170           1 390401      0.0000 
     30 C8         59.1060   23.0160   11.7060           1 390401      0.0000 
     31 C7         59.0900   22.6200   13.0360           1 390401      0.0000 
     32 F          60.2790   22.4620   13.6360           1 390401      0.0000 
     33 C6         57.8930   22.3940   13.7310           1 390401      0.0000 
     34 C5         56.6770   22.5390   13.0920           1 390401      0.0000 
@<TRIPOS>BOND
     1    1    2 du   
     2    2    3 du   
     3    2   14 du   
     4    3    4 du   
     5    4    5 du   
     6    4   12 du   
     7    5    6 du   
     8    5   11 du   
     9    6    7 du   
    10    7    8 du   
    11    7    9 du   
    12    9   10 du   
    13   10   11 du   
    14   12   13 du   
    15   14   15 du   
    16   14   16 du   
    17   15   18 du   
    18   16   17 du   
    19   17   18 du   
    20   18   19 du   
    21   19   20 du   
    22   19   22 du   
    23   20   21 du   
    24   20   25 du   
    25   22   23 du   
    26   23   24 du   
    27   23   26 du   
    28   24   25 du   
    29   26   27 du   
    30   27   28 du   
    31   27   34 du   
    32   28   29 du   
    33   28   30 du   
    34   30   31 du   
    35   31   32 du   
    36   31   33 du   
    37   33   34 du   
@<TRIPOS>SUBSTRUCTURE
     1 390401      1 GROUP   
@<TRIPOS>SET

