#    Name: 6g72_3_NDP
#    Modification time : Fri May 22 19:27:53 2020

@<TRIPOS>MOLECULE
6g72_3_NDP
   48    52     1     0     1
SMALL
NO_CHARGES


@<TRIPOS>ATOM
      1 PA        256.5630  276.8050  302.1630 P.3       1 NDP501      0.0000 
      2 O1A       255.3840  277.5640  301.6720 O.co2     1 NDP501      0.0000 
      3 O2A       256.4710  275.3070  302.1920 O.co2     1 NDP501      0.0000 
      4 O5B       256.9390  277.5180  303.6250 O.3       1 NDP501      0.0000 
      5 C5B       257.8600  276.7070  304.2900 C.3       1 NDP501      0.0000 
      6 C4B       257.4920  276.6080  305.7650 C.3       1 NDP501      0.0000 
      7 O4B       257.7630  277.7860  306.4950 O.3       1 NDP501      0.0000 
      8 C3B       255.9950  276.3300  305.8390 C.3       1 NDP501      0.0000 
      9 O3B       255.7900  275.0610  306.3380 O.3       1 NDP501      0.0000 
     10 C2B       255.5020  277.3420  306.8700 C.3       1 NDP501      0.0000 
     11 O2B       254.6080  276.8440  307.7100 O.3       1 NDP501      0.0000 
     12 C1B       256.8380  277.7120  307.5630 C.3       1 NDP501      0.0000 
     13 N9A       256.7340  279.0080  308.1930 N.pl3     1 NDP501      0.0000 
     14 C8A       256.6770  280.2370  307.5700 C.2       1 NDP501      0.0000 
     15 N7A       256.5640  281.2640  308.4170 N.2       1 NDP501      0.0000 
     16 C5A       256.5450  280.6480  309.6620 C.ar      1 NDP501      0.0000 
     17 C6A       256.4510  281.1610  310.9480 C.ar      1 NDP501      0.0000 
     18 N6A       256.3510  282.5060  311.1430 N.pl3     1 NDP501      0.0000 
     19 N1A       256.4510  280.3610  312.0390 N.ar      1 NDP501      0.0000 
     20 C2A       256.5530  279.0270  311.7610 C.ar      1 NDP501      0.0000 
     21 N3A       256.6530  278.3830  310.5940 N.ar      1 NDP501      0.0000 
     22 C4A       256.6580  279.2400  309.5390 C.ar      1 NDP501      0.0000 
     23 O3        257.6070  277.2790  300.9760 O.3       1 NDP501      0.0000 
     24 PN        258.9760  276.4610  300.9560 P.3       1 NDP501      0.0000 
     25 O1N       258.9820  275.2790  301.8380 O.co2     1 NDP501      0.0000 
     26 O2N       259.5440  276.4250  299.5550 O.co2     1 NDP501      0.0000 
     27 O5D       260.1450  277.4850  301.7250 O.3       1 NDP501      0.0000 
     28 C5D       261.2070  276.6830  301.9520 C.3       1 NDP501      0.0000 
     29 C4D       262.4950  277.4950  302.0380 C.3       1 NDP501      0.0000 
     30 O4D       263.1160  277.4860  300.7460 O.3       1 NDP501      0.0000 
     31 C3D       262.2380  278.9930  302.4120 C.3       1 NDP501      0.0000 
     32 O3D       263.2920  279.4290  303.1710 O.3       1 NDP501      0.0000 
     33 C2D       262.2400  279.6420  301.0610 C.3       1 NDP501      0.0000 
     34 O2D       262.6500  280.9560  301.0970 O.3       1 NDP501      0.0000 
     35 C1D       263.3440  278.7980  300.3390 C.3       1 NDP501      0.0000 
     36 N1N       263.2300  278.8220  298.8790 N.pl3     1 NDP501      0.0000 
     37 C2N       262.0690  278.4450  298.2610 C.2       1 NDP501      0.0000 
     38 C3N       261.9700  278.3880  296.9180 C.2       1 NDP501      0.0000 
     39 C7N       260.6760  277.9800  296.3750 C.2       1 NDP501      0.0000 
     40 O7N       260.1930  278.4470  295.3400 O.2       1 NDP501      0.0000 
     41 N7N       259.9390  277.0130  297.0480 N.am      1 NDP501      0.0000 
     42 C4N       263.1030  278.7310  296.0350 C.3       1 NDP501      0.0000 
     43 C5N       264.2950  279.1510  296.7960 C.2       1 NDP501      0.0000 
     44 C6N       264.3220  279.1870  298.1230 C.2       1 NDP501      0.0000 
     45 P2B       253.0700  276.5230  306.7690 P.3       1 NDP501      0.0000 
     46 O1X       253.3300  275.0760  306.5000 O.co2     1 NDP501      0.0000 
     47 O2X       253.1610  277.4920  305.5860 O.co2     1 NDP501      0.0000 
     48 O3X       252.0880  276.8550  307.8470 O.co2     1 NDP501      0.0000 
@<TRIPOS>BOND
     1    1    2 ar   
     2    1    3 ar   
     3    1    4 1    
     4    1   23 1    
     5    4    5 1    
     6    5    6 1    
     7    6    7 1    
     8    6    8 1    
     9    7   12 1    
    10    8    9 1    
    11    8   10 1    
    12   10   11 1    
    13   10   12 1    
    14   11   45 1    
    15   12   13 1    
    16   13   14 1    
    17   13   22 1    
    18   14   15 2    
    19   15   16 1    
    20   16   17 ar   
    21   16   22 ar   
    22   17   18 1    
    23   17   19 ar   
    24   19   20 ar   
    25   20   21 ar   
    26   21   22 ar   
    27   23   24 1    
    28   24   25 ar   
    29   24   26 ar   
    30   24   27 1    
    31   27   28 1    
    32   28   29 1    
    33   29   30 1    
    34   29   31 1    
    35   30   35 1    
    36   31   32 1    
    37   31   33 1    
    38   33   34 1    
    39   33   35 1    
    40   35   36 1    
    41   36   37 1    
    42   36   44 1    
    43   37   38 2    
    44   38   39 1    
    45   38   42 1    
    46   39   40 2    
    47   39   41 am   
    48   42   43 1    
    49   43   44 2    
    50   45   46 ar   
    51   45   47 ar   
    52   45   48 ar   
@<TRIPOS>SUBSTRUCTURE
     1 NDP501      1 GROUP   
@<TRIPOS>SET
ATOM$ORANGE STATIC     ATOMS   COLORGROUP SYSTEM 
42 5 5 6 6 8 8 10 10 12 12 14 14 16 16 17 17 20 \
20 22 22 28 28 29 29 31 31 33 33 35 35 37 37 38 38 39 \
39 42 42 43 43 44 44 

