#    Name: 6g72_1_FMN
#    Modification time : Fri May 22 19:27:32 2020

@<TRIPOS>MOLECULE
6g72_1_FMN
   31    33     1     0     1
SMALL
NO_CHARGES


@<TRIPOS>ATOM
      1 N1        271.0120  185.4460  351.2340 N.2       1 FMN501      0.0000 
      2 C2        271.5570  185.2380  352.4790 C.2       1 FMN501      0.0000 
      3 O2        272.1210  184.1810  352.7330 O.2       1 FMN501      0.0000 
      4 N3        271.4880  186.2040  353.4420 N.am      1 FMN501      0.0000 
      5 C4        270.8580  187.3830  353.1520 C.2       1 FMN501      0.0000 
      6 O4        270.7850  188.2580  354.0100 O.2       1 FMN501      0.0000 
      7 C4A       270.3040  187.5940  351.9030 C.2       1 FMN501      0.0000 
      8 N5        269.6910  188.7850  351.6490 N.2       1 FMN501      0.0000 
      9 C5A       269.1390  189.0120  350.4210 C.ar      1 FMN501      0.0000 
     10 C6        268.5270  190.2290  350.2160 C.ar      1 FMN501      0.0000 
     11 C7        267.9520  190.5140  348.9950 C.ar      1 FMN501      0.0000 
     12 C7M       267.2850  191.8250  348.7600 C.3       1 FMN501      0.0000 
     13 C8        267.9870  189.5840  347.9830 C.ar      1 FMN501      0.0000 
     14 C8M       267.3650  189.8880  346.6500 C.3       1 FMN501      0.0000 
     15 C9        268.6120  188.3700  348.1980 C.ar      1 FMN501      0.0000 
     16 C9A       269.1940  188.0540  349.4220 C.ar      1 FMN501      0.0000 
     17 N10       269.8330  186.8390  349.6660 N.pl3     1 FMN501      0.0000 
     18 C10       270.3760  186.6240  350.9240 C.2       1 FMN501      0.0000 
     19 C1'       269.9420  185.7130  348.6560 C.3       1 FMN501      0.0000 
     20 C2'       271.3620  185.4260  348.1980 C.3       1 FMN501      0.0000 
     21 O2'       271.4710  185.6850  346.8210 O.3       1 FMN501      0.0000 
     22 C3'       271.6630  183.9680  348.4910 C.3       1 FMN501      0.0000 
     23 O3'       271.6330  183.7990  349.8830 O.3       1 FMN501      0.0000 
     24 C4'       273.0170  183.5620  347.9520 C.3       1 FMN501      0.0000 
     25 O4'       272.9350  183.6500  346.5550 O.3       1 FMN501      0.0000 
     26 C5'       273.4180  182.1410  348.3380 C.3       1 FMN501      0.0000 
     27 O5'       272.9230  181.2030  347.4230 O.3       1 FMN501      0.0000 
     28 P         273.0080  179.6780  347.9000 P.3       1 FMN501      0.0000 
     29 O1P       271.7530  179.3470  348.6620 O.co2     1 FMN501      0.0000 
     30 O2P       273.1760  178.7840  346.7020 O.co2     1 FMN501      0.0000 
     31 O3P       274.2020  179.5370  348.8050 O.co2     1 FMN501      0.0000 
@<TRIPOS>BOND
     1    1    2 1    
     2    1   18 2    
     3    2    3 2    
     4    2    4 am   
     5    4    5 am   
     6    5    6 2    
     7    5    7 1    
     8    7    8 2    
     9    7   18 1    
    10    8    9 1    
    11    9   10 ar   
    12    9   16 ar   
    13   10   11 ar   
    14   11   12 1    
    15   11   13 ar   
    16   13   14 1    
    17   13   15 ar   
    18   15   16 ar   
    19   16   17 1    
    20   17   18 1    
    21   17   19 1    
    22   19   20 1    
    23   20   21 1    
    24   20   22 1    
    25   22   23 1    
    26   22   24 1    
    27   24   25 1    
    28   24   26 1    
    29   26   27 1    
    30   27   28 1    
    31   28   29 ar   
    32   28   30 ar   
    33   28   31 ar   
@<TRIPOS>SUBSTRUCTURE
     1 FMN501      1 GROUP   
@<TRIPOS>SET
ATOM$ORANGE STATIC     ATOMS   COLORGROUP SYSTEM 
34 2 2 5 5 7 7 9 9 10 10 11 11 12 12 13 13 14 \
14 15 15 16 16 18 18 19 19 20 20 22 22 24 24 26 26 

