#    Name: 6g72_2_ADP
#    Modification time : Fri May 22 19:27:41 2020

@<TRIPOS>MOLECULE
6g72_2_ADP
   27    29     1     0     1
SMALL
NO_CHARGES


@<TRIPOS>ATOM
      1 PB        239.3840  212.9840  242.1230 P.3       1 ADP401      0.0000 
      2 O1B       238.8890  213.2790  240.7290 O.co2     1 ADP401      0.0000 
      3 O2B       238.3860  212.2580  242.9940 O.co2     1 ADP401      0.0000 
      4 O3B       240.1020  214.1340  242.7870 O.co2     1 ADP401      0.0000 
      5 PA        242.0520  212.3720  241.5630 P.3       1 ADP401      0.0000 
      6 O1A       242.7800  211.1360  241.1020 O.co2     1 ADP401      0.0000 
      7 O2A       242.5970  213.1630  242.7220 O.co2     1 ADP401      0.0000 
      8 O3A       240.5540  211.9090  241.9020 O.3       1 ADP401      0.0000 
      9 O5'       241.9180  213.3440  240.2870 O.3       1 ADP401      0.0000 
     10 C5'       241.6990  214.7530  240.3630 C.3       1 ADP401      0.0000 
     11 C4'       242.3940  215.3710  239.1480 C.3       1 ADP401      0.0000 
     12 O4'       241.9990  216.7100  238.8230 O.3       1 ADP401      0.0000 
     13 C3'       243.9020  215.4350  239.3350 C.3       1 ADP401      0.0000 
     14 O3'       244.5350  214.4160  238.5610 O.3       1 ADP401      0.0000 
     15 C2'       244.3160  216.8060  238.8530 C.3       1 ADP401      0.0000 
     16 O2'       245.4310  216.7790  237.9680 O.3       1 ADP401      0.0000 
     17 C1'       243.1010  217.2960  238.1160 C.3       1 ADP401      0.0000 
     18 N9        243.0750  218.7740  238.0460 N.pl3     1 ADP401      0.0000 
     19 C8        241.9720  219.5340  238.1320 C.2       1 ADP401      0.0000 
     20 N7        242.2800  220.8460  238.0020 N.2       1 ADP401      0.0000 
     21 C5        243.6030  220.9300  237.8050 C.ar      1 ADP401      0.0000 
     22 C6        244.5730  222.0210  237.6020 C.ar      1 ADP401      0.0000 
     23 N6        244.1550  223.2970  237.5700 N.pl3     1 ADP401      0.0000 
     24 N1        245.8710  221.7110  237.4470 N.ar      1 ADP401      0.0000 
     25 C2        246.2930  220.4360  237.4750 C.ar      1 ADP401      0.0000 
     26 N3        245.4610  219.3920  237.6590 N.ar      1 ADP401      0.0000 
     27 C4        244.1280  219.5650  237.8300 C.ar      1 ADP401      0.0000 
@<TRIPOS>BOND
     1    1    2 ar   
     2    1    3 ar   
     3    1    4 ar   
     4    1    8 1    
     5    5    6 ar   
     6    5    7 ar   
     7    5    8 1    
     8    5    9 1    
     9    9   10 1    
    10   10   11 1    
    11   11   12 1    
    12   11   13 1    
    13   12   17 1    
    14   13   14 1    
    15   13   15 1    
    16   15   16 1    
    17   15   17 1    
    18   17   18 1    
    19   18   19 1    
    20   18   27 1    
    21   19   20 2    
    22   20   21 1    
    23   21   22 ar   
    24   21   27 ar   
    25   22   23 1    
    26   22   24 ar   
    27   24   25 ar   
    28   25   26 ar   
    29   26   27 ar   
@<TRIPOS>SUBSTRUCTURE
     1 ADP401      1 GROUP   
@<TRIPOS>SET
ATOM$ORANGE STATIC     ATOMS   COLORGROUP SYSTEM 
20 10 10 11 11 13 13 15 15 17 17 19 19 21 21 22 22 25 \
25 27 27 

