#    Name: 6mry_2_I3C
#    Modification time : Fri May 22 19:29:05 2020

@<TRIPOS>MOLECULE
6mry_2_I3C
   16    16     1     0     0
SMALL
NO_CHARGES


@<TRIPOS>ATOM
      1 I3         23.1900   -5.4290  -35.9310 I         1 I3C101      0.0000 
      2 I2         18.8480   -9.0610  -38.2330 I         1 I3C101      0.0000 
      3 I1         20.1950   -9.2830  -32.3680 I         1 I3C101      0.0000 
      4 O8         23.4430   -7.6050  -33.0210 O.co2     1 I3C101      0.0000 
      5 O9         22.0700   -5.9910  -32.5590 O.co2     1 I3C101      0.0000 
      6 C10        18.7430   -9.9440  -35.1350 C.2       1 I3C101      0.0000 
      7 N13        21.2270   -6.8120  -38.0970 N.pl3     1 I3C101      0.0000 
      8 C1         21.5260   -7.4650  -34.4390 C.ar      1 I3C101      0.0000 
      9 C6         21.7350   -6.9440  -35.7000 C.ar      1 I3C101      0.0000 
     10 C5         20.9880   -7.3810  -36.7870 C.ar      1 I3C101      0.0000 
     11 C4         20.0240   -8.3560  -36.6130 C.ar      1 I3C101      0.0000 
     12 C3         19.8140   -8.8800  -35.3450 C.ar      1 I3C101      0.0000 
     13 C2         20.5660   -8.4420  -34.2690 C.ar      1 I3C101      0.0000 
     14 C7         22.3820   -6.9780  -33.2680 C.2       1 I3C101      0.0000 
     15 O11        17.6210   -9.5520  -34.7110 O.co2     1 I3C101      0.0000 
     16 O12        18.9760  -11.1590  -35.3660 O.co2     1 I3C101      0.0000 
@<TRIPOS>BOND
     1    1    9 1    
     2    2   11 1    
     3    3   13 1    
     4    4   14 ar   
     5    5   14 ar   
     6    6   12 1    
     7    6   15 ar   
     8    6   16 ar   
     9    7   10 1    
    10    8    9 ar   
    11    8   13 ar   
    12    8   14 1    
    13    9   10 ar   
    14   10   11 ar   
    15   11   12 ar   
    16   12   13 ar   
@<TRIPOS>SUBSTRUCTURE
     1 I3C101      1 GROUP   
@<TRIPOS>SET

