#    Name: 6mry_4_I3C_CAVITY_N1_4
#    Modification time : Fri May 22 19:29:09 2020

@<TRIPOS>MOLECULE
6mry_4_I3C_CAVITY_N1_4
   75     0     6     0     0
SMALL
NO_CHARGES


@<TRIPOS>ATOM
      1 OG         12.5800  -15.7600  -40.3100 O.3       1 SER1        0.0000 
      2 N           4.7000  -14.9600  -41.8700 N.am      2 ALA2        0.0000 
      3 N           5.3700  -16.2700  -41.6000 N.am      2 ALA2        0.0000 
      4 N           4.2500  -13.1000  -40.1100 N.am      2 ALA2        0.0000 
      5 N           5.7500  -14.2500  -41.0700 N.am      2 ALA2        0.0000 
      6 N           4.9200  -14.4200  -39.8300 N.am      2 ALA2        0.0000 
      7 N           6.4200  -15.5700  -40.7900 N.am      2 ALA2        0.0000 
      8 N           7.9200  -16.7200  -41.7500 N.am      2 ALA2        0.0000 
      9 O           7.0900  -16.8800  -40.5200 O.2       2 ALA2        0.0000 
     10 N           8.5900  -18.0400  -41.4800 N.am      2 ALA2        0.0000 
     11 N           6.9700  -12.0700  -41.7800 N.am      2 ALA2        0.0000 
     12 N           7.1900  -11.5300  -39.7400 N.am      2 ALA2        0.0000 
     13 N           9.5200  -12.5200  -41.9400 N.am      2 ALA2        0.0000 
     14 N           8.6900  -12.6800  -40.7000 N.am      2 ALA2        0.0000 
     15 N           9.9100  -10.5000  -41.4200 N.am      2 ALA2        0.0000 
     16 N           9.0800  -10.6600  -40.1800 N.am      2 ALA2        0.0000 
     17 N           8.2500  -10.8300  -38.9400 N.am      2 ALA2        0.0000 
     18 N          11.6300  -11.1100  -40.3400 N.am      2 ALA2        0.0000 
     19 N          10.8000  -11.2700  -39.1000 N.am      2 ALA2        0.0000 
     20 N          12.6900  -10.4100  -39.5400 N.am      2 ALA2        0.0000 
     21 N          11.8500  -10.5700  -38.3000 N.am      2 ALA2        0.0000 
     22 N          12.5200  -11.8900  -38.0200 N.am      2 ALA2        0.0000 
     23 OD1         5.5300  -14.8000  -43.1100 O.co2     3 ASP3        0.0000 
     24 OD1         6.2000  -16.1100  -42.8300 O.co2     3 ASP3        0.0000 
     25 OD1         8.9700  -16.0200  -40.9500 O.co2     3 ASP3        0.0000 
     26 OD1         8.1400  -16.1800  -39.7200 O.co2     3 ASP3        0.0000 
     27 OD1         9.6400  -17.3300  -40.6800 O.co2     3 ASP3        0.0000 
     28 OD1        10.0300  -15.3100  -40.1500 O.co2     3 ASP3        0.0000 
     29 OD1         9.1900  -15.4700  -38.9100 O.co2     3 ASP3        0.0000 
     30 OD1        10.7000  -16.6300  -39.8700 O.co2     3 ASP3        0.0000 
     31 OD1         8.7500  -13.6200  -37.1500 O.co2     3 ASP3        0.0000 
     32 OD1        10.2500  -14.7700  -38.1100 O.co2     3 ASP3        0.0000 
     33 NZ          5.3100  -12.4000  -39.3100 N.4       4 LYS4        0.0000 
     34 NZ          6.3600  -11.6900  -38.5100 N.4       4 LYS4        0.0000 
     35 NZ          7.0300  -13.0100  -38.2300 N.4       4 LYS4        0.0000 
     36 CA          5.0800  -12.9400  -41.3500 C.3       5 GLY6        0.0000 
     37 CA          8.0800  -15.2400  -43.2700 C.3       5 GLY6        0.0000 
     38 CA          8.7500  -16.5600  -42.9900 C.3       5 GLY6        0.0000 
     39 CA          6.1400  -12.2400  -40.5500 C.3       5 GLY6        0.0000 
     40 CA          5.9700  -13.7100  -39.0300 C.3       5 GLY6        0.0000 
     41 CA          9.9700  -14.3800  -43.7000 C.3       5 GLY6        0.0000 
     42 CA          7.4700  -14.8600  -39.9900 C.3       5 GLY6        0.0000 
     43 CA          9.8100  -15.8500  -42.1900 C.3       5 GLY6        0.0000 
     44 CA         10.4700  -17.1700  -41.9100 C.3       5 GLY6        0.0000 
     45 CA         11.1400  -18.4800  -41.6400 C.3       5 GLY6        0.0000 
     46 CA          7.6900  -14.3200  -37.9500 C.3       5 GLY6        0.0000 
     47 CA         12.3600  -16.3000  -42.3500 C.3       5 GLY6        0.0000 
     48 CA         12.2000  -17.7800  -40.8300 C.3       5 GLY6        0.0000 
     49 CA         10.9700   -9.8000  -40.6100 C.3       5 GLY6        0.0000 
     50 CA         10.1300   -9.9600  -39.3800 C.3       5 GLY6        0.0000 
     51 CA          9.3000  -10.1200  -38.1400 C.3       5 GLY6        0.0000 
     52 CA          9.9700  -11.4400  -37.8600 C.3       5 GLY6        0.0000 
     53 CA          9.1400  -11.6000  -36.6300 C.3       5 GLY6        0.0000 
     54 CA         10.6400  -12.7500  -37.5900 C.3       5 GLY6        0.0000 
     55 CA          9.8000  -12.9100  -36.3500 C.3       5 GLY6        0.0000 
     56 CA         11.6900  -12.0500  -36.7800 C.3       5 GLY6        0.0000 
     57 DU          6.5800  -14.0900  -42.3100 H         6 CUB7        0.0000 
     58 DU          7.2500  -15.4100  -42.0300 H         6 CUB7        0.0000 
     59 DU          8.4700  -13.2300  -42.7400 H         6 CUB7        0.0000 
     60 DU          7.6400  -13.3900  -41.5100 H         6 CUB7        0.0000 
     61 DU          6.8100  -13.5500  -40.2700 H         6 CUB7        0.0000 
     62 DU          9.1400  -14.5400  -42.4700 H         6 CUB7        0.0000 
     63 DU          8.3100  -14.7000  -41.2300 H         6 CUB7        0.0000 
     64 DU          7.8600  -12.8500  -39.4700 H         6 CUB7        0.0000 
     65 DU          9.3600  -14.0000  -40.4300 H         6 CUB7        0.0000 
     66 DU          8.5300  -14.1600  -39.1900 H         6 CUB7        0.0000 
     67 DU         10.8600  -15.1500  -41.3900 H         6 CUB7        0.0000 
     68 DU         11.5300  -16.4600  -41.1100 H         6 CUB7        0.0000 
     69 DU          9.7500  -11.9800  -39.9000 H         6 CUB7        0.0000 
     70 DU          8.9100  -12.1400  -38.6700 H         6 CUB7        0.0000 
     71 DU          9.5800  -13.4600  -38.3900 H         6 CUB7        0.0000 
     72 DU         11.0800  -14.6100  -39.3500 H         6 CUB7        0.0000 
     73 DU         12.4700  -10.9500  -41.5700 H         6 CUB7        0.0000 
     74 DU         12.3000  -12.4300  -40.0600 H         6 CUB7        0.0000 
     75 DU         11.4700  -12.5900  -38.8200 H         6 CUB7        0.0000 
@<TRIPOS>BOND
@<TRIPOS>SUBSTRUCTURE
     1 SER1        1 GROUP   
     2 ALA2        2 GROUP   
     3 ASP3       23 GROUP   
     4 LYS4       33 GROUP   
     5 GLY6       36 GROUP   
     6 CUB7       57 GROUP   
@<TRIPOS>SET

