#    Name: 6mry_4_I3C
#    Modification time : Fri May 22 19:29:08 2020

@<TRIPOS>MOLECULE
6mry_4_I3C
   16    16     1     0     0
SMALL
NO_CHARGES


@<TRIPOS>ATOM
      1 I3         14.1430  -14.3320  -40.1650 I         1 I3C101      0.0000 
      2 I2          9.3910  -17.8480  -41.6260 I         1 I3C101      0.0000 
      3 I1          8.8020  -13.8950  -37.1790 I         1 I3C101      0.0000 
      4 O8         11.9840  -12.0960  -38.4960 O.co2     1 I3C101      0.0000 
      5 O9         12.4890  -13.5190  -36.8930 O.co2     1 I3C101      0.0000 
      6 C10         8.0750  -16.1860  -39.2840 C.2       1 I3C101      0.0000 
      7 N13        12.2700  -16.6480  -41.7290 N.pl3     1 I3C101      0.0000 
      8 C1         11.3640  -14.3670  -38.8720 C.ar      1 I3C101      0.0000 
      9 C6         12.1350  -14.9580  -39.8730 C.ar      1 I3C101      0.0000 
     10 C5         11.5620  -15.9570  -40.6600 C.ar      1 I3C101      0.0000 
     11 C4         10.2620  -16.3340  -40.4440 C.ar      1 I3C101      0.0000 
     12 C3          9.5140  -15.7450  -39.4570 C.ar      1 I3C101      0.0000 
     13 C2         10.0450  -14.7540  -38.6660 C.ar      1 I3C101      0.0000 
     14 C7         11.9820  -13.2680  -38.0240 C.2       1 I3C101      0.0000 
     15 O11         7.8170  -17.2110  -38.6320 O.co2     1 I3C101      0.0000 
     16 O12         7.1590  -15.5220  -39.8440 O.co2     1 I3C101      0.0000 
@<TRIPOS>BOND
     1    1    9 1    
     2    2   11 1    
     3    3   13 1    
     4    4   14 ar   
     5    5   14 ar   
     6    6   12 1    
     7    6   15 ar   
     8    6   16 ar   
     9    7   10 1    
    10    8    9 ar   
    11    8   13 ar   
    12    8   14 1    
    13    9   10 ar   
    14   10   11 ar   
    15   11   12 ar   
    16   12   13 ar   
@<TRIPOS>SUBSTRUCTURE
     1 I3C101      1 GROUP   
@<TRIPOS>SET

