#    Name: 6mry_2_I3C_CAVITY_N1_4
#    Modification time : Fri May 22 19:29:06 2020

@<TRIPOS>MOLECULE
6mry_2_I3C_CAVITY_N1_4
   76     0     7     0     0
SMALL
NO_CHARGES


@<TRIPOS>ATOM
      1 OG         19.4600   -8.0400  -36.4900 O.3       1 SER1        0.0000 
      2 OG         18.6300   -8.2000  -35.2500 O.3       1 SER1        0.0000 
      3 N          19.3500  -13.3900  -37.2600 N.am      2 ALA2        0.0000 
      4 N          18.9100  -11.5300  -35.5000 N.am      2 ALA2        0.0000 
      5 N          20.4100  -12.6900  -36.4600 N.am      2 ALA2        0.0000 
      6 N          19.5700  -12.8500  -35.2200 N.am      2 ALA2        0.0000 
      7 N          21.0700  -14.0000  -36.1800 N.am      2 ALA2        0.0000 
      8 N          20.6300  -12.1400  -34.4200 N.am      2 ALA2        0.0000 
      9 N          20.4600  -13.6200  -32.9100 N.am      2 ALA2        0.0000 
     10 N          23.4500   -5.7600  -35.3200 N.am      2 ALA2        0.0000 
     11 N          24.1200   -7.0800  -35.0400 N.am      2 ALA2        0.0000 
     12 O          23.2900   -7.2400  -33.8000 O.2       2 ALA2        0.0000 
     13 O          22.4500   -7.4000  -32.5700 O.2       2 ALA2        0.0000 
     14 N          25.1700   -6.3700  -34.2400 N.am      2 ALA2        0.0000 
     15 O          24.3400   -6.5400  -33.0000 O.2       2 ALA2        0.0000 
     16 N          26.6700   -7.5300  -35.2000 N.am      2 ALA2        0.0000 
     17 N          25.0100   -7.8500  -32.7300 N.am      2 ALA2        0.0000 
     18 N          25.6800   -9.1700  -32.4500 N.am      2 ALA2        0.0000 
     19 N          26.7300   -8.4600  -31.6500 N.am      2 ALA2        0.0000 
     20 OD1        19.6800   -7.5000  -34.4500 O.co2     3 ASP3        0.0000 
     21 OD1        20.7300   -6.7900  -33.6500 O.co2     3 ASP3        0.0000 
     22 OD1        21.4000   -8.1100  -33.3700 O.co2     3 ASP3        0.0000 
     23 OD1        21.7900   -6.0900  -32.8400 O.co2     3 ASP3        0.0000 
     24 OD1        26.5100   -9.0000  -33.6900 O.co2     3 ASP3        0.0000 
     25 OD1        26.9000   -6.9800  -33.1600 O.co2     3 ASP3        0.0000 
     26 NZ         22.0700   -9.4200  -33.0900 N.4       4 LYS4        0.0000 
     27 NZ         21.2400   -9.5800  -31.8600 N.4       4 LYS4        0.0000 
     28 NZ         23.7900  -10.0300  -32.0100 N.4       4 LYS4        0.0000 
     29 CZ         20.2900   -7.8800  -37.7200 C.ar      5 PHE5        0.0000 
     30 CA         17.4100  -10.3800  -34.5400 C.3       6 GLY6        0.0000 
     31 CA         19.2900   -9.5200  -34.9700 C.3       6 GLY6        0.0000 
     32 CA         19.1300  -10.9900  -33.4600 C.3       6 GLY6        0.0000 
     33 CA         19.8000  -12.3100  -33.1800 C.3       6 GLY6        0.0000 
     34 CA         22.1300  -13.3000  -35.3800 C.3       6 GLY6        0.0000 
     35 CA         21.3000  -13.4600  -34.1400 C.3       6 GLY6        0.0000 
     36 CA         21.5100   -5.7000  -38.4400 C.3       6 GLY6        0.0000 
     37 CA         20.6800   -5.8600  -37.2000 C.3       6 GLY6        0.0000 
     38 CA         21.3400   -7.1700  -36.9200 C.3       6 GLY6        0.0000 
     39 CA         20.5100   -7.3300  -35.6800 C.3       6 GLY6        0.0000 
     40 CA         20.3500   -8.8100  -34.1700 C.3       6 GLY6        0.0000 
     41 CA         20.1800  -10.2900  -32.6600 C.3       6 GLY6        0.0000 
     42 CA         22.5600   -4.9900  -37.6300 C.3       6 GLY6        0.0000 
     43 CA         21.7300   -5.1500  -36.4000 C.3       6 GLY6        0.0000 
     44 CA         23.2300   -6.3100  -37.3600 C.3       6 GLY6        0.0000 
     45 CA         22.4000   -6.4700  -36.1200 C.3       6 GLY6        0.0000 
     46 CA         21.5700   -6.6300  -34.8800 C.3       6 GLY6        0.0000 
     47 CA         20.5700   -8.2700  -32.1300 C.3       6 GLY6        0.0000 
     48 CA         22.6200   -5.9300  -34.0800 C.3       6 GLY6        0.0000 
     49 CA         23.1200   -8.7200  -32.2900 C.3       6 GLY6        0.0000 
     50 CA         23.6700   -5.2200  -33.2800 C.3       6 GLY6        0.0000 
     51 CA         24.8400   -9.3300  -31.2100 C.3       6 GLY6        0.0000 
     52 CA         26.2300   -5.6700  -33.4400 C.3       6 GLY6        0.0000 
     53 DU         19.0700  -10.0600  -37.0100 H         7 CUB7        0.0000 
     54 DU         18.2400  -10.2200  -35.7700 H         7 CUB7        0.0000 
     55 DU         19.7400  -11.3700  -36.7300 H         7 CUB7        0.0000 
     56 DU         21.1200   -7.7100  -38.9600 H         7 CUB7        0.0000 
     57 DU         20.9600   -9.1900  -37.4500 H         7 CUB7        0.0000 
     58 DU         20.1300   -9.3500  -36.2100 H         7 CUB7        0.0000 
     59 DU         19.9600  -10.8300  -34.7000 H         7 CUB7        0.0000 
     60 DU         22.2900  -11.8200  -36.8900 H         7 CUB7        0.0000 
     61 DU         21.4600  -11.9800  -35.6600 H         7 CUB7        0.0000 
     62 DU         22.1800   -7.0100  -38.1600 H         7 CUB7        0.0000 
     63 DU         21.1800   -8.6500  -35.4100 H         7 CUB7        0.0000 
     64 DU         21.0100  -10.1300  -33.8900 H         7 CUB7        0.0000 
     65 DU         22.5100  -11.2800  -34.8500 H         7 CUB7        0.0000 
     66 DU         21.6800  -11.4400  -33.6200 H         7 CUB7        0.0000 
     67 DU         23.0700   -7.7800  -35.8400 H         7 CUB7        0.0000 
     68 DU         22.2300   -7.9400  -34.6100 H         7 CUB7        0.0000 
     69 DU         24.4000  -10.4100  -35.2900 H         7 CUB7        0.0000 
     70 DU         23.5700  -10.5700  -34.0500 H         7 CUB7        0.0000 
     71 DU         25.6200   -8.2300  -36.0000 H         7 CUB7        0.0000 
     72 DU         24.7900   -8.3900  -34.7600 H         7 CUB7        0.0000 
     73 DU         23.9600   -8.5500  -33.5300 H         7 CUB7        0.0000 
     74 DU         25.4600   -9.7100  -34.4900 H         7 CUB7        0.0000 
     75 DU         24.6200   -9.8700  -33.2500 H         7 CUB7        0.0000 
     76 DU         25.8400   -7.6900  -33.9600 H         7 CUB7        0.0000 
@<TRIPOS>BOND
@<TRIPOS>SUBSTRUCTURE
     1 SER1        1 GROUP   
     2 ALA2        3 GROUP   
     3 ASP3       20 GROUP   
     4 LYS4       26 GROUP   
     5 PHE5       29 GROUP   
     6 GLY6       30 GROUP   
     7 CUB7       53 GROUP   
@<TRIPOS>SET

