#    Name: 6sky_2_AGS
#    Modification time : Fri May 22 19:25:38 2020

@<TRIPOS>MOLECULE
6sky_2_AGS
   31    33     1     0     0
SMALL
NO_CHARGES


@<TRIPOS>ATOM
      1 PG        151.5630  170.0110  262.5240 P.3       1 AGS3001     0.0000 
      2 S1G       152.7470  168.9310  261.4150 S.2       1 AGS3001     0.0000 
      3 O2G       152.1480  171.4360  262.7070 O.3       1 AGS3001     0.0000 
      4 O3G       151.3990  169.3430  263.9160 O.3       1 AGS3001     0.0000 
      5 PB        149.9630  171.0820  260.6390 P.3       1 AGS3001     0.0000 
      6 O1B       151.2300  171.2440  259.9040 O.co2     1 AGS3001     0.0000 
      7 O2B       148.8210  170.4550  259.8430 O.co2     1 AGS3001     0.0000 
      8 O3B       150.1600  170.1390  261.8770 O.3       1 AGS3001     0.0000 
      9 PA        148.0550  173.0460  260.7070 P.3       1 AGS3001     0.0000 
     10 O1A       147.0490  172.7260  261.7250 O.co2     1 AGS3001     0.0000 
     11 O2A       148.2350  174.5380  260.4330 O.co2     1 AGS3001     0.0000 
     12 O3A       149.4740  172.4990  261.1180 O.3       1 AGS3001     0.0000 
     13 O5'       147.6450  172.2830  259.4020 O.3       1 AGS3001     0.0000 
     14 C5'       146.4150  172.6380  258.7570 C.3       1 AGS3001     0.0000 
     15 C4'       146.3760  172.0420  257.3770 C.3       1 AGS3001     0.0000 
     16 O4'       146.1620  173.0900  256.4140 O.3       1 AGS3001     0.0000 
     17 C3'       147.6460  171.3300  256.9310 C.3       1 AGS3001     0.0000 
     18 O3'       147.3480  170.2660  256.0370 O.3       1 AGS3001     0.0000 
     19 C2'       148.4380  172.4430  256.2500 C.3       1 AGS3001     0.0000 
     20 O2'       149.2530  171.9260  255.2090 O.3       1 AGS3001     0.0000 
     21 C1'       147.3360  173.3230  255.6610 C.3       1 AGS3001     0.0000 
     22 N9        147.6390  174.7440  255.7220 N.pl3     1 AGS3001     0.0000 
     23 C8        148.2770  175.4070  256.7320 C.2       1 AGS3001     0.0000 
     24 N7        148.4130  176.6920  256.5250 N.2       1 AGS3001     0.0000 
     25 C5        147.8170  176.8880  255.2920 C.ar      1 AGS3001     0.0000 
     26 C6        147.6330  178.0360  254.5020 C.ar      1 AGS3001     0.0000 
     27 N6        148.0440  179.2540  254.8570 N.pl3     1 AGS3001     0.0000 
     28 N1        147.0010  177.8880  253.3220 N.ar      1 AGS3001     0.0000 
     29 C2        146.5870  176.6720  252.9620 C.ar      1 AGS3001     0.0000 
     30 N3        146.7050  175.5190  253.6210 N.ar      1 AGS3001     0.0000 
     31 C4        147.3360  175.6970  254.7850 C.ar      1 AGS3001     0.0000 
@<TRIPOS>BOND
     1    1    2 2    
     2    1    3 1    
     3    1    4 1    
     4    1    8 1    
     5    5    6 ar   
     6    5    7 ar   
     7    5    8 1    
     8    5   12 1    
     9    9   10 ar   
    10    9   11 ar   
    11    9   12 1    
    12    9   13 1    
    13   13   14 1    
    14   14   15 1    
    15   15   16 1    
    16   15   17 1    
    17   16   21 1    
    18   17   18 1    
    19   17   19 1    
    20   19   20 1    
    21   19   21 1    
    22   21   22 1    
    23   22   23 1    
    24   22   31 1    
    25   23   24 2    
    26   24   25 1    
    27   25   26 ar   
    28   25   31 ar   
    29   26   27 1    
    30   26   28 ar   
    31   28   29 ar   
    32   29   30 ar   
    33   30   31 ar   
@<TRIPOS>SUBSTRUCTURE
     1 AGS3001     1 GROUP   
@<TRIPOS>SET

