#    Name: 6sky_1_AGS
#    Modification time : Fri May 22 19:25:27 2020

@<TRIPOS>MOLECULE
6sky_1_AGS
   31    33     1     0     0
SMALL
NO_CHARGES


@<TRIPOS>ATOM
      1 PG        221.2050  202.7570  262.5240 P.3       1 AGS3001     0.0000 
      2 S1G       220.0210  203.8370  261.4150 S.2       1 AGS3001     0.0000 
      3 O2G       220.6200  201.3320  262.7070 O.3       1 AGS3001     0.0000 
      4 O3G       221.3690  203.4250  263.9160 O.3       1 AGS3001     0.0000 
      5 PB        222.8050  201.6860  260.6390 P.3       1 AGS3001     0.0000 
      6 O1B       221.5380  201.5240  259.9040 O.co2     1 AGS3001     0.0000 
      7 O2B       223.9470  202.3130  259.8430 O.co2     1 AGS3001     0.0000 
      8 O3B       222.6080  202.6290  261.8770 O.3       1 AGS3001     0.0000 
      9 PA        224.7130  199.7220  260.7070 P.3       1 AGS3001     0.0000 
     10 O1A       225.7190  200.0420  261.7250 O.co2     1 AGS3001     0.0000 
     11 O2A       224.5330  198.2300  260.4330 O.co2     1 AGS3001     0.0000 
     12 O3A       223.2940  200.2690  261.1180 O.3       1 AGS3001     0.0000 
     13 O5'       225.1230  200.4850  259.4020 O.3       1 AGS3001     0.0000 
     14 C5'       226.3530  200.1300  258.7570 C.3       1 AGS3001     0.0000 
     15 C4'       226.3920  200.7260  257.3770 C.3       1 AGS3001     0.0000 
     16 O4'       226.6060  199.6780  256.4140 O.3       1 AGS3001     0.0000 
     17 C3'       225.1220  201.4380  256.9310 C.3       1 AGS3001     0.0000 
     18 O3'       225.4200  202.5020  256.0370 O.3       1 AGS3001     0.0000 
     19 C2'       224.3300  200.3250  256.2500 C.3       1 AGS3001     0.0000 
     20 O2'       223.5150  200.8420  255.2090 O.3       1 AGS3001     0.0000 
     21 C1'       225.4320  199.4450  255.6610 C.3       1 AGS3001     0.0000 
     22 N9        225.1290  198.0240  255.7220 N.pl3     1 AGS3001     0.0000 
     23 C8        224.4910  197.3610  256.7320 C.2       1 AGS3001     0.0000 
     24 N7        224.3550  196.0760  256.5250 N.2       1 AGS3001     0.0000 
     25 C5        224.9510  195.8800  255.2920 C.ar      1 AGS3001     0.0000 
     26 C6        225.1350  194.7320  254.5020 C.ar      1 AGS3001     0.0000 
     27 N6        224.7240  193.5140  254.8570 N.pl3     1 AGS3001     0.0000 
     28 N1        225.7670  194.8800  253.3220 N.ar      1 AGS3001     0.0000 
     29 C2        226.1810  196.0960  252.9620 C.ar      1 AGS3001     0.0000 
     30 N3        226.0630  197.2490  253.6210 N.ar      1 AGS3001     0.0000 
     31 C4        225.4320  197.0710  254.7850 C.ar      1 AGS3001     0.0000 
@<TRIPOS>BOND
     1    1    2 2    
     2    1    3 1    
     3    1    4 1    
     4    1    8 1    
     5    5    6 ar   
     6    5    7 ar   
     7    5    8 1    
     8    5   12 1    
     9    9   10 ar   
    10    9   11 ar   
    11    9   12 1    
    12    9   13 1    
    13   13   14 1    
    14   14   15 1    
    15   15   16 1    
    16   15   17 1    
    17   16   21 1    
    18   17   18 1    
    19   17   19 1    
    20   19   20 1    
    21   19   21 1    
    22   21   22 1    
    23   22   23 1    
    24   22   31 1    
    25   23   24 2    
    26   24   25 1    
    27   25   26 ar   
    28   25   31 ar   
    29   26   27 1    
    30   26   28 ar   
    31   28   29 ar   
    32   29   30 ar   
    33   30   31 ar   
@<TRIPOS>SUBSTRUCTURE
     1 AGS3001     1 GROUP   
@<TRIPOS>SET

