#    Name: 5zc2_1_FMN
#    Modification time : Fri May 22 19:24:16 2020

@<TRIPOS>MOLECULE
5zc2_1_FMN
   31    33     1     0     1
SMALL
NO_CHARGES


@<TRIPOS>ATOM
      1 N1         56.1650  111.8610  200.2340 N.2       1 FMN401      0.0000 
      2 C2         56.0790  111.6850  201.5980 C.2       1 FMN401      0.0000 
      3 O2         57.0550  111.2730  202.2210 O.2       1 FMN401      0.0000 
      4 N3         54.9010  111.9700  202.2610 N.am      1 FMN401      0.0000 
      5 C4         53.8080  112.4330  201.5570 C.2       1 FMN401      0.0000 
      6 O4         52.7580  112.6860  202.1430 O.2       1 FMN401      0.0000 
      7 C4A        53.8930  112.6120  200.1830 C.2       1 FMN401      0.0000 
      8 N5         52.8010  113.0730  199.4820 N.2       1 FMN401      0.0000 
      9 C5A        52.8840  113.2540  198.1170 C.ar      1 FMN401      0.0000 
     10 C6         51.7790  113.7220  197.4160 C.ar      1 FMN401      0.0000 
     11 C7         51.8560  113.9050  196.0400 C.ar      1 FMN401      0.0000 
     12 C7M        50.6600  114.4090  195.2870 C.3       1 FMN401      0.0000 
     13 C8         53.0390  113.6210  195.3670 C.ar      1 FMN401      0.0000 
     14 C8M        53.1230  113.8180  193.8830 C.3       1 FMN401      0.0000 
     15 C9         54.1460  113.1530  196.0690 C.ar      1 FMN401      0.0000 
     16 C9A        54.0690  112.9680  197.4460 C.ar      1 FMN401      0.0000 
     17 N10        55.1640  112.5020  198.1490 N.pl3     1 FMN401      0.0000 
     18 C10        55.0790  112.3260  199.5180 C.2       1 FMN401      0.0000 
     19 C1'        56.4470  112.1990  197.4340 C.3       1 FMN401      0.0000 
     20 C2'        57.4340  113.3230  197.7350 C.3       1 FMN401      0.0000 
     21 O2'        57.5010  114.2010  196.6360 O.3       1 FMN401      0.0000 
     22 C3'        58.8210  112.7760  198.0640 C.3       1 FMN401      0.0000 
     23 O3'        59.5510  113.7250  198.8110 O.3       1 FMN401      0.0000 
     24 C4'        59.6110  112.4270  196.8110 C.3       1 FMN401      0.0000 
     25 O4'        59.5670  111.0320  196.6220 O.3       1 FMN401      0.0000 
     26 C5'        61.0550  112.8940  196.9640 C.3       1 FMN401      0.0000 
     27 O5'        61.8340  111.9050  197.6060 O.3       1 FMN401      0.0000 
     28 P          63.0240  112.3020  198.6250 P.3       1 FMN401      0.0000 
     29 O1P        63.6070  111.0230  199.1830 O.co2     1 FMN401      0.0000 
     30 O2P        64.0910  113.0970  197.9050 O.co2     1 FMN401      0.0000 
     31 O3P        62.4700  113.1300  199.7640 O.co2     1 FMN401      0.0000 
@<TRIPOS>BOND
     1    1    2 1    
     2    1   18 2    
     3    2    3 2    
     4    2    4 am   
     5    4    5 am   
     6    5    6 2    
     7    5    7 1    
     8    7    8 2    
     9    7   18 1    
    10    8    9 1    
    11    9   10 ar   
    12    9   16 ar   
    13   10   11 ar   
    14   11   12 1    
    15   11   13 ar   
    16   13   14 1    
    17   13   15 ar   
    18   15   16 ar   
    19   16   17 1    
    20   17   18 1    
    21   17   19 1    
    22   19   20 1    
    23   20   21 1    
    24   20   22 1    
    25   22   23 1    
    26   22   24 1    
    27   24   25 1    
    28   24   26 1    
    29   26   27 1    
    30   27   28 1    
    31   28   29 ar   
    32   28   30 ar   
    33   28   31 ar   
@<TRIPOS>SUBSTRUCTURE
     1 FMN401      1 GROUP   
@<TRIPOS>SET
ATOM$ORANGE STATIC     ATOMS   COLORGROUP SYSTEM 
34 2 2 5 5 7 7 9 9 10 10 11 11 12 12 13 13 14 \
14 15 15 16 16 18 18 19 19 20 20 22 22 24 24 26 26 

