#    Name: 5zc2_2_FMN
#    Modification time : Fri May 22 19:24:25 2020

@<TRIPOS>MOLECULE
5zc2_2_FMN
   31    33     1     0     1
SMALL
NO_CHARGES


@<TRIPOS>ATOM
      1 N1         35.1930  117.3550  214.6340 N.2       1 FMN401      0.0000 
      2 C2         36.3500  116.7410  215.0600 C.2       1 FMN401      0.0000 
      3 O2         36.4760  116.4400  216.2470 O.2       1 FMN401      0.0000 
      4 N3         37.3610  116.4660  214.1610 N.am      1 FMN401      0.0000 
      5 C4         37.2180  116.8050  212.8310 C.2       1 FMN401      0.0000 
      6 O4         38.1170  116.5600  212.0280 O.2       1 FMN401      0.0000 
      7 C4A        36.0520  117.4240  212.4000 C.2       1 FMN401      0.0000 
      8 N5         35.8940  117.7720  211.0750 N.2       1 FMN401      0.0000 
      9 C5A        34.7320  118.3830  210.6550 C.ar      1 FMN401      0.0000 
     10 C6         34.5850  118.7250  209.3170 C.ar      1 FMN401      0.0000 
     11 C7         33.4210  119.3440  208.8800 C.ar      1 FMN401      0.0000 
     12 C7M        33.2700  119.7100  207.4330 C.3       1 FMN401      0.0000 
     13 C8         32.4010  119.6220  209.7850 C.ar      1 FMN401      0.0000 
     14 C8M        31.1400  120.2900  209.3190 C.3       1 FMN401      0.0000 
     15 C9         32.5530  119.2800  211.1250 C.ar      1 FMN401      0.0000 
     16 C9A        33.7170  118.6580  211.5660 C.ar      1 FMN401      0.0000 
     17 N10        33.8810  118.3110  212.8970 N.pl3     1 FMN401      0.0000 
     18 C10        35.0420  117.6970  213.3090 C.2       1 FMN401      0.0000 
     19 C1'        32.8200  118.5730  213.9240 C.3       1 FMN401      0.0000 
     20 C2'        31.8460  117.3970  213.8870 C.3       1 FMN401      0.0000 
     21 O2'        30.7070  117.8000  213.1680 O.3       1 FMN401      0.0000 
     22 C3'        31.4250  116.8620  215.2570 C.3       1 FMN401      0.0000 
     23 O3'        30.6240  115.7160  215.0640 O.3       1 FMN401      0.0000 
     24 C4'        30.6360  117.8660  216.0910 C.3       1 FMN401      0.0000 
     25 O4'        31.5120  118.7800  216.7130 O.3       1 FMN401      0.0000 
     26 C5'        29.8080  117.1500  217.1590 C.3       1 FMN401      0.0000 
     27 O5'        30.5920  116.1770  217.8220 O.3       1 FMN401      0.0000 
     28 P          30.0340  115.3500  219.0940 P.3       1 FMN401      0.0000 
     29 O1P        28.8250  114.5490  218.6720 O.co2     1 FMN401      0.0000 
     30 O2P        31.0990  114.4030  219.5860 O.co2     1 FMN401      0.0000 
     31 O3P        29.6540  116.2980  220.2070 O.co2     1 FMN401      0.0000 
@<TRIPOS>BOND
     1    1    2 1    
     2    1   18 2    
     3    2    3 2    
     4    2    4 am   
     5    4    5 am   
     6    5    6 2    
     7    5    7 1    
     8    7    8 2    
     9    7   18 1    
    10    8    9 1    
    11    9   10 ar   
    12    9   16 ar   
    13   10   11 ar   
    14   11   12 1    
    15   11   13 ar   
    16   13   14 1    
    17   13   15 ar   
    18   15   16 ar   
    19   16   17 1    
    20   17   18 1    
    21   17   19 1    
    22   19   20 1    
    23   20   21 1    
    24   20   22 1    
    25   22   23 1    
    26   22   24 1    
    27   24   25 1    
    28   24   26 1    
    29   26   27 1    
    30   27   28 1    
    31   28   29 ar   
    32   28   30 ar   
    33   28   31 ar   
@<TRIPOS>SUBSTRUCTURE
     1 FMN401      1 GROUP   
@<TRIPOS>SET
ATOM$ORANGE STATIC     ATOMS   COLORGROUP SYSTEM 
34 2 2 5 5 7 7 9 9 10 10 11 11 12 12 13 13 14 \
14 15 15 16 16 18 18 19 19 20 20 22 22 24 24 26 26 

