#    Name: 6rtj_1_FAD
#    Modification time : Fri May 22 19:25:17 2020

@<TRIPOS>MOLECULE
6rtj_1_FAD
   83    88     1     0     1
SMALL
NO_CHARGES


@<TRIPOS>ATOM
      1 PA         22.0720    5.3970   15.0910 P.3       1 FAD601      0.0000 
      2 O1A        21.7590    4.5480   16.3380 O.co2     1 FAD601      0.0000 
      3 O2A        21.3240    4.8630   13.8920 O.co2     1 FAD601      0.0000 
      4 O5B        23.7490    5.3360   14.7740 O.3       1 FAD601      0.0000 
      5 C5B        24.6290    5.6200   15.8540 C.3       1 FAD601      0.0000 
      6 C4B        25.9910    4.8030   15.5590 C.3       1 FAD601      0.0000 
      7 O4B        27.0010    5.2280   16.2900 O.3       1 FAD601      0.0000 
      8 C3B        25.7600    3.3660   15.9850 C.3       1 FAD601      0.0000 
      9 O3B        26.3250    2.4950   15.0480 O.3       1 FAD601      0.0000 
     10 C2B        26.4880    3.2950   17.3460 C.3       1 FAD601      0.0000 
     11 O2B        26.8600    1.8760   17.7610 O.3       1 FAD601      0.0000 
     12 C1B        27.5560    3.9470   17.0710 C.3       1 FAD601      0.0000 
     13 N9A        28.2770    4.4850   18.2280 N.pl3     1 FAD601      0.0000 
     14 C8A        27.7840    4.8100   19.4700 C.2       1 FAD601      0.0000 
     15 N7A        28.7970    5.3160   20.1870 N.2       1 FAD601      0.0000 
     16 C5A        29.8910    5.3120   19.3820 C.ar      1 FAD601      0.0000 
     17 C6A        31.1610    5.7050   19.6250 C.ar      1 FAD601      0.0000 
     18 N6A        31.6900    6.2610   20.8470 N.pl3     1 FAD601      0.0000 
     19 N1A        32.1060    5.6100   18.7000 N.ar      1 FAD601      0.0000 
     20 C2A        31.7920    5.1200   17.4710 C.ar      1 FAD601      0.0000 
     21 N3A        30.5220    4.7140   17.2200 N.ar      1 FAD601      0.0000 
     22 C4A        29.5780    4.8020   18.1750 C.ar      1 FAD601      0.0000 
     23 N1         12.8890    5.4560   12.5890 N.2       1 FAD601      0.0000 
     24 C2         12.0570    5.6930   11.4080 C.2       1 FAD601      0.0000 
     25 O2         12.0990    6.7180   10.8420 O.2       1 FAD601      0.0000 
     26 N3         11.1530    4.6320   10.9060 N.am      1 FAD601      0.0000 
     27 C4         11.0260    3.3550   11.5480 C.2       1 FAD601      0.0000 
     28 O4         10.2900    2.4920   11.1350 O.2       1 FAD601      0.0000 
     29 C4X        11.8730    3.1310   12.7410 C.2       1 FAD601      0.0000 
     30 N5         11.7770    1.8680   13.4030 N.2       1 FAD601      0.0000 
     31 C5X        12.6190    1.5850   14.6090 C.ar      1 FAD601      0.0000 
     32 C6         12.5460    0.3310   15.2610 C.ar      1 FAD601      0.0000 
     33 C7         13.3180    0.1010   16.3800 C.ar      1 FAD601      0.0000 
     34 C7M        13.1040   -1.3020   16.9450 C.3       1 FAD601      0.0000 
     35 C8         14.1860    1.1310   16.8520 C.ar      1 FAD601      0.0000 
     36 C8M        15.1000    0.8830   18.1500 C.3       1 FAD601      0.0000 
     37 C9         14.2890    2.3350   16.2040 C.ar      1 FAD601      0.0000 
     38 C9A        13.4840    2.5890   15.0870 C.ar      1 FAD601      0.0000 
     39 N10        13.5580    3.9120   14.4230 N.pl3     1 FAD601      0.0000 
     40 C10        12.7650    4.1760   13.2430 C.2       1 FAD601      0.0000 
     41 C1'        14.4660    4.9570   14.9370 C.3       1 FAD601      0.0000 
     42 C2'        15.7350    5.0400   14.0690 C.3       1 FAD601      0.0000 
     43 O2'        16.4290    3.8310   14.1170 O.3       1 FAD601      0.0000 
     44 C3'        16.6050    6.1090   14.6870 C.3       1 FAD601      0.0000 
     45 O3'        15.8530    7.3070   14.7820 O.3       1 FAD601      0.0000 
     46 C4'        17.8830    6.2310   13.8500 C.3       1 FAD601      0.0000 
     47 O4'        18.5060    4.9750   13.5000 O.3       1 FAD601      0.0000 
     48 C5'        18.8690    6.9920   14.7190 C.3       1 FAD601      0.0000 
     49 O5'        19.8990    7.4850   13.8230 O.3       1 FAD601      0.0000 
     50 P          21.1770    8.1710   14.5510 P.3       1 FAD601      0.0000 
     51 O1P        22.0740    8.7220   13.4940 O.co2     1 FAD601      0.0000 
     52 O2P        20.7380    9.1520   15.5900 O.co2     1 FAD601      0.0000 
     53 O3P        21.8880    6.9870   15.4810 O.3       1 FAD601      0.0000 
     54 H51A       24.2380    5.3170   16.6890 H         1 FAD601      0.0000 
     55 H52A       24.8080    6.5720   15.8970 H         1 FAD601      0.0000 
     56 H4B        26.2170    4.8420   14.6160 H         1 FAD601      0.0000 
     57 H3B        24.8120    3.1920   16.0960 H         1 FAD601      0.0000 
     58 HO3A       26.1750    1.6920   15.2800 H         1 FAD601      0.0000 
     59 H2B        25.9750    3.7450   18.0360 H         1 FAD601      0.0000 
     60 HO2A       27.2180    1.8900   18.5320 H         1 FAD601      0.0000 
     61 H1B        28.1420    3.4240   16.5020 H         1 FAD601      0.0000 
     62 H8A        26.9080    4.6970   19.7610 H         1 FAD601      0.0000 
     63 H61A       32.0980    7.0180   20.8340 H         1 FAD601      0.0000 
     64 H62A       31.5980    5.8350   21.5880 H         1 FAD601      0.0000 
     65 H2A        32.4460    5.0500   16.8130 H         1 FAD601      0.0000 
     66 HN3        10.6680    4.7980   10.2150 H         1 FAD601      0.0000 
     67 H6         11.9380   -0.2370   14.8470 H         1 FAD601      0.0000 
     68 HM71       13.2240   -1.9560   16.2390 H         1 FAD601      0.0000 
     69 HM72       12.2100   -1.3740   17.3150 H         1 FAD601      0.0000 
     70 HM73       13.7580   -1.4690   17.6430 H         1 FAD601      0.0000 
     71 HM81       15.8210    0.2730   17.9280 H         1 FAD601      0.0000 
     72 HM82       14.5590    0.5000   18.8580 H         1 FAD601      0.0000 
     73 HM83       15.4730    1.7270   18.4500 H         1 FAD601      0.0000 
     74 H9         14.8910    2.8220   16.7190 H         1 FAD601      0.0000 
     75 H1'1       14.7240    4.7300   15.8440 H         1 FAD601      0.0000 
     76 H1'2       14.0110    5.8130   14.9380 H         1 FAD601      0.0000 
     77 H2'        15.5100    5.2700   13.1540 H         1 FAD601      0.0000 
     78 HO2'       15.9950    3.2370   13.6910 H         1 FAD601      0.0000 
     79 H3'        16.8490    5.8290   15.5840 H         1 FAD601      0.0000 
     80 H4'        17.6990    6.7390   13.0440 H         1 FAD601      0.0000 
     81 HO4'       19.1390    5.1160   12.9500 H         1 FAD601      0.0000 
     82 H5'1       18.4300    7.7340   15.1630 H         1 FAD601      0.0000 
     83 H5'2       19.2600    6.4010   15.3810 H         1 FAD601      0.0000 
@<TRIPOS>BOND
     1    1    2 ar   
     2    1    3 ar   
     3    1    4 1    
     4    1   53 1    
     5    4    5 1    
     6    5    6 1    
     7    5   54 1    
     8    5   55 1    
     9    6    7 1    
    10    6    8 1    
    11    6   56 1    
    12    7   12 1    
    13    8    9 1    
    14    8   10 1    
    15    8   57 1    
    16    9   58 1    
    17   10   11 1    
    18   10   12 1    
    19   10   59 1    
    20   12   61 1    
    21   12   13 1    
    22   11   60 1    
    23   13   14 1    
    24   13   22 1    
    25   14   15 2    
    26   15   16 1    
    27   14   62 1    
    28   16   17 ar   
    29   16   22 ar   
    30   17   18 1    
    31   17   19 ar   
    32   19   20 ar   
    33   18   63 1    
    34   18   64 1    
    35   20   21 ar   
    36   21   22 ar   
    37   20   65 1    
    38   23   24 1    
    39   23   40 2    
    40   24   25 2    
    41   24   26 am   
    42   26   27 am   
    43   27   28 2    
    44   26   66 1    
    45   27   29 1    
    46   29   30 2    
    47   29   40 1    
    48   30   31 1    
    49   31   32 ar   
    50   31   38 ar   
    51   32   33 ar   
    52   33   34 1    
    53   32   67 1    
    54   33   35 ar   
    55   34   68 1    
    56   34   69 1    
    57   34   70 1    
    58   35   36 1    
    59   35   37 ar   
    60   37   74 1    
    61   36   71 1    
    62   36   72 1    
    63   36   73 1    
    64   37   38 ar   
    65   38   39 1    
    66   39   40 1    
    67   39   41 1    
    68   41   42 1    
    69   41   75 1    
    70   41   76 1    
    71   42   43 1    
    72   42   44 1    
    73   42   77 1    
    74   43   78 1    
    75   44   45 1    
    76   44   46 1    
    77   44   79 1    
    78   46   47 1    
    79   46   48 1    
    80   46   80 1    
    81   48   49 1    
    82   47   81 1    
    83   48   82 1    
    84   48   83 1    
    85   49   50 1    
    86   50   51 ar   
    87   50   52 ar   
    88   50   53 1    
@<TRIPOS>SUBSTRUCTURE
     1 FAD601      1 GROUP   
@<TRIPOS>SET
ATOM$ORANGE STATIC     ATOMS   COLORGROUP SYSTEM 
54 5 5 6 6 8 8 10 10 12 12 14 14 16 16 17 17 20 \
20 22 22 24 24 27 27 29 29 31 31 32 32 33 33 34 34 35 \
35 36 36 37 37 38 38 40 40 41 41 42 42 44 44 46 46 48 \
48 

