#    Name: 6d2v_2_NDP
#    Modification time : Fri May 22 19:24:02 2020

@<TRIPOS>MOLECULE
6d2v_2_NDP
   78    82     1     0     1
SMALL
NO_CHARGES


@<TRIPOS>ATOM
      1 PA         20.6960    7.6950   -8.2430 P.3       1 NDP401      0.0000 
      2 O1A        21.0820    8.9300   -7.5390 O.co2     1 NDP401      0.0000 
      3 O2A        21.0610    7.5400   -9.7220 O.co2     1 NDP401      0.0000 
      4 O5B        19.1460    7.4030   -8.1360 O.3       1 NDP401      0.0000 
      5 C5B        18.5250    7.4970   -6.8400 C.3       1 NDP401      0.0000 
      6 C4B        17.1550    6.8850   -6.9490 C.3       1 NDP401      0.0000 
      7 O4B        16.4890    7.0000   -5.6750 O.3       1 NDP401      0.0000 
      8 C3B        16.2370    7.5450   -7.9850 C.3       1 NDP401      0.0000 
      9 O3B        15.6830    6.5670   -8.8570 O.3       1 NDP401      0.0000 
     10 C2B        15.1340    8.1980   -7.1560 C.3       1 NDP401      0.0000 
     11 O2B        13.8290    8.0940   -7.7620 O.3       1 NDP401      0.0000 
     12 C1B        15.1450    7.3770   -5.8750 C.3       1 NDP401      0.0000 
     13 N9A        14.6960    8.1350   -4.7170 N.pl3     1 NDP401      0.0000 
     14 C8A        15.3930    9.0900   -4.0270 C.2       1 NDP401      0.0000 
     15 N7A        14.6970    9.6790   -3.0830 N.2       1 NDP401      0.0000 
     16 C5A        13.4560    9.0640   -3.1580 C.ar      1 NDP401      0.0000 
     17 C6A        12.2560    9.2660   -2.4550 C.ar      1 NDP401      0.0000 
     18 N6A        12.1130   10.1700   -1.4860 N.pl3     1 NDP401      0.0000 
     19 N1A        11.1920    8.5060   -2.7980 N.ar      1 NDP401      0.0000 
     20 C2A        11.3310    7.6110   -3.7810 C.ar      1 NDP401      0.0000 
     21 N3A        12.4130    7.3330   -4.5120 N.ar      1 NDP401      0.0000 
     22 C4A        13.4450    8.1030   -4.1540 C.ar      1 NDP401      0.0000 
     23 O3         21.3220    6.4460   -7.4880 O.3       1 NDP401      0.0000 
     24 PN         22.0610    5.1470   -8.0220 P.3       1 NDP401      0.0000 
     25 O1N        21.3020    4.5090   -9.1240 O.co2     1 NDP401      0.0000 
     26 O2N        23.4990    5.5400   -8.3520 O.co2     1 NDP401      0.0000 
     27 O5D        22.1200    4.2050   -6.7250 O.3       1 NDP401      0.0000 
     28 C5D        21.1320    3.1890   -6.4660 C.3       1 NDP401      0.0000 
     29 C4D        21.5180    2.4230   -5.2270 C.3       1 NDP401      0.0000 
     30 O4D        22.8700    1.9300   -5.3660 O.3       1 NDP401      0.0000 
     31 C3D        21.4890    3.2190   -3.9190 C.3       1 NDP401      0.0000 
     32 O3D        21.0610    2.3980   -2.8390 O.3       1 NDP401      0.0000 
     33 C2D        22.9490    3.6470   -3.7680 C.3       1 NDP401      0.0000 
     34 O2D        23.3140    3.9090   -2.4180 O.3       1 NDP401      0.0000 
     35 C1D        23.6540    2.3960   -4.2870 C.3       1 NDP401      0.0000 
     36 N1N        25.0150    2.6140   -4.7610 N.pl3     1 NDP401      0.0000 
     37 C2N        25.2890    3.2040   -6.0370 C.2       1 NDP401      0.0000 
     38 C3N        26.5400    3.4050   -6.4870 C.2       1 NDP401      0.0000 
     39 C7N        26.7790    3.8820   -7.8590 C.2       1 NDP401      0.0000 
     40 O7N        25.8510    4.3300   -8.5550 O.2       1 NDP401      0.0000 
     41 N7N        28.0160    3.8030   -8.3250 N.am      1 NDP401      0.0000 
     42 C4N        27.7020    3.0770   -5.6240 C.3       1 NDP401      0.0000 
     43 C5N        27.3250    2.3730   -4.3810 C.2       1 NDP401      0.0000 
     44 C6N        26.0710    2.1980   -4.0060 C.2       1 NDP401      0.0000 
     45 P2B        13.0520    9.3290   -8.4860 P.3       1 NDP401      0.0000 
     46 O1X        11.6940    8.8810   -8.8970 O.co2     1 NDP401      0.0000 
     47 O2X        13.0470   10.4860   -7.5040 O.co2     1 NDP401      0.0000 
     48 O3X        13.9440    9.7350   -9.6780 O.co2     1 NDP401      0.0000 
     49 HOA2       21.2730    8.2940  -10.3320 H         1 NDP401      0.0000 
     50 H51A       18.4950    8.5680   -6.6440 H         1 NDP401      0.0000 
     51 H52A       19.1460    7.0860   -6.0450 H         1 NDP401      0.0000 
     52 H4B        17.1880    5.8050   -7.0860 H         1 NDP401      0.0000 
     53 H3B        16.8150    8.2460   -8.5860 H         1 NDP401      0.0000 
     54 HO3A       16.4530    6.0840   -9.2560 H         1 NDP401      0.0000 
     55 H2B        15.3640    9.2480   -6.9830 H         1 NDP401      0.0000 
     56 H1B        14.5410    6.4750   -5.9570 H         1 NDP401      0.0000 
     57 H8A        16.4310    9.3380   -4.2430 H         1 NDP401      0.0000 
     58 H61A       12.8860   10.7660   -1.2090 H         1 NDP401      0.0000 
     59 H62A       11.2200   10.2700   -1.0130 H         1 NDP401      0.0000 
     60 H2A        10.4360    7.0340   -4.0110 H         1 NDP401      0.0000 
     61 H21N       23.7950    6.1650   -9.0640 H         1 NDP401      0.0000 
     62 H51N       21.0710    2.5300   -7.3300 H         1 NDP401      0.0000 
     63 H52N       20.1740    3.6980   -6.3670 H         1 NDP401      0.0000 
     64 H4D        20.9090    1.5250   -5.1370 H         1 NDP401      0.0000 
     65 H3D        20.8460    4.0920   -4.0170 H         1 NDP401      0.0000 
     66 HO3N       20.1300    2.1350   -3.0610 H         1 NDP401      0.0000 
     67 H2D        23.1690    4.5260   -4.3720 H         1 NDP401      0.0000 
     68 HO2N       22.4670    4.0460   -1.9180 H         1 NDP401      0.0000 
     69 H1D        23.6730    1.6180   -3.5250 H         1 NDP401      0.0000 
     70 H2N        24.4040    3.4740   -6.6110 H         1 NDP401      0.0000 
     71 H71N       28.7820    3.4340   -7.7720 H         1 NDP401      0.0000 
     72 H72N       28.2770    4.1040   -9.2580 H         1 NDP401      0.0000 
     73 H41N       28.2710    3.9710   -5.3750 H         1 NDP401      0.0000 
     74 H42N       28.4090    2.4460   -6.1550 H         1 NDP401      0.0000 
     75 H5N        28.1450    1.9960   -3.7710 H         1 NDP401      0.0000 
     76 H6N        25.8350    1.7150   -3.0590 H         1 NDP401      0.0000 
     77 HOP2       12.5200   11.2970   -7.7300 H         1 NDP401      0.0000 
     78 HOP3       13.6450    9.8110  -10.6220 H         1 NDP401      0.0000 
@<TRIPOS>BOND
     1    1    2 ar   
     2    1    3 ar   
     3    1    4 1    
     4    1   23 1    
     5    3   49 1    
     6    4    5 1    
     7    5    6 1    
     8    5   50 1    
     9    5   51 1    
    10    6    7 1    
    11    6    8 1    
    12    6   52 1    
    13    7   12 1    
    14    8    9 1    
    15    8   10 1    
    16    8   53 1    
    17    9   54 1    
    18   10   11 1    
    19   10   12 1    
    20   10   55 1    
    21   11   45 1    
    22   12   13 1    
    23   12   56 1    
    24   13   14 1    
    25   13   22 1    
    26   14   15 2    
    27   14   57 1    
    28   15   16 1    
    29   16   17 ar   
    30   16   22 ar   
    31   17   18 1    
    32   17   19 ar   
    33   18   58 1    
    34   18   59 1    
    35   19   20 ar   
    36   20   21 ar   
    37   20   60 1    
    38   21   22 ar   
    39   23   24 1    
    40   24   25 ar   
    41   24   26 ar   
    42   24   27 1    
    43   26   61 1    
    44   27   28 1    
    45   28   29 1    
    46   28   62 1    
    47   28   63 1    
    48   29   30 1    
    49   29   31 1    
    50   29   64 1    
    51   30   35 1    
    52   31   32 1    
    53   31   33 1    
    54   31   65 1    
    55   32   66 1    
    56   33   34 1    
    57   33   35 1    
    58   33   67 1    
    59   34   68 1    
    60   35   36 1    
    61   35   69 1    
    62   36   37 1    
    63   36   44 1    
    64   37   38 2    
    65   37   70 1    
    66   38   39 1    
    67   38   42 1    
    68   39   40 2    
    69   39   41 am   
    70   41   71 1    
    71   41   72 1    
    72   42   43 1    
    73   42   73 1    
    74   42   74 1    
    75   43   44 2    
    76   43   75 1    
    77   44   76 1    
    78   45   46 ar   
    79   45   47 ar   
    80   45   48 ar   
    81   47   77 1    
    82   48   78 1    
@<TRIPOS>SUBSTRUCTURE
     1 NDP401      1 GROUP   
@<TRIPOS>SET
ATOM$ORANGE STATIC     ATOMS   COLORGROUP SYSTEM 
42 5 5 6 6 8 8 10 10 12 12 14 14 16 16 17 17 20 \
20 22 22 28 28 29 29 31 31 33 33 35 35 37 37 38 38 39 \
39 42 42 43 43 44 44 

