#    Name: 6d2v_1_NDP
#    Modification time : Fri May 22 19:23:57 2020

@<TRIPOS>MOLECULE
6d2v_1_NDP
   78    82     1     0     1
SMALL
NO_CHARGES


@<TRIPOS>ATOM
      1 PA         25.7080   -5.4510   31.0530 P.3       1 NDP401      0.0000 
      2 O1A        26.9810   -5.8370   30.4220 O.co2     1 NDP401      0.0000 
      3 O2A        25.6660   -5.0850   32.5130 O.co2     1 NDP401      0.0000 
      4 O5B        24.6660   -6.6020   30.8570 O.3       1 NDP401      0.0000 
      5 C5B        24.4630   -7.1000   29.5250 C.3       1 NDP401      0.0000 
      6 C4B        23.0990   -7.7320   29.5030 C.3       1 NDP401      0.0000 
      7 O4B        22.8470   -8.2660   28.1840 O.3       1 NDP401      0.0000 
      8 C3B        22.9270   -8.8910   30.4910 C.3       1 NDP401      0.0000 
      9 O3B        21.7070   -8.7750   31.2100 O.3       1 NDP401      0.0000 
     10 C2B        22.8640  -10.1240   29.6020 C.3       1 NDP401      0.0000 
     11 O2B        21.9390  -11.1180   30.0810 O.3       1 NDP401      0.0000 
     12 C1B        22.3100   -9.5650   28.3010 C.3       1 NDP401      0.0000 
     13 N9A        22.7170  -10.3440   27.1470 N.pl3     1 NDP401      0.0000 
     14 C8A        23.9540  -10.3750   26.5610 C.2       1 NDP401      0.0000 
     15 N7A        24.0680  -11.2610   25.6030 N.2       1 NDP401      0.0000 
     16 C5A        22.8120  -11.8530   25.5500 C.ar      1 NDP401      0.0000 
     17 C6A        22.2810  -12.8830   24.7560 C.ar      1 NDP401      0.0000 
     18 N6A        22.9670  -13.5090   23.7970 N.pl3     1 NDP401      0.0000 
     19 N1A        20.9970  -13.2450   24.9740 N.ar      1 NDP401      0.0000 
     20 C2A        20.3010  -12.6060   25.9170 C.ar      1 NDP401      0.0000 
     21 N3A        20.6970  -11.6180   26.7220 N.ar      1 NDP401      0.0000 
     22 C4A        21.9710  -11.2890   26.4920 C.ar      1 NDP401      0.0000 
     23 O3         25.0200   -4.2590   30.2500 O.3       1 NDP401      0.0000 
     24 PN         24.4100   -2.8750   30.7400 P.3       1 NDP401      0.0000 
     25 O1N        23.3310   -3.0860   31.7530 O.co2     1 NDP401      0.0000 
     26 O2N        25.5600   -1.9710   31.0960 O.co2     1 NDP401      0.0000 
     27 O5D        23.7790   -2.2880   29.4010 O.3       1 NDP401      0.0000 
     28 C5D        22.3790   -2.3560   29.1000 C.3       1 NDP401      0.0000 
     29 C4D        22.1190   -1.5170   27.8760 C.3       1 NDP401      0.0000 
     30 O4D        22.5600   -0.1600   28.1060 O.3       1 NDP401      0.0000 
     31 C3D        22.8100   -1.9850   26.5930 C.3       1 NDP401      0.0000 
     32 O3D        21.9310   -1.8320   25.4870 O.3       1 NDP401      0.0000 
     33 C2D        24.0180   -1.0510   26.4940 C.3       1 NDP401      0.0000 
     34 O2D        24.3990   -0.8650   25.1350 O.3       1 NDP401      0.0000 
     35 C1D        23.4370    0.2380   27.0710 C.3       1 NDP401      0.0000 
     36 N1N        24.4260    1.1490   27.6350 N.pl3     1 NDP401      0.0000 
     37 C2N        24.9190    0.9870   28.9640 C.2       1 NDP401      0.0000 
     38 C3N        25.8230    1.8170   29.5080 C.2       1 NDP401      0.0000 
     39 C7N        26.2360    1.6460   30.9060 C.2       1 NDP401      0.0000 
     40 O7N        25.9160    0.6320   31.5540 O.2       1 NDP401      0.0000 
     41 N7N        26.9710    2.6080   31.4370 N.am      1 NDP401      0.0000 
     42 C4N        26.3840    2.9320   28.7260 C.3       1 NDP401      0.0000 
     43 C5N        25.7830    3.0600   27.3740 C.2       1 NDP401      0.0000 
     44 C6N        24.8830    2.2080   26.9060 C.2       1 NDP401      0.0000 
     45 P2B        22.3500  -12.5040   30.7570 P.3       1 NDP401      0.0000 
     46 O1X        21.0810  -13.2150   31.1140 O.co2     1 NDP401      0.0000 
     47 O2X        23.2210  -13.2090   29.7490 O.co2     1 NDP401      0.0000 
     48 O3X        23.1990  -12.1420   31.9780 O.co2     1 NDP401      0.0000 
     49 HOA2       26.2930   -5.4330   33.2000 H         1 NDP401      0.0000 
     50 H51A       24.5300   -6.2130   28.8970 H         1 NDP401      0.0000 
     51 H52A       25.2730   -7.7450   29.1870 H         1 NDP401      0.0000 
     52 H4B        22.2960   -7.0040   29.6070 H         1 NDP401      0.0000 
     53 H3B        23.7500   -8.8920   31.2050 H         1 NDP401      0.0000 
     54 HO3A       21.7120   -7.8710   31.6210 H         1 NDP401      0.0000 
     55 H2B        23.8520  -10.5690   29.4900 H         1 NDP401      0.0000 
     56 H1B        21.2230   -9.4930   28.3100 H         1 NDP401      0.0000 
     57 H8A        24.7700   -9.7210   26.8650 H         1 NDP401      0.0000 
     58 H61A       23.9300  -13.2600   23.5950 H         1 NDP401      0.0000 
     59 H62A       22.5260  -14.2470   23.2570 H         1 NDP401      0.0000 
     60 H2A        19.2720  -12.9420   26.0400 H         1 NDP401      0.0000 
     61 H21N       26.2190   -2.1090   31.8260 H         1 NDP401      0.0000 
     62 H51N       22.1060   -3.3970   28.9340 H         1 NDP401      0.0000 
     63 H52N       21.8430   -2.0040   29.9790 H         1 NDP401      0.0000 
     64 H4D        21.0460   -1.4260   27.7130 H         1 NDP401      0.0000 
     65 H3D        23.1360   -3.0200   26.6880 H         1 NDP401      0.0000 
     66 HO3N       21.4360   -2.6900   25.4230 H         1 NDP401      0.0000 
     67 H2D        24.8670   -1.4240   27.0650 H         1 NDP401      0.0000 
     68 HO2N       24.9760   -1.6370   24.8960 H         1 NDP401      0.0000 
     69 H1D        22.8580    0.7760   26.3220 H         1 NDP401      0.0000 
     70 H2N        24.5040    0.1350   29.5010 H         1 NDP401      0.0000 
     71 H71N       27.2860    2.5450   32.4000 H         1 NDP401      0.0000 
     72 H72N       27.2670    3.4460   30.9470 H         1 NDP401      0.0000 
     73 H41N       27.4640    2.8320   28.6280 H         1 NDP401      0.0000 
     74 H42N       26.2510    3.8760   29.2480 H         1 NDP401      0.0000 
     75 H5N        26.1200    3.9010   26.7710 H         1 NDP401      0.0000 
     76 H6N        24.4700    2.3250   25.9050 H         1 NDP401      0.0000 
     77 HOP2       23.7990  -13.9540   30.0610 H         1 NDP401      0.0000 
     78 HOP3       23.6820  -12.7880   32.5560 H         1 NDP401      0.0000 
@<TRIPOS>BOND
     1    1    2 ar   
     2    1    3 ar   
     3    1    4 1    
     4    1   23 1    
     5    3   49 1    
     6    4    5 1    
     7    5    6 1    
     8    5   50 1    
     9    5   51 1    
    10    6    7 1    
    11    6    8 1    
    12    6   52 1    
    13    7   12 1    
    14    8    9 1    
    15    8   10 1    
    16    8   53 1    
    17    9   54 1    
    18   10   11 1    
    19   10   12 1    
    20   10   55 1    
    21   11   45 1    
    22   12   13 1    
    23   12   56 1    
    24   13   14 1    
    25   13   22 1    
    26   14   15 2    
    27   14   57 1    
    28   15   16 1    
    29   16   17 ar   
    30   16   22 ar   
    31   17   18 1    
    32   17   19 ar   
    33   18   58 1    
    34   18   59 1    
    35   19   20 ar   
    36   20   21 ar   
    37   20   60 1    
    38   21   22 ar   
    39   23   24 1    
    40   24   25 ar   
    41   24   26 ar   
    42   24   27 1    
    43   26   61 1    
    44   27   28 1    
    45   28   29 1    
    46   28   62 1    
    47   28   63 1    
    48   29   30 1    
    49   29   31 1    
    50   29   64 1    
    51   30   35 1    
    52   31   32 1    
    53   31   33 1    
    54   31   65 1    
    55   32   66 1    
    56   33   34 1    
    57   33   35 1    
    58   33   67 1    
    59   34   68 1    
    60   35   36 1    
    61   35   69 1    
    62   36   37 1    
    63   36   44 1    
    64   37   38 2    
    65   37   70 1    
    66   38   39 1    
    67   38   42 1    
    68   39   40 2    
    69   39   41 am   
    70   41   71 1    
    71   41   72 1    
    72   42   43 1    
    73   42   73 1    
    74   42   74 1    
    75   43   44 2    
    76   43   75 1    
    77   44   76 1    
    78   45   46 ar   
    79   45   47 ar   
    80   45   48 ar   
    81   47   77 1    
    82   48   78 1    
@<TRIPOS>SUBSTRUCTURE
     1 NDP401      1 GROUP   
@<TRIPOS>SET
ATOM$ORANGE STATIC     ATOMS   COLORGROUP SYSTEM 
42 5 5 6 6 8 8 10 10 12 12 14 14 16 16 17 17 20 \
20 22 22 28 28 29 29 31 31 33 33 35 35 37 37 38 38 39 \
39 42 42 43 43 44 44 

