#    Name: 6gpj_2_NAP_CAVITY_N1_12
#    Modification time : Fri May 22 19:24:28 2020

@<TRIPOS>MOLECULE
6gpj_2_NAP_CAVITY_N1_12
   71     0     7     0     0
SMALL
NO_CHARGES


@<TRIPOS>ATOM
      1 OG         36.7700  -25.7900  -45.4400 O.3       1 SER1        0.0000 
      2 OG         32.2800  -23.7000  -42.0400 O.3       1 SER1        0.0000 
      3 OG         38.8700  -25.9000  -45.2400 O.3       1 SER1        0.0000 
      4 OG         37.7500  -25.3800  -44.3900 O.3       1 SER1        0.0000 
      5 OG         41.9700  -23.3400  -42.7300 O.3       1 SER1        0.0000 
      6 OG         40.8500  -22.8100  -41.8800 O.3       1 SER1        0.0000 
      7 OG         44.0800  -23.4500  -42.5300 O.3       1 SER1        0.0000 
      8 OG         42.8300  -24.2700  -41.0300 O.3       1 SER1        0.0000 
      9 OG         43.5500  -24.2800  -37.4200 O.3       1 SER1        0.0000 
     10 OG         42.4300  -23.7600  -36.5700 O.3       1 SER1        0.0000 
     11 OG         44.5300  -23.8700  -36.3700 O.3       1 SER1        0.0000 
     12 OG         45.5200  -23.4700  -35.3200 O.3       1 SER1        0.0000 
     13 O          32.1500  -25.0400  -41.3900 O.2       2 ALA2        0.0000 
     14 N          36.6300  -24.8600  -43.5400 N.am      2 ALA2        0.0000 
     15 N          35.5100  -24.3300  -42.6900 N.am      2 ALA2        0.0000 
     16 O          35.3800  -25.6800  -42.0400 O.2       2 ALA2        0.0000 
     17 N          38.7400  -24.9700  -43.3400 N.am      2 ALA2        0.0000 
     18 N          39.7300  -26.8400  -43.5400 N.am      2 ALA2        0.0000 
     19 N          39.7300  -24.5700  -42.2800 N.am      2 ALA2        0.0000 
     20 N          40.7100  -26.4300  -42.4800 N.am      2 ALA2        0.0000 
     21 N          39.5900  -25.9100  -41.6300 N.am      2 ALA2        0.0000 
     22 O          43.1000  -23.8600  -43.5800 O.2       2 ALA2        0.0000 
     23 O          42.9600  -25.2000  -42.9300 O.2       2 ALA2        0.0000 
     24 N          40.7200  -24.1600  -41.2300 N.am      2 ALA2        0.0000 
     25 N          41.7000  -26.0300  -41.4300 N.am      2 ALA2        0.0000 
     26 N          42.6900  -25.6200  -40.3800 N.am      2 ALA2        0.0000 
     27 N          41.5700  -25.1000  -39.5300 N.am      2 ALA2        0.0000 
     28 N          42.5500  -26.9700  -39.7300 N.am      2 ALA2        0.0000 
     29 N          42.4200  -26.0300  -37.8300 N.am      2 ALA2        0.0000 
     30 N          44.4000  -25.2200  -35.7200 N.am      2 ALA2        0.0000 
     31 N          43.2800  -24.7000  -34.8700 N.am      2 ALA2        0.0000 
     32 N          45.3900  -24.8100  -34.6700 N.am      2 ALA2        0.0000 
     33 OD1        35.6500  -25.2700  -44.5900 O.co2     3 ASP3        0.0000 
     34 OD1        34.5300  -24.7400  -43.7400 O.co2     3 ASP3        0.0000 
     35 OD1        39.8700  -23.2200  -42.9300 O.co2     3 ASP3        0.0000 
     36 OD1        42.2900  -25.1000  -35.9300 O.co2     3 ASP3        0.0000 
     37 NZ         31.1600  -25.4500  -42.4500 N.4       4 LYS4        0.0000 
     38 NZ         44.8000  -25.7300  -40.1800 N.4       4 LYS4        0.0000 
     39 NZ         43.5400  -26.5600  -38.6800 N.4       4 LYS4        0.0000 
     40 NZ         45.7900  -25.3300  -39.1200 N.4       4 LYS4        0.0000 
     41 CZ         46.6400  -23.9900  -36.1700 C.ar      5 PHE5        0.0000 
     42 CZ         46.5100  -25.3400  -35.5200 C.ar      5 PHE5        0.0000 
     43 CA         32.2800  -25.9700  -43.3000 C.3       6 GLY6        0.0000 
     44 CA         33.4100  -24.2200  -42.8900 C.3       6 GLY6        0.0000 
     45 CA         35.5100  -26.6100  -43.9400 C.3       6 GLY6        0.0000 
     46 CA         34.3900  -26.0900  -43.0900 C.3       6 GLY6        0.0000 
     47 CA         33.2700  -25.5700  -42.2400 C.3       6 GLY6        0.0000 
     48 CA         37.8900  -24.0400  -45.0400 C.3       6 GLY6        0.0000 
     49 CA         34.3900  -23.8100  -41.8400 C.3       6 GLY6        0.0000 
     50 CA         37.6200  -26.7300  -43.7400 C.3       6 GLY6        0.0000 
     51 CA         36.5000  -26.2000  -42.8900 C.3       6 GLY6        0.0000 
     52 CA         34.2600  -25.1600  -41.1900 C.3       6 GLY6        0.0000 
     53 CA         38.8800  -23.6300  -43.9800 C.3       6 GLY6        0.0000 
     54 CA         39.8600  -25.5000  -44.1800 C.3       6 GLY6        0.0000 
     55 CA         38.6100  -26.3200  -42.6900 C.3       6 GLY6        0.0000 
     56 CA         40.9900  -23.7400  -43.7800 C.3       6 GLY6        0.0000 
     57 CA         40.8500  -25.0900  -43.1300 C.3       6 GLY6        0.0000 
     58 CA         41.7100  -23.7500  -40.1800 C.3       6 GLY6        0.0000 
     59 CA         43.8100  -26.1400  -41.2300 C.3       6 GLY6        0.0000 
     60 CA         43.6700  -27.4900  -40.5800 C.3       6 GLY6        0.0000 
     61 CA         42.5600  -24.6900  -38.4800 C.3       6 GLY6        0.0000 
     62 CA         41.4400  -24.1700  -37.6300 C.3       6 GLY6        0.0000 
     63 CA         43.6800  -22.9400  -38.0700 C.3       6 GLY6        0.0000 
     64 CA         43.4100  -25.6300  -36.7800 C.3       6 GLY6        0.0000 
     65 DU         41.8400  -24.6800  -42.0800 H         7 CUB7        0.0000 
     66 DU         43.9500  -24.8000  -41.8800 H         7 CUB7        0.0000 
     67 DU         44.9400  -24.3900  -40.8200 H         7 CUB7        0.0000 
     68 DU         43.6800  -25.2100  -39.3300 H         7 CUB7        0.0000 
     69 DU         44.6700  -24.8000  -38.2700 H         7 CUB7        0.0000 
     70 DU         45.7900  -23.0500  -37.8700 H         7 CUB7        0.0000 
     71 DU         45.6500  -24.4000  -37.2200 H         7 CUB7        0.0000 
@<TRIPOS>BOND
@<TRIPOS>SUBSTRUCTURE
     1 SER1        1 GROUP   
     2 ALA2       13 GROUP   
     3 ASP3       33 GROUP   
     4 LYS4       37 GROUP   
     5 PHE5       41 GROUP   
     6 GLY6       43 GROUP   
     7 CUB7       65 GROUP   
@<TRIPOS>SET

