#    Name: 6gpj_2_NAP
#    Modification time : Fri May 22 19:24:26 2020

@<TRIPOS>MOLECULE
6gpj_2_NAP
   48    52     1     0     1
SMALL
NO_CHARGES


@<TRIPOS>ATOM
      1 PA         42.5660  -23.6740  -43.2010 P.3       1 NAP404      0.0000 
      2 O1A        41.9460  -22.3360  -42.9710 O.co2     1 NAP404      0.0000 
      3 O2A        43.5530  -23.9340  -44.3020 O.co2     1 NAP404      0.0000 
      4 O5B        41.3840  -24.7220  -43.4100 O.3       1 NAP404      0.0000 
      5 C5B        40.1400  -24.6020  -42.7500 C.3       1 NAP404      0.0000 
      6 C4B        39.2150  -25.7130  -43.2390 C.3       1 NAP404      0.0000 
      7 O4B        37.9920  -25.6540  -42.4850 O.3       1 NAP404      0.0000 
      8 C3B        38.8390  -25.6200  -44.7220 C.3       1 NAP404      0.0000 
      9 O3B        38.6960  -26.9490  -45.2400 O.3       1 NAP404      0.0000 
     10 C2B        37.5120  -24.9240  -44.6620 C.3       1 NAP404      0.0000 
     11 O2B        36.7130  -25.0610  -45.8450 O.3       1 NAP404      0.0000 
     12 C1B        36.9280  -25.6370  -43.4370 C.3       1 NAP404      0.0000 
     13 N9A        35.7390  -24.9500  -42.9480 N.pl3     1 NAP404      0.0000 
     14 C8A        35.6370  -23.6220  -42.6820 C.2       1 NAP404      0.0000 
     15 N7A        34.4100  -23.2760  -42.2510 N.2       1 NAP404      0.0000 
     16 C5A        33.7050  -24.4130  -42.2320 C.ar      1 NAP404      0.0000 
     17 C6A        32.3240  -24.7320  -41.8790 C.ar      1 NAP404      0.0000 
     18 N6A        31.5390  -23.7020  -41.4830 N.pl3     1 NAP404      0.0000 
     19 N1A        31.9200  -26.0440  -42.0070 N.ar      1 NAP404      0.0000 
     20 C2A        32.7690  -27.0390  -42.4180 C.ar      1 NAP404      0.0000 
     21 N3A        34.0710  -26.8130  -42.7620 N.ar      1 NAP404      0.0000 
     22 C4A        34.5730  -25.5310  -42.6880 C.ar      1 NAP404      0.0000 
     23 O3         43.1540  -24.1510  -41.7930 O.3       1 NAP404      0.0000 
     24 PN         44.5300  -24.9710  -41.5450 P.3       1 NAP404      0.0000 
     25 O1N        45.6540  -24.0020  -41.6040 O.co2     1 NAP404      0.0000 
     26 O2N        44.4890  -26.1790  -42.4330 O.co2     1 NAP404      0.0000 
     27 O5D        44.3150  -25.3570  -40.0080 O.3       1 NAP404      0.0000 
     28 C5D        43.6030  -26.5350  -39.6530 C.3       1 NAP404      0.0000 
     29 C4D        42.9700  -26.3900  -38.2660 C.3       1 NAP404      0.0000 
     30 O4D        43.9310  -26.1830  -37.2330 O.3       1 NAP404      0.0000 
     31 C3D        42.0300  -25.1800  -38.1850 C.3       1 NAP404      0.0000 
     32 O3D        40.9060  -25.5140  -37.3870 O.3       1 NAP404      0.0000 
     33 C2D        42.8420  -24.0870  -37.5450 C.3       1 NAP404      0.0000 
     34 O2D        42.0440  -23.1360  -36.8690 O.3       1 NAP404      0.0000 
     35 C1D        43.6850  -24.9250  -36.5930 C.3       1 NAP404      0.0000 
     36 N1N        45.0280  -24.5390  -36.3030 N.pl3     1 NAP404      0.0000 
     37 C2N        45.8600  -24.1130  -37.2830 C.ar      1 NAP404      0.0000 
     38 C3N        47.1830  -23.8400  -36.9990 C.ar      1 NAP404      0.0000 
     39 C7N        48.0840  -23.3320  -38.0960 C.2       1 NAP404      0.0000 
     40 O7N        49.1320  -22.8000  -37.8040 O.2       1 NAP404      0.0000 
     41 N7N        47.8050  -23.5050  -39.3900 N.am      1 NAP404      0.0000 
     42 C4N        47.6600  -24.0200  -35.6740 C.ar      1 NAP404      0.0000 
     43 C5N        46.8020  -24.5230  -34.7060 C.ar      1 NAP404      0.0000 
     44 C6N        45.4850  -24.8010  -35.0530 C.ar      1 NAP404      0.0000 
     45 P2B        36.8810  -24.0190  -47.0840 P.3       1 NAP404      0.0000 
     46 O1X        35.5350  -24.1270  -47.8160 O.co2     1 NAP404      0.0000 
     47 O2X        36.9500  -22.6230  -46.4780 O.co2     1 NAP404      0.0000 
     48 O3X        38.1090  -24.5480  -47.8090 O.co2     1 NAP404      0.0000 
@<TRIPOS>BOND
     1    1    2 ar   
     2    1    3 ar   
     3    1    4 1    
     4    1   23 1    
     5    4    5 1    
     6    5    6 1    
     7    6    7 1    
     8    6    8 1    
     9    7   12 1    
    10    8    9 1    
    11    8   10 1    
    12   10   11 1    
    13   10   12 1    
    14   11   45 1    
    15   12   13 1    
    16   13   14 1    
    17   13   22 1    
    18   14   15 2    
    19   15   16 1    
    20   16   17 ar   
    21   16   22 ar   
    22   17   18 1    
    23   17   19 ar   
    24   19   20 ar   
    25   20   21 ar   
    26   21   22 ar   
    27   23   24 1    
    28   24   25 ar   
    29   24   26 ar   
    30   24   27 1    
    31   27   28 1    
    32   28   29 1    
    33   29   30 1    
    34   29   31 1    
    35   30   35 1    
    36   31   32 1    
    37   31   33 1    
    38   33   34 1    
    39   33   35 1    
    40   35   36 1    
    41   36   37 ar   
    42   36   44 ar   
    43   37   38 ar   
    44   38   39 1    
    45   38   42 ar   
    46   39   40 2    
    47   39   41 am   
    48   42   43 ar   
    49   43   44 ar   
    50   45   46 ar   
    51   45   47 ar   
    52   45   48 ar   
@<TRIPOS>SUBSTRUCTURE
     1 NAP404      1 GROUP   
@<TRIPOS>SET
ATOM$ORANGE STATIC     ATOMS   COLORGROUP SYSTEM 
42 5 5 6 6 8 8 10 10 12 12 14 14 16 16 17 17 20 \
20 22 22 28 28 29 29 31 31 33 33 35 35 37 37 38 38 39 \
39 42 42 43 43 44 44 

