#    Name: 6cn2_1_ATP
#    Modification time : Fri May 22 19:32:14 2020

@<TRIPOS>MOLECULE
6cn2_1_ATP
   31    33     1     0     1
SMALL
NO_CHARGES


@<TRIPOS>ATOM
      1 PG        -22.4310    4.3570  -13.9560 P.3       1 ATP501      0.0000 
      2 O1G       -21.8020    4.0220  -15.3170 O.co2     1 ATP501      0.0000 
      3 O2G       -23.9580    4.2480  -13.8970 O.co2     1 ATP501      0.0000 
      4 O3G       -21.6740    3.8420  -12.7340 O.co2     1 ATP501      0.0000 
      5 PB        -20.7960    6.6980  -14.0360 P.3       1 ATP501      0.0000 
      6 O1B       -20.0900    6.2070  -15.3060 O.co2     1 ATP501      0.0000 
      7 O2B       -20.0190    6.7520  -12.7240 O.co2     1 ATP501      0.0000 
      8 O3B       -22.1880    5.9330  -13.7800 O.3       1 ATP501      0.0000 
      9 PA        -23.0580    8.3350  -14.9520 P.3       1 ATP501      0.0000 
     10 O1A       -22.9860    9.3800  -16.0440 O.co2     1 ATP501      0.0000 
     11 O2A       -23.9030    7.0930  -15.2740 O.co2     1 ATP501      0.0000 
     12 O3A       -21.5250    8.1050  -14.3900 O.3       1 ATP501      0.0000 
     13 O5'       -23.7340    9.1190  -13.7220 O.3       1 ATP501      0.0000 
     14 C5'       -25.1470    9.2200  -13.7750 C.3       1 ATP501      0.0000 
     15 C4'       -25.7400    9.8890  -12.5470 C.3       1 ATP501      0.0000 
     16 O4'       -25.0840   11.1160  -12.1940 O.3       1 ATP501      0.0000 
     17 C3'       -27.1630   10.1900  -12.9590 C.3       1 ATP501      0.0000 
     18 O3'       -28.0810    9.2940  -12.3220 O.3       1 ATP501      0.0000 
     19 C2'       -27.3650   11.6610  -12.6440 C.3       1 ATP501      0.0000 
     20 O2'       -28.3180   11.8540  -11.5800 O.3       1 ATP501      0.0000 
     21 C1'       -25.9650   12.2310  -12.3560 C.3       1 ATP501      0.0000 
     22 N9        -25.5290   12.9450  -13.5950 N.pl3     1 ATP501      0.0000 
     23 C8        -24.5250   12.5370  -14.3990 C.2       1 ATP501      0.0000 
     24 N7        -24.3630   13.3410  -15.4780 N.2       1 ATP501      0.0000 
     25 C5        -25.2790   14.3170  -15.3750 C.ar      1 ATP501      0.0000 
     26 C6        -25.6450   15.5000  -16.1910 C.ar      1 ATP501      0.0000 
     27 N6        -24.9760   15.7910  -17.3340 N.pl3     1 ATP501      0.0000 
     28 N1        -26.6650   16.2680  -15.7540 N.ar      1 ATP501      0.0000 
     29 C2        -27.3260   15.9680  -14.6180 C.ar      1 ATP501      0.0000 
     30 N3        -27.0510   14.9080  -13.8300 N.ar      1 ATP501      0.0000 
     31 C4        -26.0500   14.0530  -14.1440 C.ar      1 ATP501      0.0000 
@<TRIPOS>BOND
     1    1    2 ar   
     2    1    3 ar   
     3    1    4 ar   
     4    1    8 1    
     5    5    6 ar   
     6    5    7 ar   
     7    5    8 1    
     8    5   12 1    
     9    9   10 ar   
    10    9   11 ar   
    11    9   12 1    
    12    9   13 1    
    13   13   14 1    
    14   14   15 1    
    15   15   16 1    
    16   15   17 1    
    17   16   21 1    
    18   17   18 1    
    19   17   19 1    
    20   19   20 1    
    21   19   21 1    
    22   21   22 1    
    23   22   23 1    
    24   22   31 1    
    25   23   24 2    
    26   24   25 1    
    27   25   26 ar   
    28   25   31 ar   
    29   26   27 1    
    30   26   28 ar   
    31   28   29 ar   
    32   29   30 ar   
    33   30   31 ar   
@<TRIPOS>SUBSTRUCTURE
     1 ATP501      1 GROUP   
@<TRIPOS>SET
ATOM$ORANGE STATIC     ATOMS   COLORGROUP SYSTEM 
20 14 14 15 15 17 17 19 19 21 21 23 23 25 25 26 26 29 \
29 31 31 

