#    Name: 5m6v_1_H52
#    Modification time : Fri May 22 19:15:59 2020

@<TRIPOS>MOLECULE
5m6v_1_H52
   22    24     1     0     0
SMALL
NO_CHARGES


@<TRIPOS>ATOM
      1 O1        -14.0420  -25.4440   28.5460 O.2       1 H52401      0.0000 
      2 S5        -13.4520  -25.0200   27.3180 S.o2      1 H52401      0.0000 
      3 O2        -12.8090  -25.9800   26.4750 O.2       1 H52401      0.0000 
      4 N21       -12.3000  -23.9360   27.7150 N.pl3     1 H52401      0.0000 
      5 C22       -11.0560  -23.7590   26.9230 C.3       1 H52401      0.0000 
      6 C2M       -11.2210  -22.7680   25.7850 C.3       1 H52401      0.0000 
      7 C23        -9.8380  -23.3270   27.7210 C.3       1 H52401      0.0000 
      8 N24        -9.8350  -21.8680   28.0250 N.4       1 H52401      0.0000 
      9 C25       -10.6750  -21.4200   29.1750 C.3       1 H52401      0.0000 
     10 C26       -12.1470  -21.6810   28.8930 C.3       1 H52401      0.0000 
     11 C27       -12.5300  -23.1480   28.9420 C.3       1 H52401      0.0000 
     12 C5        -14.7170  -24.2330   26.3500 C.ar      1 H52401      0.0000 
     13 C10       -15.6360  -24.9800   25.5290 C.ar      1 H52401      0.0000 
     14 C4        -15.8300  -26.4060   25.5090 C.ar      1 H52401      0.0000 
     15 CM        -15.2920  -27.3290   26.5720 C.3       1 H52401      0.0000 
     16 C9        -16.4190  -24.2110   24.6080 C.ar      1 H52401      0.0000 
     17 C8        -16.3250  -22.8010   24.5990 C.ar      1 H52401      0.0000 
     18 C7        -15.4750  -22.1560   25.4420 C.ar      1 H52401      0.0000 
     19 C6        -14.6700  -22.8660   26.3150 C.ar      1 H52401      0.0000 
     20 C1        -17.2410  -24.9100   23.6910 C.ar      1 H52401      0.0000 
     21 N2        -17.3420  -26.2200   23.6370 N.ar      1 H52401      0.0000 
     22 C3        -16.6590  -26.9330   24.5320 C.ar      1 H52401      0.0000 
@<TRIPOS>BOND
     1    1    2 2    
     2    2    3 2    
     3    2    4 1    
     4    2   12 1    
     5    4    5 1    
     6    4   11 1    
     7    5    6 1    
     8    5    7 1    
     9    7    8 1    
    10    8    9 1    
    11    9   10 1    
    12   10   11 1    
    13   12   13 ar   
    14   12   19 ar   
    15   13   14 ar   
    16   13   16 ar   
    17   14   15 1    
    18   14   22 ar   
    19   16   17 ar   
    20   16   20 ar   
    21   17   18 ar   
    22   18   19 ar   
    23   20   21 ar   
    24   21   22 ar   
@<TRIPOS>SUBSTRUCTURE
     1 H52401      1 GROUP   
@<TRIPOS>SET

