#    Name: 6fw8_2_FAD
#    Modification time : Fri May 22 19:28:03 2020

@<TRIPOS>MOLECULE
6fw8_2_FAD
   53    59     1     0     1
SMALL
NO_CHARGES


@<TRIPOS>ATOM
      1 PA         34.8490   26.4490  -18.8470 P.3       1 FAD501      0.0000 
      2 O1A        34.9360   27.9370  -18.6330 O.co2     1 FAD501      0.0000 
      3 O2A        35.6410   25.6650  -17.8190 O.co2     1 FAD501      0.0000 
      4 O5B        33.3420   26.0110  -18.9230 O.3       1 FAD501      0.0000 
      5 C5B        33.0330   24.6560  -18.6730 C.3       1 FAD501      0.0000 
      6 C4B        31.5920   24.6970  -18.3330 C.3       1 FAD501      0.0000 
      7 O4B        31.0550   23.3010  -18.3400 O.3       1 FAD501      0.0000 
      8 C3B        31.3860   25.2560  -16.9820 C.3       1 FAD501      0.0000 
      9 O3B        30.2940   26.2080  -17.0270 O.3       1 FAD501      0.0000 
     10 C2B        31.0630   24.0930  -16.1180 C.3       1 FAD501      0.0000 
     11 O2B        30.1850   24.4220  -15.0400 O.3       1 FAD501      0.0000 
     12 C1B        30.3420   23.2070  -17.0430 C.3       1 FAD501      0.0000 
     13 N9A        30.3240   21.8500  -16.7160 N.pl3     1 FAD501      0.0000 
     14 C8A        31.2310   21.0550  -16.4750 Du        1 FAD501      0.0000 
     15 N7A        31.0060   20.0170  -16.2770 N.2       1 FAD501      0.0000 
     16 C5A        29.8650   19.6150  -16.2880 C.ar      1 FAD501      0.0000 
     17 C6A        28.8280   18.4300  -16.1180 C.ar      1 FAD501      0.0000 
     18 N6A        29.2790   17.1350  -15.7900 N.pl3     1 FAD501      0.0000 
     19 N1A        27.4380   18.7410  -16.3010 N.ar      1 FAD501      0.0000 
     20 C2A        27.1220   19.9050  -16.5700 C.ar      1 FAD501      0.0000 
     21 N3A        27.8170   20.8640  -16.7190 N.ar      1 FAD501      0.0000 
     22 C4A        29.0150   20.9590  -16.6490 C.ar      1 FAD501      0.0000 
     23 N1         42.0380   32.8820  -20.0700 N.2       1 FAD501      0.0000 
     24 C2         42.5130   34.0000  -20.9090 C.2       1 FAD501      0.0000 
     25 O2         42.4100   33.9160  -22.1080 O.2       1 FAD501      0.0000 
     26 N3         43.0980   35.1340  -20.2850 N.am      1 FAD501      0.0000 
     27 C4         43.1580   35.2390  -18.9240 C.2       1 FAD501      0.0000 
     28 O4         43.4560   36.2980  -18.4030 O.2       1 FAD501      0.0000 
     29 C4X        42.7260   34.1200  -18.0880 C.2       1 FAD501      0.0000 
     30 N5         42.8010   34.1610  -16.7750 N.2       1 FAD501      0.0000 
     31 C5X        42.2800   33.0290  -15.9990 C.ar      1 FAD501      0.0000 
     32 C6         42.3520   33.0920  -14.6090 C.ar      1 FAD501      0.0000 
     33 C7         41.8640   32.0330  -13.8400 C.ar      1 FAD501      0.0000 
     34 C7M        41.9690   32.1320  -12.3200 C.3       1 FAD501      0.0000 
     35 C8         41.2910   30.9260  -14.4680 C.ar      1 FAD501      0.0000 
     36 C8M        40.7380   29.7390  -13.6630 C.3       1 FAD501      0.0000 
     37 C9         41.2190   30.8640  -15.8530 C.ar      1 FAD501      0.0000 
     38 C9A        41.7070   31.9230  -16.6300 C.ar      1 FAD501      0.0000 
     39 N10        41.6290   31.8730  -18.0440 N.pl3     1 FAD501      0.0000 
     40 C10        42.1270   32.9400  -18.7800 C.2       1 FAD501      0.0000 
     41 C1'        41.0790   30.7100  -18.7950 C.3       1 FAD501      0.0000 
     42 C2'        39.6560   30.8530  -19.2570 C.3       1 FAD501      0.0000 
     43 O2'        38.9220   31.0010  -18.1060 O.3       1 FAD501      0.0000 
     44 C3'        39.3160   29.5130  -19.9170 C.3       1 FAD501      0.0000 
     45 O3'        40.3040   29.0850  -20.8300 O.3       1 FAD501      0.0000 
     46 C4'        38.0020   29.5820  -20.6230 C.3       1 FAD501      0.0000 
     47 O4'        37.0680   30.3030  -19.8390 O.3       1 FAD501      0.0000 
     48 C5'        37.5630   28.1330  -20.7940 C.3       1 FAD501      0.0000 
     49 O5'        36.2710   28.1440  -21.3980 O.3       1 FAD501      0.0000 
     50 P          35.5690   26.7390  -21.6080 P.3       1 FAD501      0.0000 
     51 O1P        34.1980   27.0010  -22.1460 O.co2     1 FAD501      0.0000 
     52 O2P        36.4220   25.8180  -22.4390 O.co2     1 FAD501      0.0000 
     53 O3P        35.5240   25.9830  -20.1970 O.3       1 FAD501      0.0000 
@<TRIPOS>BOND
     1    1    2 ar   
     2    1    3 ar   
     3    1    4 1    
     4    1   53 1    
     5    4    5 1    
     6    5    6 1    
     7    6    7 1    
     8    6    8 1    
     9    7   12 1    
    10    8    9 1    
    11    8   10 1    
    12   10   11 1    
    13   10   12 1    
    14   12   13 1    
    15   13   14 du   
    16   13   22 1    
    17   14   15 du   
    18   14   16 du   
    19   15   16 1    
    20   16   17 ar   
    21   16   22 ar   
    22   17   18 1    
    23   17   19 ar   
    24   19   20 ar   
    25   20   21 ar   
    26   21   22 ar   
    27   23   24 1    
    28   23   40 2    
    29   24   25 2    
    30   24   26 am   
    31   26   27 am   
    32   27   28 2    
    33   27   29 1    
    34   29   30 2    
    35   29   40 1    
    36   30   31 1    
    37   31   32 ar   
    38   31   38 ar   
    39   32   33 ar   
    40   33   34 1    
    41   33   35 ar   
    42   35   36 1    
    43   35   37 ar   
    44   37   38 ar   
    45   38   39 1    
    46   39   40 1    
    47   39   41 1    
    48   41   42 1    
    49   42   43 1    
    50   42   44 1    
    51   44   45 1    
    52   44   46 1    
    53   46   47 1    
    54   46   48 1    
    55   48   49 1    
    56   49   50 1    
    57   50   51 ar   
    58   50   52 ar   
    59   50   53 1    
@<TRIPOS>SUBSTRUCTURE
     1 FAD501      1 GROUP   
@<TRIPOS>SET
ATOM$ORANGE STATIC     ATOMS   COLORGROUP SYSTEM 
52 5 5 6 6 8 8 10 10 12 12 16 16 17 17 20 20 22 \
22 24 24 27 27 29 29 31 31 32 32 33 33 34 34 35 35 36 \
36 37 37 38 38 40 40 41 41 42 42 44 44 46 46 48 48 

