#    Name: 6fw8_1_FAD
#    Modification time : Fri May 22 19:27:55 2020

@<TRIPOS>MOLECULE
6fw8_1_FAD
   53    59     1     0     1
SMALL
NO_CHARGES


@<TRIPOS>ATOM
      1 PA         17.7340   20.8780    8.4130 P.3       1 FAD501      0.0000 
      2 O1A        17.0010   22.1870    8.4120 O.co2     1 FAD501      0.0000 
      3 O2A        17.4480   19.9530    7.2400 O.co2     1 FAD501      0.0000 
      4 O5B        19.2670   21.2210    8.4380 O.3       1 FAD501      0.0000 
      5 C5B        20.1870   20.1600    8.2190 C.3       1 FAD501      0.0000 
      6 C4B        21.4460   20.7890    7.7390 C.3       1 FAD501      0.0000 
      7 O4B        22.5120   19.7540    7.5920 O.3       1 FAD501      0.0000 
      8 C3B        21.2540   21.3910    6.4000 C.3       1 FAD501      0.0000 
      9 O3B        21.5270   22.8070    6.5170 O.3       1 FAD501      0.0000 
     10 C2B        22.1880   20.7140    5.4640 C.3       1 FAD501      0.0000 
     11 O2B        22.8390   21.6250    4.5600 O.3       1 FAD501      0.0000 
     12 C1B        23.2180   20.1290    6.3300 C.3       1 FAD501      0.0000 
     13 N9A        23.7850   18.9460    5.8580 N.pl3     1 FAD501      0.0000 
     14 C8A        23.2570   17.8960    5.4750           1 FAD501      0.0000 
     15 N7A        23.8510   17.0400    5.1500 N.2       1 FAD501      0.0000 
     16 C5A        25.0610   17.0930    5.1840 C.ar      1 FAD501      0.0000 
     17 C6A        26.4890   16.4200    4.9380 C.ar      1 FAD501      0.0000 
     18 N6A        26.6120   15.1020    4.4530 N.pl3     1 FAD501      0.0000 
     19 N1A        27.6340   17.2140    5.2130 N.ar      1 FAD501      0.0000 
     20 C2A        27.4710   18.3570    5.6220 C.ar      1 FAD501      0.0000 
     21 N3A        26.4720   18.9590    5.8470 N.ar      1 FAD501      0.0000 
     22 C4A        25.3260   18.6140    5.7410 C.ar      1 FAD501      0.0000 
     23 N1          8.5340   23.3170   10.1500 N.2       1 FAD501      0.0000 
     24 C2          7.6550   24.0440   11.0800 C.2       1 FAD501      0.0000 
     25 O2          7.7980   23.8590   12.2600 Du        1 FAD501      0.0000 
     26 N3          6.6290   24.8870   10.5680 N.am      1 FAD501      0.0000 
     27 C4          6.4920   25.0920    9.2230 C.2       1 FAD501      0.0000 
     28 O4          5.7290   25.9460    8.7800 O.2       1 FAD501      0.0000 
     29 C4X         7.3520   24.3490    8.3050 C.2       1 FAD501      0.0000 
     30 N5          7.2350   24.5030    7.0040 N.2       1 FAD501      0.0000 
     31 C5X         8.1660   23.7900    6.1100 C.ar      1 FAD501      0.0000 
     32 C6          8.0190   23.9780    4.7350 C.ar      1 FAD501      0.0000 
     33 C7          8.8780   23.3300    3.8540 C.ar      1 FAD501      0.0000 
     34 C7M         8.6950   23.5660    2.3500 C.3       1 FAD501      0.0000 
     35 C8          9.8840   22.5040    4.3480 C.ar      1 FAD501      0.0000 
     36 C8M        10.8240   21.7870    3.3630 C.3       1 FAD501      0.0000 
     37 C9         10.0450   22.3030    5.7260 C.ar      1 FAD501      0.0000 
     38 C9A         9.1770   22.9590    6.6230 C.ar      1 FAD501      0.0000 
     39 N10         9.3000   22.7890    8.0320 N.pl3     1 FAD501      0.0000 
     40 C10         8.4110   23.4620    8.8740 C.2       1 FAD501      0.0000 
     41 C1'        10.3250   21.8770    8.6340 C.3       1 FAD501      0.0000 
     42 C2'        11.4780   22.5510    9.3170 C.3       1 FAD501      0.0000 
     43 O2'        12.0930   23.3340    8.3680 O.3       1 FAD501      0.0000 
     44 C3'        12.3870   21.4260    9.7830 C.3       1 FAD501      0.0000 
     45 O3'        11.6860   20.5790   10.6540 O.3       1 FAD501      0.0000 
     46 C4'        13.5690   21.9960   10.4960 C.3       1 FAD501      0.0000 
     47 O4'        14.0520   23.1090    9.7890 O.3       1 FAD501      0.0000 
     48 C5'        14.6520   20.9330   10.5270 C.3       1 FAD501      0.0000 
     49 O5'        15.8100   21.4620   11.1950 O.3       1 FAD501      0.0000 
     50 P          17.0840   20.5160   11.1870 P.3       1 FAD501      0.0000 
     51 O1P        18.2600   21.2960   11.7550 O.co2     1 FAD501      0.0000 
     52 O2P        16.7350   19.2580   11.9370 O.co2     1 FAD501      0.0000 
     53 O3P        17.3850   20.0120    9.7030 O.3       1 FAD501      0.0000 
@<TRIPOS>BOND
     1    1   53 1    
     2    1    2 ar   
     3    1    3 ar   
     4    1    4 1    
     5    4    5 1    
     6    5    6 1    
     7    6    7 1    
     8    6    8 1    
     9    7   12 1    
    10    8    9 1    
    11    8   10 1    
    12   10   12 1    
    13   10   11 1    
    14   12   13 1    
    15   13   14 du   
    16   13   22 1    
    17   14   15 du   
    18   14   16 du   
    19   15   16 1    
    20   16   17 ar   
    21   16   22 ar   
    22   17   18 1    
    23   17   19 ar   
    24   19   20 ar   
    25   20   21 ar   
    26   21   22 ar   
    27   23   24 1    
    28   23   40 2    
    29   24   25 2    
    30   24   26 am   
    31   26   27 am   
    32   27   28 2    
    33   27   29 1    
    34   29   30 2    
    35   29   40 1    
    36   30   31 1    
    37   31   32 ar   
    38   31   38 ar   
    39   32   33 ar   
    40   33   34 1    
    41   33   35 ar   
    42   35   36 1    
    43   35   37 ar   
    44   37   38 ar   
    45   38   39 1    
    46   39   40 1    
    47   39   41 1    
    48   41   42 1    
    49   42   43 1    
    50   42   44 1    
    51   44   45 1    
    52   44   46 1    
    53   46   47 1    
    54   46   48 1    
    55   48   49 1    
    56   49   50 1    
    57   50   51 ar   
    58   50   52 ar   
    59   50   53 1    
@<TRIPOS>SUBSTRUCTURE
     1 FAD501      1 GROUP   
@<TRIPOS>SET
ATOM$ORANGE STATIC     ATOMS   COLORGROUP SYSTEM 
54 5 5 6 6 8 8 10 10 12 12 14 14 16 16 17 17 20 \
20 22 22 24 24 27 27 29 29 31 31 32 32 33 33 34 34 35 \
35 36 36 37 37 38 38 40 40 41 41 42 42 44 44 46 46 48 \
48 

