#    Name: 5z09_4_UTP
#    Modification time : Fri May 22 19:25:51 2020

@<TRIPOS>MOLECULE
5z09_4_UTP
   29    30     1     0     0
SMALL
NO_CHARGES


@<TRIPOS>ATOM
      1 PA         25.5040   68.3000   55.1560 P.3       1 UTP501      0.0000 
      2 O1A        24.7420   69.5840   54.9070 O.co2     1 UTP501      0.0000 
      3 O2A        24.8870   67.1480   55.9320 O.co2     1 UTP501      0.0000 
      4 O3A        26.8730   68.7210   55.9130 O.3       1 UTP501      0.0000 
      5 O5'        25.9690   67.7230   53.7210 O.3       1 UTP501      0.0000 
      6 PB         26.9300   68.8260   57.5300 P.3       1 UTP501      0.0000 
      7 O1B        26.7690   67.4220   58.0700 O.co2     1 UTP501      0.0000 
      8 O2B        28.1410   69.6370   57.9560 O.co2     1 UTP501      0.0000 
      9 O3B        25.5690   69.6730   57.7700 O.3       1 UTP501      0.0000 
     10 PG         24.9560   70.1310   59.1950 P.3       1 UTP501      0.0000 
     11 O1G        26.0990   70.8700   59.8660 O.co2     1 UTP501      0.0000 
     12 O2G        23.7770   70.9800   58.7930 O.co2     1 UTP501      0.0000 
     13 O3G        24.5050   68.8740   59.9020 O.co2     1 UTP501      0.0000 
     14 C5'        25.5840   66.4140   53.2810 C.3       1 UTP501      0.0000 
     15 C4'        26.7550   65.4160   53.2960 C.3       1 UTP501      0.0000 
     16 O4'        27.9150   65.9810   52.6650 O.3       1 UTP501      0.0000 
     17 C1'        29.1050   65.7370   53.4250 C.3       1 UTP501      0.0000 
     18 C2'        28.6290   65.3580   54.8310 C.3       1 UTP501      0.0000 
     19 O2'        29.3590   64.2630   55.3890 O.3       1 UTP501      0.0000 
     20 C3'        27.1800   64.9570   54.6930 C.3       1 UTP501      0.0000 
     21 O3'        27.1030   63.5340   54.8340 O.3       1 UTP501      0.0000 
     22 N1         29.9820   66.9280   53.4560 N.am      1 UTP501      0.0000 
     23 C6         29.4450   68.1380   53.6930 C.2       1 UTP501      0.0000 
     24 C2         31.3940   66.8200   53.3220 C.2       1 UTP501      0.0000 
     25 O2         31.9330   65.7110   53.1330 O.2       1 UTP501      0.0000 
     26 N3         32.1750   67.9010   53.4310 N.am      1 UTP501      0.0000 
     27 C4         31.6340   69.1050   53.6450 C.2       1 UTP501      0.0000 
     28 O4         32.3610   70.1150   53.7120 O.2       1 UTP501      0.0000 
     29 C5         30.2640   69.2530   53.8020 C.2       1 UTP501      0.0000 
@<TRIPOS>BOND
     1    1    2 ar   
     2    1    3 ar   
     3    1    4 1    
     4    1    5 1    
     5    4    6 1    
     6    5   14 1    
     7    6    7 ar   
     8    6    8 ar   
     9    6    9 1    
    10    9   10 1    
    11   10   11 ar   
    12   10   12 ar   
    13   10   13 ar   
    14   14   15 1    
    15   15   16 1    
    16   15   20 1    
    17   16   17 1    
    18   17   18 1    
    19   17   22 1    
    20   18   19 1    
    21   18   20 1    
    22   20   21 1    
    23   22   23 1    
    24   22   24 1    
    25   23   29 2    
    26   24   25 2    
    27   24   26 1    
    28   26   27 1    
    29   27   28 2    
    30   27   29 1    
@<TRIPOS>SUBSTRUCTURE
     1 UTP501      1 GROUP   
@<TRIPOS>SET

