#    Name: 5z09_3_UTP
#    Modification time : Fri May 22 19:25:43 2020

@<TRIPOS>MOLECULE
5z09_3_UTP
   29    30     1     0     0
SMALL
NO_CHARGES


@<TRIPOS>ATOM
      1 PA         36.3180   25.8510   50.4780 P.3       1 UTP501      0.0000 
      2 O1A        35.7170   26.5480   49.2770 O.co2     1 UTP501      0.0000 
      3 O2A        35.7790   24.5130   50.9530 O.co2     1 UTP501      0.0000 
      4 O3A        36.2330   26.8720   51.7350 O.3       1 UTP501      0.0000 
      5 O5'        37.8960   25.6920   50.1520 O.3       1 UTP501      0.0000 
      6 PB         35.0790   26.7960   52.8760 P.3       1 UTP501      0.0000 
      7 O1B        35.3230   25.5630   53.7230 O.co2     1 UTP501      0.0000 
      8 O2B        35.0080   28.1370   53.5650 O.co2     1 UTP501      0.0000 
      9 O3B        33.7060   26.5830   52.0500 O.3       1 UTP501      0.0000 
     10 PG         32.7890   27.7420   51.3870 P.3       1 UTP501      0.0000 
     11 O1G        33.0040   28.9900   52.1990 O.co2     1 UTP501      0.0000 
     12 O2G        33.2730   27.8480   49.9630 O.co2     1 UTP501      0.0000 
     13 O3G        31.4030   27.1540   51.5060 O.co2     1 UTP501      0.0000 
     14 C5'        38.4670   24.4200   49.8380 C.3       1 UTP501      0.0000 
     15 C4'        39.2200   23.8810   51.0490 C.3       1 UTP501      0.0000 
     16 O4'        40.1920   24.8630   51.4140 O.3       1 UTP501      0.0000 
     17 C1'        40.1190   25.1350   52.8180 C.3       1 UTP501      0.0000 
     18 C2'        38.7340   24.7050   53.2740 C.3       1 UTP501      0.0000 
     19 O2'        38.7630   24.2050   54.6110 O.3       1 UTP501      0.0000 
     20 C3'        38.3380   23.6360   52.2780 C.3       1 UTP501      0.0000 
     21 O3'        38.5620   22.3470   52.8590 O.3       1 UTP501      0.0000 
     22 N1         40.3670   26.5460   53.1540 N.am      1 UTP501      0.0000 
     23 C6         39.7310   27.5620   52.5400 C.2       1 UTP501      0.0000 
     24 C2         41.2970   26.8150   54.1780 C.2       1 UTP501      0.0000 
     25 O2         41.8710   25.8580   54.7420 O.2       1 UTP501      0.0000 
     26 N3         41.5540   28.0770   54.5500 N.am      1 UTP501      0.0000 
     27 C4         40.9350   29.1080   53.9540 C.2       1 UTP501      0.0000 
     28 O4         41.2000   30.2770   54.3320 O.2       1 UTP501      0.0000 
     29 C5         40.0150   28.8730   52.9230 C.2       1 UTP501      0.0000 
@<TRIPOS>BOND
     1    1    2 ar   
     2    1    3 ar   
     3    1    4 1    
     4    1    5 1    
     5    4    6 1    
     6    5   14 1    
     7    6    7 ar   
     8    6    8 ar   
     9    6    9 1    
    10    9   10 1    
    11   10   11 ar   
    12   10   12 ar   
    13   10   13 ar   
    14   14   15 1    
    15   15   16 1    
    16   15   20 1    
    17   16   17 1    
    18   17   18 1    
    19   17   22 1    
    20   18   19 1    
    21   18   20 1    
    22   20   21 1    
    23   22   23 1    
    24   22   24 1    
    25   23   29 2    
    26   24   25 2    
    27   24   26 1    
    28   26   27 1    
    29   27   28 2    
    30   27   29 1    
@<TRIPOS>SUBSTRUCTURE
     1 UTP501      1 GROUP   
@<TRIPOS>SET

