#    Name: 5z09_2_UTP
#    Modification time : Fri May 22 19:25:36 2020

@<TRIPOS>MOLECULE
5z09_2_UTP
   29    30     1     0     0
SMALL
NO_CHARGES


@<TRIPOS>ATOM
      1 PA         13.6020   32.3340   17.1530 P.3       1 UTP501      0.0000 
      2 O1A        12.5480   33.1130   16.3920 O.co2     1 UTP501      0.0000 
      3 O2A        13.1780   31.1570   18.0060 O.co2     1 UTP501      0.0000 
      4 O3A        14.7180   31.8450   16.0690 O.3       1 UTP501      0.0000 
      5 O5'        14.3880   33.3350   18.1480 O.3       1 UTP501      0.0000 
      6 PB         16.2490   32.3900   15.9280 P.3       1 UTP501      0.0000 
      7 O1B        17.1000   31.7250   16.9920 O.co2     1 UTP501      0.0000 
      8 O2B        16.2010   33.9020   15.8440 O.co2     1 UTP501      0.0000 
      9 O3B        16.7650   31.8350   14.4830 O.3       1 UTP501      0.0000 
     10 PG         18.3180   31.5020   14.1220 P.3       1 UTP501      0.0000 
     11 O1G        18.2660   30.1280   13.4620 O.co2     1 UTP501      0.0000 
     12 O2G        18.7890   32.5990   13.1810 O.co2     1 UTP501      0.0000 
     13 O3G        18.9860   31.5880   15.4800 O.co2     1 UTP501      0.0000 
     14 C5'        13.7460   34.4300   18.8120 C.3       1 UTP501      0.0000 
     15 C4'        14.7450   35.2050   19.6760 C.3       1 UTP501      0.0000 
     16 O4'        14.9720   34.4670   20.8780 O.3       1 UTP501      0.0000 
     17 C1'        16.3170   33.9810   20.9290 C.3       1 UTP501      0.0000 
     18 C2'        16.9830   34.3280   19.5860 C.3       1 UTP501      0.0000 
     19 O2'        18.3140   34.8510   19.6900 O.3       1 UTP501      0.0000 
     20 C3'        16.1010   35.4000   18.9960 C.3       1 UTP501      0.0000 
     21 O3'        16.6740   36.6860   19.2760 O.3       1 UTP501      0.0000 
     22 N1         16.3470   32.5430   21.2700 N.am      1 UTP501      0.0000 
     23 C6         16.1150   31.6020   20.3460 C.2       1 UTP501      0.0000 
     24 C2         16.6310   32.1390   22.6020 C.2       1 UTP501      0.0000 
     25 O2         16.8070   33.0000   23.4940 O.2       1 UTP501      0.0000 
     26 N3         16.7270   30.8400   22.9180 N.am      1 UTP501      0.0000 
     27 C4         16.5190   29.8990   21.9890 C.2       1 UTP501      0.0000 
     28 O4         16.6200   28.6880   22.2730 O.2       1 UTP501      0.0000 
     29 C5         16.1990   30.2610   20.6900 C.2       1 UTP501      0.0000 
@<TRIPOS>BOND
     1    1    2 ar   
     2    1    3 ar   
     3    1    4 1    
     4    1    5 1    
     5    4    6 1    
     6    5   14 1    
     7    6    7 ar   
     8    6    8 ar   
     9    6    9 1    
    10    9   10 1    
    11   10   11 ar   
    12   10   12 ar   
    13   10   13 ar   
    14   14   15 1    
    15   15   16 1    
    16   15   20 1    
    17   16   17 1    
    18   17   18 1    
    19   17   22 1    
    20   18   19 1    
    21   18   20 1    
    22   20   21 1    
    23   22   23 1    
    24   22   24 1    
    25   23   29 2    
    26   24   25 2    
    27   24   26 1    
    28   26   27 1    
    29   27   28 2    
    30   27   29 1    
@<TRIPOS>SUBSTRUCTURE
     1 UTP501      1 GROUP   
@<TRIPOS>SET

