#    Name: 5z09_1_UTP
#    Modification time : Fri May 22 19:25:29 2020

@<TRIPOS>MOLECULE
5z09_1_UTP
   29    30     1     0     0
SMALL
NO_CHARGES


@<TRIPOS>ATOM
      1 PA         24.4980   -9.5660    7.9970 P.3       1 UTP501      0.0000 
      2 O1A        23.5670  -10.5350    7.2830 O.co2     1 UTP501      0.0000 
      3 O2A        25.6590   -8.8920    7.2920 O.co2     1 UTP501      0.0000 
      4 O3A        25.1370  -10.2080    9.3640 O.3       1 UTP501      0.0000 
      5 O5'        23.4050   -8.4860    8.5020 O.3       1 UTP501      0.0000 
      6 PB         26.5460   -9.7440   10.0520 P.3       1 UTP501      0.0000 
      7 O1B        26.6270  -10.2550   11.4720 O.co2     1 UTP501      0.0000 
      8 O2B        26.6370   -8.2430    9.8700 O.co2     1 UTP501      0.0000 
      9 O3B        27.6180  -10.5230    9.1000 O.3       1 UTP501      0.0000 
     10 PG         28.9290  -11.3890    9.5430 P.3       1 UTP501      0.0000 
     11 O1G        30.0780  -10.4290    9.3790 O.co2     1 UTP501      0.0000 
     12 O2G        28.9570  -12.5420    8.5610 O.co2     1 UTP501      0.0000 
     13 O3G        28.7260  -11.8240   10.9750 O.co2     1 UTP501      0.0000 
     14 C5'        23.2200   -7.2190    7.8710 C.3       1 UTP501      0.0000 
     15 C4'        22.7460   -6.2550    8.9380 C.3       1 UTP501      0.0000 
     16 O4'        21.7410   -6.9610    9.6580 O.3       1 UTP501      0.0000 
     17 C1'        22.0470   -6.9580   11.0580 C.3       1 UTP501      0.0000 
     18 C2'        23.5300   -6.7500   11.1510 C.3       1 UTP501      0.0000 
     19 O2'        23.7700   -6.1220   12.4010 O.3       1 UTP501      0.0000 
     20 C3'        23.8670   -5.9230    9.9220 C.3       1 UTP501      0.0000 
     21 O3'        23.9290   -4.5180   10.2130 O.3       1 UTP501      0.0000 
     22 N1         21.7030   -8.1640   11.8250 N.am      1 UTP501      0.0000 
     23 C6         22.1000   -9.3800   11.4440 C.2       1 UTP501      0.0000 
     24 C2         20.9440   -8.0310   12.9970 C.2       1 UTP501      0.0000 
     25 O2         20.5220   -6.9080   13.3560 O.2       1 UTP501      0.0000 
     26 N3         20.6480   -9.1010   13.7340 N.am      1 UTP501      0.0000 
     27 C4         21.0220  -10.3220   13.3600 C.2       1 UTP501      0.0000 
     28 O4         20.7010  -11.2980   14.0670 O.2       1 UTP501      0.0000 
     29 C5         21.7480  -10.4970   12.1930 C.2       1 UTP501      0.0000 
@<TRIPOS>BOND
     1    1    2 ar   
     2    1    3 ar   
     3    1    4 1    
     4    1    5 1    
     5    4    6 1    
     6    5   14 1    
     7    6    7 ar   
     8    6    8 ar   
     9    6    9 1    
    10    9   10 1    
    11   10   11 ar   
    12   10   12 ar   
    13   10   13 ar   
    14   14   15 1    
    15   15   16 1    
    16   15   20 1    
    17   16   17 1    
    18   17   18 1    
    19   17   22 1    
    20   18   19 1    
    21   18   20 1    
    22   20   21 1    
    23   22   23 1    
    24   22   24 1    
    25   23   29 2    
    26   24   25 2    
    27   24   26 1    
    28   26   27 1    
    29   27   28 2    
    30   27   29 1    
@<TRIPOS>SUBSTRUCTURE
     1 UTP501      1 GROUP   
@<TRIPOS>SET

