#    Name: 6e7c_1_G2P
#    Modification time : Fri May 22 19:27:05 2020

@<TRIPOS>MOLECULE
6e7c_1_G2P
   32    34     1     0     0
SMALL
NO_CHARGES


@<TRIPOS>ATOM
      1 PG        -90.3670  -74.3450  -74.3060 P.3       1 G2P502      0.0000 
      2 O1G       -89.0780  -74.6310  -75.0340 O.co2     1 G2P502      0.0000 
      3 O2G       -91.6170  -74.6260  -75.1040 O.co2     1 G2P502      0.0000 
      4 O3G       -90.3830  -74.8280  -72.8620 O.co2     1 G2P502      0.0000 
      5 O3B       -90.4190  -72.7440  -74.2580 O.3       1 G2P502      0.0000 
      6 PB        -89.4320  -71.9000  -73.3200 P.3       1 G2P502      0.0000 
      7 O1B       -89.5520  -72.4520  -71.8150 O.co2     1 G2P502      0.0000 
      8 O2B       -88.0380  -72.0250  -73.7980 O.co2     1 G2P502      0.0000 
      9 C3A       -89.9540  -70.1690  -73.3680 C.3       1 G2P502      0.0000 
     10 PA        -90.7980  -69.7800  -71.8160 P.3       1 G2P502      0.0000 
     11 O1A       -90.3330  -70.8650  -70.7240 O.co2     1 G2P502      0.0000 
     12 O2A       -90.4030  -68.4330  -71.3650 O.co2     1 G2P502      0.0000 
     13 O5'       -92.3970  -69.8820  -71.9710 O.3       1 G2P502      0.0000 
     14 C5'       -93.1840  -68.7190  -72.2180 C.3       1 G2P502      0.0000 
     15 C4'       -93.9000  -68.2710  -70.9530 C.3       1 G2P502      0.0000 
     16 O4'       -92.9210  -67.8220  -70.0170 O.3       1 G2P502      0.0000 
     17 C3'       -94.8360  -67.1020  -71.2180 C.3       1 G2P502      0.0000 
     18 O3'       -96.0830  -67.2850  -70.5450 O.3       1 G2P502      0.0000 
     19 C2'       -94.1200  -65.8820  -70.6830 C.3       1 G2P502      0.0000 
     20 O2'       -95.0320  -64.9880  -70.0420 O.3       1 G2P502      0.0000 
     21 C1'       -93.1300  -66.4490  -69.6830 C.3       1 G2P502      0.0000 
     22 N9        -91.8360  -65.7250  -69.6550 N.pl3     1 G2P502      0.0000 
     23 C8        -90.9500  -65.5850  -70.6560 C.2       1 G2P502      0.0000 
     24 N7        -89.8740  -64.8630  -70.2510 N.2       1 G2P502      0.0000 
     25 C5        -90.0700  -64.5340  -68.9640 C.2       1 G2P502      0.0000 
     26 C6        -89.3370  -63.7870  -67.9230 C.2       1 G2P502      0.0000 
     27 O6        -88.2310  -63.2640  -68.1660 O.2       1 G2P502      0.0000 
     28 N1        -89.8900  -63.6740  -66.7140 N.am      1 G2P502      0.0000 
     29 C2        -91.0850  -64.2240  -66.4220 C.2       1 G2P502      0.0000 
     30 N2        -91.6060  -64.0890  -65.1800 N.pl3     1 G2P502      0.0000 
     31 N3        -91.8090  -64.9250  -67.3250 N.2       1 G2P502      0.0000 
     32 C4        -91.3620  -65.1050  -68.5830 C.2       1 G2P502      0.0000 
@<TRIPOS>BOND
     1    1    2 ar   
     2    1    3 ar   
     3    1    4 ar   
     4    1    5 1    
     5    5    6 1    
     6    6    7 ar   
     7    6    8 ar   
     8    6    9 1    
     9    9   10 1    
    10   10   11 ar   
    11   10   12 ar   
    12   10   13 1    
    13   13   14 1    
    14   14   15 1    
    15   15   16 1    
    16   15   17 1    
    17   16   21 1    
    18   17   18 1    
    19   17   19 1    
    20   19   20 1    
    21   19   21 1    
    22   21   22 1    
    23   22   23 1    
    24   22   32 1    
    25   23   24 2    
    26   24   25 1    
    27   25   26 1    
    28   25   32 2    
    29   26   27 2    
    30   26   28 am   
    31   28   29 1    
    32   29   30 1    
    33   29   31 2    
    34   31   32 1    
@<TRIPOS>SUBSTRUCTURE
     1 G2P502      1 GROUP   
@<TRIPOS>SET

