#    Name: 6e7c_2_GTP
#    Modification time : Fri May 22 19:27:17 2020

@<TRIPOS>MOLECULE
6e7c_2_GTP
   32    34     1     0     1
SMALL
NO_CHARGES


@<TRIPOS>ATOM
      1 PG        -90.3720  -73.8560  -34.2380 P.3       1 GTP502      0.0000 
      2 O1G       -90.2600  -73.1320  -35.5530 O.co2     1 GTP502      0.0000 
      3 O2G       -89.1290  -73.7880  -33.3870 O.co2     1 GTP502      0.0000 
      4 O3G       -91.0440  -75.2010  -34.3370 O.co2     1 GTP502      0.0000 
      5 O3B       -91.4170  -72.9670  -33.4140 O.3       1 GTP502      0.0000 
      6 PB        -90.8630  -71.6820  -32.6330 P.3       1 GTP502      0.0000 
      7 O1B       -89.8350  -71.0420  -33.5320 O.co2     1 GTP502      0.0000 
      8 O2B       -90.5040  -72.1220  -31.2350 O.co2     1 GTP502      0.0000 
      9 O3A       -92.1540  -70.7260  -32.5720 O.3       1 GTP502      0.0000 
     10 PA        -92.4290  -69.7780  -31.3050 P.3       1 GTP502      0.0000 
     11 O1A       -91.5400  -68.5660  -31.4300 O.co2     1 GTP502      0.0000 
     12 O2A       -92.3860  -70.6300  -30.0590 O.co2     1 GTP502      0.0000 
     13 O5'       -93.9290  -69.2700  -31.5910 O.3       1 GTP502      0.0000 
     14 C5'       -94.9640  -69.3530  -30.6180 C.3       1 GTP502      0.0000 
     15 C4'       -95.0700  -68.0560  -29.8390 C.3       1 GTP502      0.0000 
     16 O4'       -93.8250  -67.7530  -29.2130 O.3       1 GTP502      0.0000 
     17 C3'       -95.4220  -66.8570  -30.7010 C.3       1 GTP502      0.0000 
     18 O3'       -96.8070  -66.5290  -30.5590 O.3       1 GTP502      0.0000 
     19 C2'       -94.5370  -65.7390  -30.1910 C.3       1 GTP502      0.0000 
     20 O2'       -95.2960  -64.5850  -29.8230 O.3       1 GTP502      0.0000 
     21 C1'       -93.8480  -66.3510  -28.9830 C.3       1 GTP502      0.0000 
     22 N9        -92.5090  -65.7650  -28.7330 N.pl3     1 GTP502      0.0000 
     23 C8        -91.4310  -65.7140  -29.5340 C.2       1 GTP502      0.0000 
     24 N7        -90.4060  -65.0680  -28.9180 N.2       1 GTP502      0.0000 
     25 C5        -90.8330  -64.6990  -27.7000 C.2       1 GTP502      0.0000 
     26 C6        -90.2840  -63.9890  -26.5250 C.2       1 GTP502      0.0000 
     27 O6        -89.1130  -63.5610  -26.5270 O.2       1 GTP502      0.0000 
     28 N1        -91.0800  -63.8230  -25.4620 N.am      1 GTP502      0.0000 
     29 C2        -92.3440  -64.2730  -25.4350 C.2       1 GTP502      0.0000 
     30 N2        -93.1090  -64.0810  -24.3390 N.pl3     1 GTP502      0.0000 
     31 N3        -92.9070  -64.9260  -26.4680 N.2       1 GTP502      0.0000 
     32 C4        -92.2150  -65.1580  -27.5970 C.2       1 GTP502      0.0000 
@<TRIPOS>BOND
     1    1    2 ar   
     2    1    3 ar   
     3    1    4 ar   
     4    1    5 1    
     5    5    6 1    
     6    6    7 ar   
     7    6    8 ar   
     8    6    9 1    
     9    9   10 1    
    10   10   11 ar   
    11   10   12 ar   
    12   10   13 1    
    13   13   14 1    
    14   14   15 1    
    15   15   16 1    
    16   15   17 1    
    17   16   21 1    
    18   17   18 1    
    19   17   19 1    
    20   19   20 1    
    21   19   21 1    
    22   21   22 1    
    23   22   23 1    
    24   22   32 1    
    25   23   24 2    
    26   24   25 1    
    27   25   26 1    
    28   25   32 2    
    29   26   27 2    
    30   26   28 am   
    31   28   29 1    
    32   29   30 1    
    33   29   31 2    
    34   31   32 1    
@<TRIPOS>SUBSTRUCTURE
     1 GTP502      1 GROUP   
@<TRIPOS>SET
ATOM$ORANGE STATIC     ATOMS   COLORGROUP SYSTEM 
20 14 14 15 15 17 17 19 19 21 21 23 23 25 25 26 26 29 \
29 32 32 

