#    Name: 6e7c_1_G2P_CAVITY_N1_4
#    Modification time : Fri May 22 19:27:07 2020

@<TRIPOS>MOLECULE
6e7c_1_G2P_CAVITY_N1_4
  104     0     7     0     0
SMALL
NO_CHARGES


@<TRIPOS>ATOM
      1 OG        -93.3700  -69.4800  -74.2100 O.3       1 SER1        0.0000 
      2 OG        -92.5900  -68.3200  -74.7600 O.3       1 SER1        0.0000 
      3 OG        -93.7900  -67.4300  -74.6100 O.3       1 SER1        0.0000 
      4 OG        -94.1400  -68.2300  -72.6800 O.3       1 SER1        0.0000 
      5 OG        -95.3400  -67.3400  -72.5300 O.3       1 SER1        0.0000 
      6 OG        -91.3500  -64.4000  -72.9200 O.3       1 SER1        0.0000 
      7 OG        -92.5500  -63.5200  -72.7700 O.3       1 SER1        0.0000 
      8 OG        -92.0600  -68.4000  -70.0400 O.3       1 SER1        0.0000 
      9 OG        -94.0500  -68.6700  -69.3500 O.3       1 SER1        0.0000 
     10 OG        -93.2600  -67.5100  -69.9000 O.3       1 SER1        0.0000 
     11 OG        -90.9100  -64.0500  -71.5300 O.3       1 SER1        0.0000 
     12 OG        -92.9000  -64.3200  -70.8400 O.3       1 SER1        0.0000 
     13 OG        -92.8300  -67.1500  -68.5100 O.3       1 SER1        0.0000 
     14 O         -91.8200  -69.5600  -76.3000 O.2       2 ALA2        0.0000 
     15 O         -90.9700  -71.2500  -74.5100 O.2       2 ALA2        0.0000 
     16 O         -92.1700  -70.3600  -74.3600 O.2       2 ALA2        0.0000 
     17 O         -90.1700  -67.6900  -74.0600 O.2       2 ALA2        0.0000 
     18 O         -92.9400  -69.1200  -72.8200 O.2       2 ALA2        0.0000 
     19 O         -91.3700  -66.8100  -73.9100 O.2       2 ALA2        0.0000 
     20 O         -91.3000  -69.6400  -71.5800 O.2       2 ALA2        0.0000 
     21 O         -90.5100  -68.4900  -72.1300 O.2       2 ALA2        0.0000 
     22 O         -92.5000  -68.7600  -71.4300 O.2       2 ALA2        0.0000 
     23 O         -91.7200  -67.6000  -71.9800 O.2       2 ALA2        0.0000 
     24 O         -90.9300  -66.4500  -72.5200 O.2       2 ALA2        0.0000 
     25 N         -94.4900  -69.0300  -70.7400 N.am      2 ALA2        0.0000 
     26 N         -95.6900  -68.1400  -70.5900 N.am      2 ALA2        0.0000 
     27 O         -90.8600  -69.2900  -70.1900 O.2       2 ALA2        0.0000 
     28 O         -90.0800  -68.1300  -70.7400 O.2       2 ALA2        0.0000 
     29 O         -91.2800  -67.2400  -70.5900 O.2       2 ALA2        0.0000 
     30 O         -90.4900  -66.0900  -71.1400 O.2       2 ALA2        0.0000 
     31 O         -88.9200  -63.7800  -72.2300 O.2       2 ALA2        0.0000 
     32 N         -95.2500  -67.7800  -69.2000 N.am      2 ALA2        0.0000 
     33 N         -94.4700  -66.6300  -69.7500 N.am      2 ALA2        0.0000 
     34 N         -93.6800  -65.4700  -70.2900 N.am      2 ALA2        0.0000 
     35 N         -96.4500  -66.9000  -69.0500 N.am      2 ALA2        0.0000 
     36 N         -95.6700  -65.7400  -69.6000 N.am      2 ALA2        0.0000 
     37 N         -94.8800  -64.5900  -70.1400 N.am      2 ALA2        0.0000 
     38 N         -94.1000  -63.4300  -70.6900 N.am      2 ALA2        0.0000 
     39 N         -97.6500  -66.0100  -68.9100 N.am      2 ALA2        0.0000 
     40 N         -96.0800  -63.7000  -70.0000 N.am      2 ALA2        0.0000 
     41 O         -90.0600  -65.7300  -69.7500 O.2       2 ALA2        0.0000 
     42 O         -89.2700  -64.5700  -70.2900 O.2       2 ALA2        0.0000 
     43 N         -88.4900  -63.4200  -70.8400 N.am      2 ALA2        0.0000 
     44 N         -94.0300  -66.2700  -68.3600 N.am      2 ALA2        0.0000 
     45 N         -93.2400  -65.1100  -68.9000 N.am      2 ALA2        0.0000 
     46 N         -92.4600  -63.9600  -69.4500 N.am      2 ALA2        0.0000 
     47 N         -93.6600  -63.0700  -69.3000 N.am      2 ALA2        0.0000 
     48 N         -88.8300  -64.2100  -68.9000 N.am      2 ALA2        0.0000 
     49 N         -92.8100  -64.7500  -67.5100 N.am      2 ALA2        0.0000 
     50 N         -92.0200  -63.6000  -68.0600 N.am      2 ALA2        0.0000 
     51 N         -88.4000  -63.8600  -67.5100 N.am      2 ALA2        0.0000 
     52 O         -92.3700  -64.3900  -66.1200 O.2       2 ALA2        0.0000 
     53 O         -91.5900  -63.2400  -66.6700 O.2       2 ALA2        0.0000 
     54 O         -89.9500  -63.7700  -65.4300 O.2       2 ALA2        0.0000 
     55 O         -91.9300  -64.0400  -64.7400 O.2       2 ALA2        0.0000 
     56 O         -91.1500  -62.8800  -65.2800 O.2       2 ALA2        0.0000 
     57 O         -91.5000  -63.6800  -63.3500 O.2       2 ALA2        0.0000 
     58 OD1       -88.9900  -70.9800  -75.2000 O.co2     3 ASP3        0.0000 
     59 OD1       -90.1900  -70.0900  -75.0600 O.co2     3 ASP3        0.0000 
     60 OD1       -89.3300  -71.7800  -73.2700 O.co2     3 ASP3        0.0000 
     61 NZ        -92.5700  -65.9200  -73.7700 N.4       4 LYS4        0.0000 
     62 NZ        -94.5500  -66.1900  -73.0700 N.4       4 LYS4        0.0000 
     63 NZ        -95.7600  -65.3000  -72.9200 N.4       4 LYS4        0.0000 
     64 NZ        -94.1200  -65.8300  -71.6800 N.4       4 LYS4        0.0000 
     65 NZ        -93.3300  -64.6700  -72.2300 N.4       4 LYS4        0.0000 
     66 NZ        -96.8900  -67.2600  -70.4400 N.4       4 LYS4        0.0000 
     67 NZ        -96.1000  -66.1000  -70.9900 N.4       4 LYS4        0.0000 
     68 NZ        -95.3200  -64.9400  -71.5300 N.4       4 LYS4        0.0000 
     69 NZ        -94.5300  -63.7900  -72.0800 N.4       4 LYS4        0.0000 
     70 NZ        -97.3000  -65.2100  -70.8400 N.4       4 LYS4        0.0000 
     71 NZ        -95.7300  -62.9000  -71.9300 N.4       4 LYS4        0.0000 
     72 CZ        -91.2600  -64.8400  -69.6000 C.ar      5 PHE5        0.0000 
     73 CZ        -90.4700  -63.6900  -70.1400 C.ar      5 PHE5        0.0000 
     74 CZ        -90.8200  -64.4800  -68.2100 C.ar      5 PHE5        0.0000 
     75 CZ        -90.0400  -63.3300  -68.7500 C.ar      5 PHE5        0.0000 
     76 CZ        -89.6000  -62.9700  -67.3600 C.ar      5 PHE5        0.0000 
     77 CZ        -90.8000  -62.0800  -67.2200 C.ar      5 PHE5        0.0000 
     78 CA        -88.5500  -70.6200  -73.8100 C.3       6 GLY6        0.0000 
     79 CA        -90.5300  -70.8900  -73.1200 C.3       6 GLY6        0.0000 
     80 CA        -89.7500  -69.7300  -73.6700 C.3       6 GLY6        0.0000 
     81 CA        -91.7400  -70.0000  -72.9700 C.3       6 GLY6        0.0000 
     82 CA        -96.1200  -68.5000  -71.9800 C.3       6 GLY6        0.0000 
     83 CA        -90.1000  -70.5300  -71.7300 C.3       6 GLY6        0.0000 
     84 CA        -96.5200  -64.0600  -71.3900 C.3       6 GLY6        0.0000 
     85 CA        -90.8400  -66.8800  -69.2000 C.3       6 GLY6        0.0000 
     86 CA        -92.0400  -66.0000  -69.0500 C.3       6 GLY6        0.0000 
     87 CA        -94.8100  -67.4200  -67.8100 C.3       6 GLY6        0.0000 
     88 CA        -89.6200  -65.3700  -68.3600 C.3       6 GLY6        0.0000 
     89 CA        -92.3900  -66.8000  -67.1200 C.3       6 GLY6        0.0000 
     90 CA        -91.6100  -65.6400  -67.6600 C.3       6 GLY6        0.0000 
     91 CA        -89.1800  -65.0100  -66.9700 C.3       6 GLY6        0.0000 
     92 CA        -91.1700  -65.2800  -66.2700 C.3       6 GLY6        0.0000 
     93 CA        -90.7300  -64.9200  -64.8800 C.3       6 GLY6        0.0000 
     94 DU        -91.3900  -69.2100  -74.9100 H         7 CUB7        0.0000 
     95 DU        -90.9500  -68.8500  -73.5200 H         7 CUB7        0.0000 
     96 DU        -92.1500  -67.9600  -73.3700 H         7 CUB7        0.0000 
     97 DU        -93.3500  -67.0700  -73.2200 H         7 CUB7        0.0000 
     98 DU        -93.7000  -67.8700  -71.2900 H         7 CUB7        0.0000 
     99 DU        -92.9200  -66.7200  -71.8300 H         7 CUB7        0.0000 
    100 DU        -92.1300  -65.5600  -72.3800 H         7 CUB7        0.0000 
    101 DU        -94.9000  -66.9900  -71.1400 H         7 CUB7        0.0000 
    102 DU        -92.4800  -66.3600  -70.4400 H         7 CUB7        0.0000 
    103 DU        -91.6900  -65.2000  -70.9900 H         7 CUB7        0.0000 
    104 DU        -90.3800  -64.1300  -66.8200 H         7 CUB7        0.0000 
@<TRIPOS>BOND
@<TRIPOS>SUBSTRUCTURE
     1 SER1        1 GROUP   
     2 ALA2       14 GROUP   
     3 ASP3       58 GROUP   
     4 LYS4       61 GROUP   
     5 PHE5       72 GROUP   
     6 GLY6       78 GROUP   
     7 CUB7       94 GROUP   
@<TRIPOS>SET

