#    Name: 6jxh_1_CLR_CAVITY_N1_8
#    Modification time : Fri May 22 19:35:40 2020

@<TRIPOS>MOLECULE
6jxh_1_CLR_CAVITY_N1_8
   33     0     4     0     0
SMALL
NO_CHARGES


@<TRIPOS>ATOM
      1 OG         31.9000  -55.0500  -62.4200 O.3       1 SER1        0.0000 
      2 OG         32.0900  -54.8900  -60.9500 O.3       1 SER1        0.0000 
      3 OG         32.3400  -53.4300  -61.1400 O.3       1 SER1        0.0000 
      4 OG         30.8800  -53.1500  -60.9800 O.3       1 SER1        0.0000 
      5 OG         33.7400  -55.0100  -59.6200 O.3       1 SER1        0.0000 
      6 OG         32.5300  -53.2700  -59.6600 O.3       1 SER1        0.0000 
      7 OG         31.0700  -52.9900  -59.5000 O.3       1 SER1        0.0000 
      8 CZ         28.3300  -56.2900  -64.8800 C.ar      2 PHE5        0.0000 
      9 CZ         28.5900  -54.8200  -65.0700 C.ar      2 PHE5        0.0000 
     10 CZ         29.9900  -56.4000  -63.5500 C.ar      2 PHE5        0.0000 
     11 CZ         28.5200  -56.1300  -63.4000 C.ar      2 PHE5        0.0000 
     12 CZ         28.7800  -54.6600  -63.5900 C.ar      2 PHE5        0.0000 
     13 CZ         30.4300  -54.7800  -62.2700 C.ar      2 PHE5        0.0000 
     14 CZ         28.9700  -54.5000  -62.1100 C.ar      2 PHE5        0.0000 
     15 CZ         27.5000  -54.2200  -61.9600 C.ar      2 PHE5        0.0000 
     16 CZ         35.4600  -53.8200  -59.9700 C.ar      2 PHE5        0.0000 
     17 CZ         35.7200  -52.3500  -60.1600 C.ar      2 PHE5        0.0000 
     18 CZ         34.0000  -53.5400  -59.8200 C.ar      2 PHE5        0.0000 
     19 CZ         34.2500  -52.0800  -60.0100 C.ar      2 PHE5        0.0000 
     20 CA         30.6900  -53.3100  -62.4600 C.3       3 GLY6        0.0000 
     21 DU         33.2400  -54.1900  -65.7300 H         4 CUB7        0.0000 
     22 DU         31.7800  -53.9100  -65.5800 H         4 CUB7        0.0000 
     23 DU         33.4300  -54.0300  -64.2500 H         4 CUB7        0.0000 
     24 DU         31.7100  -55.2200  -63.9000 H         4 CUB7        0.0000 
     25 DU         31.9700  -53.7500  -64.1000 H         4 CUB7        0.0000 
     26 DU         30.2400  -54.9400  -63.7500 H         4 CUB7        0.0000 
     27 DU         30.5000  -53.4700  -63.9400 H         4 CUB7        0.0000 
     28 DU         35.0900  -54.1400  -62.9300 H         4 CUB7        0.0000 
     29 DU         33.3600  -55.3300  -62.5800 H         4 CUB7        0.0000 
     30 DU         33.6200  -53.8700  -62.7700 H         4 CUB7        0.0000 
     31 DU         32.1500  -53.5900  -62.6200 H         4 CUB7        0.0000 
     32 DU         35.2700  -53.9800  -61.4500 H         4 CUB7        0.0000 
     33 DU         33.8100  -53.7000  -61.2900 H         4 CUB7        0.0000 
@<TRIPOS>BOND
@<TRIPOS>SUBSTRUCTURE
     1 SER1        1 GROUP   
     2 PHE5        8 GROUP   
     3 GLY6       20 GROUP   
     4 CUB7       21 GROUP   
@<TRIPOS>SET

