#    Name: 6jxh_1_CLR_CAVITY_N1_ALL
#    Modification time : Fri May 22 19:35:40 2020

@<TRIPOS>MOLECULE
6jxh_1_CLR_CAVITY_N1_ALL
   72     0     5     0     0
SMALL
NO_CHARGES


@<TRIPOS>ATOM
      1 OG         31.9000  -55.0500  -62.4200 O.3       1 SER1        0.0000 
      2 OG         32.0900  -54.8900  -60.9500 O.3       1 SER1        0.0000 
      3 OG         32.3400  -53.4300  -61.1400 O.3       1 SER1        0.0000 
      4 OG         30.8800  -53.1500  -60.9800 O.3       1 SER1        0.0000 
      5 OG         33.7400  -55.0100  -59.6200 O.3       1 SER1        0.0000 
      6 OG         32.5300  -53.2700  -59.6600 O.3       1 SER1        0.0000 
      7 OG         31.0700  -52.9900  -59.5000 O.3       1 SER1        0.0000 
      8 N          27.7600  -52.7600  -62.1500 N.am      2 ALA2        0.0000 
      9 CZ         28.3300  -56.2900  -64.8800 C.ar      3 PHE5        0.0000 
     10 CZ         28.5900  -54.8200  -65.0700 C.ar      3 PHE5        0.0000 
     11 CZ         28.8500  -53.3600  -65.2600 C.ar      3 PHE5        0.0000 
     12 CZ         27.3800  -53.0800  -65.1100 C.ar      3 PHE5        0.0000 
     13 CZ         36.6200  -53.1200  -64.7600 C.ar      3 PHE5        0.0000 
     14 CZ         29.9900  -56.4000  -63.5500 C.ar      3 PHE5        0.0000 
     15 CZ         28.5200  -56.1300  -63.4000 C.ar      3 PHE5        0.0000 
     16 CZ         28.7800  -54.6600  -63.5900 C.ar      3 PHE5        0.0000 
     17 CZ         27.5700  -52.9200  -63.6300 C.ar      3 PHE5        0.0000 
     18 CZ         30.4300  -54.7800  -62.2700 C.ar      3 PHE5        0.0000 
     19 CZ         28.9700  -54.5000  -62.1100 C.ar      3 PHE5        0.0000 
     20 CZ         27.5000  -54.2200  -61.9600 C.ar      3 PHE5        0.0000 
     21 CZ         37.0000  -52.7900  -61.8000 C.ar      3 PHE5        0.0000 
     22 CZ         35.5300  -52.5200  -61.6400 C.ar      3 PHE5        0.0000 
     23 CZ         35.7900  -51.0500  -61.8400 C.ar      3 PHE5        0.0000 
     24 CZ         35.4600  -53.8200  -59.9700 C.ar      3 PHE5        0.0000 
     25 CZ         35.7200  -52.3500  -60.1600 C.ar      3 PHE5        0.0000 
     26 CZ         34.0000  -53.5400  -59.8200 C.ar      3 PHE5        0.0000 
     27 CZ         34.2500  -52.0800  -60.0100 C.ar      3 PHE5        0.0000 
     28 CA         34.9700  -53.0000  -66.0800 C.3       4 GLY6        0.0000 
     29 CA         32.0300  -52.4500  -65.7700 C.3       4 GLY6        0.0000 
     30 CA         30.5700  -52.1700  -65.6100 C.3       4 GLY6        0.0000 
     31 CA         29.1000  -51.8900  -65.4600 C.3       4 GLY6        0.0000 
     32 CA         35.1500  -52.8400  -64.6000 C.3       4 GLY6        0.0000 
     33 CA         33.6900  -52.5600  -64.4500 C.3       4 GLY6        0.0000 
     34 CA         32.2200  -52.2900  -64.2900 C.3       4 GLY6        0.0000 
     35 CA         30.7600  -52.0100  -64.1300 C.3       4 GLY6        0.0000 
     36 CA         29.2900  -51.7300  -63.9800 C.3       4 GLY6        0.0000 
     37 CA         27.8300  -51.4500  -63.8200 C.3       4 GLY6        0.0000 
     38 CA         36.8100  -52.9600  -63.2800 C.3       4 GLY6        0.0000 
     39 CA         35.3400  -52.6800  -63.1200 C.3       4 GLY6        0.0000 
     40 CA         33.8800  -52.4000  -62.9700 C.3       4 GLY6        0.0000 
     41 CA         34.1300  -50.9400  -63.1600 C.3       4 GLY6        0.0000 
     42 CA         32.4100  -52.1200  -62.8100 C.3       4 GLY6        0.0000 
     43 CA         30.6900  -53.3100  -62.4600 C.3       4 GLY6        0.0000 
     44 CA         30.9500  -51.8500  -62.6500 C.3       4 GLY6        0.0000 
     45 CA         29.2200  -53.0300  -62.3000 C.3       4 GLY6        0.0000 
     46 CA         29.4800  -51.5700  -62.5000 C.3       4 GLY6        0.0000 
     47 CA         34.0700  -52.2400  -61.4900 C.3       4 GLY6        0.0000 
     48 CA         34.3200  -50.7700  -61.6800 C.3       4 GLY6        0.0000 
     49 CA         32.6000  -51.9600  -61.3300 C.3       4 GLY6        0.0000 
     50 CA         31.1300  -51.6900  -61.1800 C.3       4 GLY6        0.0000 
     51 CA         29.4100  -52.8700  -60.8300 C.3       4 GLY6        0.0000 
     52 CA         29.6700  -51.4100  -61.0200 C.3       4 GLY6        0.0000 
     53 CA         34.5100  -50.6100  -60.2000 C.3       4 GLY6        0.0000 
     54 CA         32.7900  -51.8000  -59.8500 C.3       4 GLY6        0.0000 
     55 CA         33.0400  -50.3400  -60.0500 C.3       4 GLY6        0.0000 
     56 CA         31.3200  -51.5200  -59.7000 C.3       4 GLY6        0.0000 
     57 DU         33.2400  -54.1900  -65.7300 H         5 CUB7        0.0000 
     58 DU         33.5000  -52.7200  -65.9300 H         5 CUB7        0.0000 
     59 DU         31.7800  -53.9100  -65.5800 H         5 CUB7        0.0000 
     60 DU         30.3100  -53.6400  -65.4200 H         5 CUB7        0.0000 
     61 DU         33.4300  -54.0300  -64.2500 H         5 CUB7        0.0000 
     62 DU         31.7100  -55.2200  -63.9000 H         5 CUB7        0.0000 
     63 DU         31.9700  -53.7500  -64.1000 H         5 CUB7        0.0000 
     64 DU         30.2400  -54.9400  -63.7500 H         5 CUB7        0.0000 
     65 DU         30.5000  -53.4700  -63.9400 H         5 CUB7        0.0000 
     66 DU         29.0300  -53.2000  -63.7800 H         5 CUB7        0.0000 
     67 DU         35.0900  -54.1400  -62.9300 H         5 CUB7        0.0000 
     68 DU         33.3600  -55.3300  -62.5800 H         5 CUB7        0.0000 
     69 DU         33.6200  -53.8700  -62.7700 H         5 CUB7        0.0000 
     70 DU         32.1500  -53.5900  -62.6200 H         5 CUB7        0.0000 
     71 DU         35.2700  -53.9800  -61.4500 H         5 CUB7        0.0000 
     72 DU         33.8100  -53.7000  -61.2900 H         5 CUB7        0.0000 
@<TRIPOS>BOND
@<TRIPOS>SUBSTRUCTURE
     1 SER1        1 GROUP   
     2 ALA2        8 GROUP   
     3 PHE5        9 GROUP   
     4 GLY6       28 GROUP   
     5 CUB7       57 GROUP   
@<TRIPOS>SET

