#    Name: 6jxh_1_CLR
#    Modification time : Fri May 22 19:35:39 2020

@<TRIPOS>MOLECULE
6jxh_1_CLR
   28    31     1     0     0
SMALL
NO_CHARGES


@<TRIPOS>ATOM
      1 C1         36.6450  -58.3010  -50.3440 C.3       1 CLR302      0.0000 
      2 C2         36.3400  -58.2210  -48.8450 C.3       1 CLR302      0.0000 
      3 C3         35.1160  -57.3550  -48.5430 C.3       1 CLR302      0.0000 
      4 C4         33.9120  -57.9040  -49.3080 C.3       1 CLR302      0.0000 
      5 C5         34.2660  -58.0600  -50.7740 C.2       1 CLR302      0.0000 
      6 C6         33.5120  -57.4690  -51.7130 C.2       1 CLR302      0.0000 
      7 C7         33.8080  -57.5620  -53.1870 C.3       1 CLR302      0.0000 
      8 C8         34.4810  -58.8940  -53.4440 C.3       1 CLR302      0.0000 
      9 C9         35.7630  -58.9710  -52.6250 C.3       1 CLR302      0.0000 
     10 C10        35.4720  -58.9010  -51.1170 C.3       1 CLR302      0.0000 
     11 C11        36.5820  -60.2160  -53.0070 C.3       1 CLR302      0.0000 
     12 C12        36.7740  -60.4360  -54.5130 C.3       1 CLR302      0.0000 
     13 C13        35.4370  -60.3890  -55.2400 C.3       1 CLR302      0.0000 
     14 C14        34.8280  -59.0370  -54.9140 C.3       1 CLR302      0.0000 
     15 C15        33.7010  -58.8260  -55.9150 C.3       1 CLR302      0.0000 
     16 C16        34.2550  -59.4790  -57.1790 C.3       1 CLR302      0.0000 
     17 C17        35.4600  -60.3510  -56.7740 C.3       1 CLR302      0.0000 
     18 C18        34.5370  -61.5250  -54.7520 C.3       1 CLR302      0.0000 
     19 C19        35.1700  -60.2920  -50.5840 C.3       1 CLR302      0.0000 
     20 C20        35.4870  -61.6850  -57.5400 C.3       1 CLR302      0.0000 
     21 C21        36.7480  -62.5050  -57.2700 C.3       1 CLR302      0.0000 
     22 C22        35.3750  -61.4330  -59.0490 C.3       1 CLR302      0.0000 
     23 C23        34.0110  -61.7480  -59.6720 C.3       1 CLR302      0.0000 
     24 C24        33.6980  -60.7780  -60.8130 C.3       1 CLR302      0.0000 
     25 C25        32.6760  -61.3510  -61.7910 C.3       1 CLR302      0.0000 
     26 C26        31.2820  -60.8120  -61.5040 C.3       1 CLR302      0.0000 
     27 C27        33.0870  -61.1010  -63.2390 C.3       1 CLR302      0.0000 
     28 O1         34.8610  -57.3340  -47.1310 O.3       1 CLR302      0.0000 
@<TRIPOS>BOND
     1    1    2 1    
     2    1   10 1    
     3    2    3 1    
     4    3    4 1    
     5    3   28 1    
     6    4    5 1    
     7    5    6 2    
     8    5   10 1    
     9    6    7 1    
    10    7    8 1    
    11    8    9 1    
    12    8   14 1    
    13    9   10 1    
    14    9   11 1    
    15   10   19 1    
    16   11   12 1    
    17   12   13 1    
    18   13   14 1    
    19   13   17 1    
    20   13   18 1    
    21   14   15 1    
    22   15   16 1    
    23   16   17 1    
    24   17   20 1    
    25   20   21 1    
    26   20   22 1    
    27   22   23 1    
    28   23   24 1    
    29   24   25 1    
    30   25   26 1    
    31   25   27 1    
@<TRIPOS>SUBSTRUCTURE
     1 CLR302      1 GROUP   
@<TRIPOS>SET

