#    Name: 5o48_1_NHW
#    Modification time : Fri May 22 19:15:00 2020

@<TRIPOS>MOLECULE
5o48_1_NHW
   64    66     1     0     0
SMALL
NO_CHARGES


@<TRIPOS>ATOM
      1 S1         33.3690   42.3790   66.5950 S.3       1 NHW501      0.0000 
      2 C2         33.3990   44.1540   67.1950 C.3       1 NHW501      0.0000 
      3 C3         34.8260   44.6370   67.4160 C.3       1 NHW501      0.0000 
      4 N4         34.7440   46.0240   68.0000 N.am      1 NHW501      0.0000 
      5 C5         34.6410   47.0740   67.2020 C.2       1 NHW501      0.0000 
      6 O5         34.4200   46.9530   65.9840 O.2       1 NHW501      0.0000 
      7 C6         34.5400   48.3910   67.9580 C.3       1 NHW501      0.0000 
      8 C7         35.0090   49.6210   67.0760 C.3       1 NHW501      0.0000 
      9 N8         36.4090   49.3260   66.6410 N.am      1 NHW501      0.0000 
     10 C9         37.4530   49.2680   67.4860 C.2       1 NHW501      0.0000 
     11 O9         37.3460   49.4250   68.6620 O.2       1 NHW501      0.0000 
     12 CP         32.9090   41.5590   68.1570 C.3       1 NHW501      0.0000 
     13 C10        38.8020   48.9990   66.9430 C.3       1 NHW501      0.0000 
     14 O10        38.7300   49.2320   65.5150 O.3       1 NHW501      0.0000 
     15 C11        39.2440   47.5320   67.1590 C.3       1 NHW501      0.0000 
     16 C12        40.5040   47.2310   66.3300 C.3       1 NHW501      0.0000 
     17 C13        38.2310   46.5430   66.5630 C.3       1 NHW501      0.0000 
     18 C14        39.5660   47.3010   68.6770 C.3       1 NHW501      0.0000 
     19 N1A        38.3380   41.0980   65.6010 N.ar      1 NHW501      0.0000 
     20 O1A        45.8670   48.6150   64.9010 O.co2     1 NHW501      0.0000 
     21 P1A        44.8280   47.8550   65.7240 P.3       1 NHW501      0.0000 
     22 C1M        34.2080   41.2110   68.9300 C.2       1 NHW501      0.0000 
     23 O1M        34.4920   41.9930   69.8660 O.2       1 NHW501      0.0000 
     24 C1X        42.6910   43.2150   63.6590 C.3       1 NHW501      0.0000 
     25 C2A        39.5970   40.6800   65.5550 C.ar      1 NHW501      0.0000 
     26 O2A        44.8420   47.9280   67.2210 O.co2     1 NHW501      0.0000 
     27 P2A        42.3140   49.1110   65.7080 P.3       1 NHW501      0.0000 
     28 C2M        35.0770   40.0030   68.5780 C.3       1 NHW501      0.0000 
     29 C2X        43.1510   43.7540   62.2880 C.3       1 NHW501      0.0000 
     30 O2X        42.8200   42.6970   61.3250 O.3       1 NHW501      0.0000 
     31 N3A        40.6640   41.2930   64.9870 N.ar      1 NHW501      0.0000 
     32 O3A        43.4140   48.2170   65.0610 O.3       1 NHW501      0.0000 
     33 C3M        36.5920   40.2940   68.9800 C.3       1 NHW501      0.0000 
     34 C3X        44.6490   43.8450   62.5240 C.3       1 NHW501      0.0000 
     35 O3X        45.3490   42.5750   62.4340 O.3       1 NHW501      0.0000 
     36 P3X        46.1240   42.2220   61.0810 P.3       1 NHW501      0.0000 
     37 C4A        40.4580   42.5440   64.4930 C.ar      1 NHW501      0.0000 
     38 O4A        41.4110   49.3870   64.5340 O.co2     1 NHW501      0.0000 
     39 C4M        37.4130   39.0670   68.5160 C.3       1 NHW501      0.0000 
     40 C4X        44.7940   44.3180   63.9950 C.3       1 NHW501      0.0000 
     41 O4X        43.4230   44.0700   64.6180 O.3       1 NHW501      0.0000 
     42 C5A        39.1690   43.0860   64.5240 C.ar      1 NHW501      0.0000 
     43 O5A        42.8790   50.2270   66.4630 O.co2     1 NHW501      0.0000 
     44 C5M        38.9210   39.3120   68.7510 C.3       1 NHW501      0.0000 
     45 C5X        44.8760   45.8910   63.9530 C.3       1 NHW501      0.0000 
     46 O5X        44.8640   46.3150   65.2880 O.3       1 NHW501      0.0000 
     47 C6A        38.0600   42.3410   65.0620 C.ar      1 NHW501      0.0000 
     48 N6A        36.8220   42.8630   65.0980 N.pl3     1 NHW501      0.0000 
     49 O6A        41.5430   48.1580   66.7430 O.3       1 NHW501      0.0000 
     50 C6M        39.7520   38.0900   68.4120 C.3       1 NHW501      0.0000 
     51 N7A        39.2340   44.3070   63.9670 N.2       1 NHW501      0.0000 
     52 O7A        44.9920   42.3500   59.9110 O.co2     1 NHW501      0.0000 
     53 C7M        39.5130   36.9380   69.4800 C.3       1 NHW501      0.0000 
     54 C8A        40.5410   44.5030   63.5920 C.2       1 NHW501      0.0000 
     55 O8A        46.5590   40.7790   61.2060 O.co2     1 NHW501      0.0000 
     56 C8M        40.2550   35.6770   69.1420 C.3       1 NHW501      0.0000 
     57 N9A        41.2760   43.4080   63.9040 N.pl3     1 NHW501      0.0000 
     58 O9A        47.1410   43.2720   60.9320 O.co2     1 NHW501      0.0000 
     59 C9M        40.0800   34.5660   70.2570 C.3       1 NHW501      0.0000 
     60 CAM        41.0090   34.8970   71.4730 C.3       1 NHW501      0.0000 
     61 CBM        40.9630   33.8310   72.6270 C.3       1 NHW501      0.0000 
     62 CCM        41.5120   32.4250   72.1820 C.3       1 NHW501      0.0000 
     63 CDM        41.4030   31.4130   73.3760 C.3       1 NHW501      0.0000 
     64 CEM        42.0790   30.0330   72.9680 C.3       1 NHW501      0.0000 
@<TRIPOS>BOND
     1    1    2 1    
     2    1   12 1    
     3    2    3 1    
     4    3    4 1    
     5    4    5 am   
     6    5    6 2    
     7    5    7 1    
     8    7    8 1    
     9    8    9 1    
    10    9   10 am   
    11   10   11 2    
    12   10   13 1    
    13   12   22 1    
    14   13   14 1    
    15   13   15 1    
    16   15   16 1    
    17   15   17 1    
    18   15   18 1    
    19   16   49 1    
    20   19   25 ar   
    21   19   47 ar   
    22   20   21 ar   
    23   21   26 ar   
    24   21   32 1    
    25   21   46 1    
    26   22   23 2    
    27   22   28 1    
    28   24   29 1    
    29   24   41 1    
    30   24   57 1    
    31   25   31 ar   
    32   27   32 1    
    33   27   38 ar   
    34   27   43 ar   
    35   27   49 1    
    36   28   33 1    
    37   29   30 1    
    38   29   34 1    
    39   31   37 ar   
    40   33   39 1    
    41   34   35 1    
    42   34   40 1    
    43   35   36 1    
    44   36   52 ar   
    45   36   55 ar   
    46   36   58 ar   
    47   37   42 ar   
    48   37   57 1    
    49   39   44 1    
    50   40   41 1    
    51   40   45 1    
    52   42   47 ar   
    53   42   51 1    
    54   44   50 1    
    55   45   46 1    
    56   47   48 1    
    57   50   53 1    
    58   51   54 2    
    59   53   56 1    
    60   54   57 1    
    61   56   59 1    
    62   59   60 1    
    63   60   61 1    
    64   61   62 1    
    65   62   63 1    
    66   63   64 1    
@<TRIPOS>SUBSTRUCTURE
     1 NHW501      1 GROUP   
@<TRIPOS>SET

