#    Name: 5o48_2_NHW
#    Modification time : Fri May 22 19:15:09 2020

@<TRIPOS>MOLECULE
5o48_2_NHW
   64    66     1     0     0
SMALL
NO_CHARGES


@<TRIPOS>ATOM
      1 S1          6.3750   21.2870   33.5130 S.3       1 NHW501      0.0000 
      2 C2          6.4220   21.4970   31.7270 C.3       1 NHW501      0.0000 
      3 C3          4.9860   21.4920   31.1530 C.3       1 NHW501      0.0000 
      4 N4          5.0260   21.6000   29.7250 N.am      1 NHW501      0.0000 
      5 C5          5.1680   22.8280   29.1250 C.2       1 NHW501      0.0000 
      6 O5          5.3080   23.9470   29.6830 O.2       1 NHW501      0.0000 
      7 C6          5.2670   22.7520   27.6160 C.3       1 NHW501      0.0000 
      8 C7          4.7230   23.9820   26.9430 C.3       1 NHW501      0.0000 
      9 N8          3.2920   24.2290   27.2960 N.am      1 NHW501      0.0000 
     10 C9          2.3110   23.3770   26.9770 C.2       1 NHW501      0.0000 
     11 O9          2.4920   22.4140   26.2370 O.2       1 NHW501      0.0000 
     12 CP          6.8630   19.4820   33.6950 C.3       1 NHW501      0.0000 
     13 C10         0.8920   23.7970   27.5110 C.3       1 NHW501      0.0000 
     14 O10         0.9790   25.2160   27.9120 O.3       1 NHW501      0.0000 
     15 C11         0.4460   23.0050   28.7300 C.3       1 NHW501      0.0000 
     16 C12        -0.8370   23.6160   29.3060 C.3       1 NHW501      0.0000 
     17 C13         1.5770   23.0070   29.8270 C.3       1 NHW501      0.0000 
     18 C14         0.0730   21.5960   28.2530 C.3       1 NHW501      0.0000 
     19 N1A         1.3630   21.5980   35.0450 N.ar      1 NHW501      0.0000 
     20 O1A        -6.1400   25.4110   28.7070 O.co2     1 NHW501      0.0000 
     21 P1A        -5.0920   24.3950   29.0190 P.3       1 NHW501      0.0000 
     22 C1M         5.5750   18.6270   33.5330 C.2       1 NHW501      0.0000 
     23 O1M         5.3020   18.0460   32.4890 O.2       1 NHW501      0.0000 
     24 C1X        -2.9100   24.1690   34.1550 C.3       1 NHW501      0.0000 
     25 C2A         0.1830   21.4110   35.5510 C.ar      1 NHW501      0.0000 
     26 O2A        -5.1740   23.1320   28.2730 O.co2     1 NHW501      0.0000 
     27 P2A        -2.5410   25.0330   27.8950 P.3       1 NHW501      0.0000 
     28 C2M         4.6980   18.4610   34.7300 C.3       1 NHW501      0.0000 
     29 C2X        -3.3910   25.6350   34.2420 C.3       1 NHW501      0.0000 
     30 O2X        -3.0790   26.0710   35.5730 O.3       1 NHW501      0.0000 
     31 N3A        -0.8400   22.2450   35.2470 N.ar      1 NHW501      0.0000 
     32 O3A        -3.6860   25.1760   28.9040 O.3       1 NHW501      0.0000 
     33 C3M         3.2150   18.2260   34.3320 C.3       1 NHW501      0.0000 
     34 C3X        -4.9140   25.4910   33.9970 C.3       1 NHW501      0.0000 
     35 O3X        -5.5240   25.0080   35.2120 O.3       1 NHW501      0.0000 
     36 P3X        -6.3540   26.1110   36.0820 P.3       1 NHW501      0.0000 
     37 C4A        -0.6520   23.1540   34.2780 C.ar      1 NHW501      0.0000 
     38 O4A        -1.6170   26.1650   28.2370 O.co2     1 NHW501      0.0000 
     39 C4M         2.4480   18.0510   35.6580 C.3       1 NHW501      0.0000 
     40 C4X        -4.9450   24.3620   32.9330 C.3       1 NHW501      0.0000 
     41 O4X        -3.5720   23.7470   32.9780 O.3       1 NHW501      0.0000 
     42 C5A         0.6040   23.3850   33.7400 C.ar      1 NHW501      0.0000 
     43 O5A        -3.0790   24.7670   26.5230 O.co2     1 NHW501      0.0000 
     44 C5M         0.9100   17.8920   35.3490 C.3       1 NHW501      0.0000 
     45 C5X        -5.1650   25.0740   31.5320 C.3       1 NHW501      0.0000 
     46 O5X        -5.2000   24.1000   30.5160 O.3       1 NHW501      0.0000 
     47 C6A         1.6310   22.5610   34.1590 C.ar      1 NHW501      0.0000 
     48 N6A         2.9350   22.6900   33.7080 N.pl3     1 NHW501      0.0000 
     49 O6A        -1.8820   23.6480   28.2450 O.3       1 NHW501      0.0000 
     50 C6M         0.0260   17.7170   36.6780 C.3       1 NHW501      0.0000 
     51 N7A         0.4790   24.4340   32.8920 N.2       1 NHW501      0.0000 
     52 O7A        -5.2250   27.1460   36.5120 O.co2     1 NHW501      0.0000 
     53 C7M         0.2000   16.2600   37.2190 C.3       1 NHW501      0.0000 
     54 C8A        -0.7930   24.8310   32.9280 C.2       1 NHW501      0.0000 
     55 O8A        -6.7560   25.4760   37.3250 O.co2     1 NHW501      0.0000 
     56 C8M        -0.6770   16.0960   38.4930 C.3       1 NHW501      0.0000 
     57 N9A        -1.4630   24.0880   33.8030 N.pl3     1 NHW501      0.0000 
     58 O9A        -7.4670   26.7820   35.2630 O.co2     1 NHW501      0.0000 
     59 C9M        -0.5100   14.5800   38.9260 C.3       1 NHW501      0.0000 
     60 CAM        -1.3250   13.5910   38.0960 C.3       1 NHW501      0.0000 
     61 CBM        -1.1770   12.0850   38.5950 C.3       1 NHW501      0.0000 
     62 CCM        -1.8780   11.8690   39.9630 C.3       1 NHW501      0.0000 
     63 CDM        -1.8360   10.3670   40.3170 C.3       1 NHW501      0.0000 
     64 CEM        -2.3280   10.0730   41.7400 C.3       1 NHW501      0.0000 
@<TRIPOS>BOND
     1    1    2 1    
     2    1   12 1    
     3    2    3 1    
     4    3    4 1    
     5    4    5 am   
     6    5    6 2    
     7    5    7 1    
     8    7    8 1    
     9    8    9 1    
    10    9   10 am   
    11   10   11 2    
    12   10   13 1    
    13   12   22 1    
    14   13   14 1    
    15   13   15 1    
    16   15   16 1    
    17   15   17 1    
    18   15   18 1    
    19   16   49 1    
    20   19   25 ar   
    21   19   47 ar   
    22   20   21 ar   
    23   21   26 ar   
    24   21   32 1    
    25   21   46 1    
    26   22   23 2    
    27   22   28 1    
    28   24   29 1    
    29   24   41 1    
    30   24   57 1    
    31   25   31 ar   
    32   27   32 1    
    33   27   38 ar   
    34   27   43 ar   
    35   27   49 1    
    36   28   33 1    
    37   29   30 1    
    38   29   34 1    
    39   31   37 ar   
    40   33   39 1    
    41   34   35 1    
    42   34   40 1    
    43   35   36 1    
    44   36   52 ar   
    45   36   55 ar   
    46   36   58 ar   
    47   37   42 ar   
    48   37   57 1    
    49   39   44 1    
    50   40   41 1    
    51   40   45 1    
    52   42   47 ar   
    53   42   51 1    
    54   44   50 1    
    55   45   46 1    
    56   47   48 1    
    57   50   53 1    
    58   51   54 2    
    59   53   56 1    
    60   54   57 1    
    61   56   59 1    
    62   59   60 1    
    63   60   61 1    
    64   61   62 1    
    65   62   63 1    
    66   63   64 1    
@<TRIPOS>SUBSTRUCTURE
     1 NHW501      1 GROUP   
@<TRIPOS>SET

