#    Name: 5o48_3_NHW
#    Modification time : Fri May 22 19:15:18 2020

@<TRIPOS>MOLECULE
5o48_3_NHW
   64    66     1     0     0
SMALL
NO_CHARGES


@<TRIPOS>ATOM
      1 S1         11.8910  -11.4360   85.8950 S.3       1 NHW501      0.0000 
      2 C2         11.9790  -12.9770   86.8770 C.3       1 NHW501      0.0000 
      3 C3         13.3720  -13.4560   87.3420 C.3       1 NHW501      0.0000 
      4 N4         13.2650  -14.6630   88.1410 N.am      1 NHW501      0.0000 
      5 C5         13.1050  -14.6100   89.4130 C.2       1 NHW501      0.0000 
      6 O5         12.9250  -13.5160   90.0160 O.2       1 NHW501      0.0000 
      7 C6         13.0530  -15.9990   90.0570 C.3       1 NHW501      0.0000 
      8 C7         13.5320  -15.9700   91.5140 C.3       1 NHW501      0.0000 
      9 N8         14.9270  -15.5100   91.5620 N.am      1 NHW501      0.0000 
     10 C9         15.9460  -16.1230   91.0190 C.2       1 NHW501      0.0000 
     11 O9         15.8620  -17.1860   90.4550 O.2       1 NHW501      0.0000 
     12 CP         11.4080  -12.1740   84.2630 C.3       1 NHW501      0.0000 
     13 C10        17.3390  -15.3850   91.1360 C.3       1 NHW501      0.0000 
     14 O10        17.3560  -14.4410   92.2560 O.3       1 NHW501      0.0000 
     15 C11        17.7530  -14.7020   89.8080 C.3       1 NHW501      0.0000 
     16 C12        19.0200  -13.8740   89.9930 C.3       1 NHW501      0.0000 
     17 C13        16.6520  -13.8330   89.3120 C.3       1 NHW501      0.0000 
     18 C14        18.0940  -15.7920   88.7980 C.3       1 NHW501      0.0000 
     19 N1A        16.7880   -9.7520   85.5350 N.ar      1 NHW501      0.0000 
     20 O1A        24.4630  -13.6010   91.8920 O.co2     1 NHW501      0.0000 
     21 P1A        23.3840  -13.7190   90.8880 P.3       1 NHW501      0.0000 
     22 C1M        12.6990  -12.6980   83.5730 C.2       1 NHW501      0.0000 
     23 O1M        12.9640  -13.8750   83.7190 O.2       1 NHW501      0.0000 
     24 C1X        21.2880   -9.4390   88.1550 C.3       1 NHW501      0.0000 
     25 C2A        17.9580   -9.4030   85.0670 C.ar      1 NHW501      0.0000 
     26 O2A        23.3670  -14.9390   90.0690 O.co2     1 NHW501      0.0000 
     27 P2A        20.7610  -14.5440   91.9360 P.3       1 NHW501      0.0000 
     28 C2M        13.6090  -11.6670   82.8750 C.3       1 NHW501      0.0000 
     29 C2X        21.6720   -8.5740   89.3530 C.3       1 NHW501      0.0000 
     30 O2X        21.2690   -7.1620   89.0680 O.3       1 NHW501      0.0000 
     31 N3A        18.9930   -9.3510   85.8870 N.ar      1 NHW501      0.0000 
     32 O3A        21.8710  -13.4540   91.5870 O.3       1 NHW501      0.0000 
     33 C3M        15.0910  -12.0850   82.8690 C.3       1 NHW501      0.0000 
     34 C3X        23.1720   -8.8210   89.3730 C.3       1 NHW501      0.0000 
     35 O3X        23.7220   -8.0540   88.3620 O.3       1 NHW501      0.0000 
     36 P3X        24.5980   -6.7290   88.8840 P.3       1 NHW501      0.0000 
     37 C4A        18.9270   -9.6960   87.1720 C.ar      1 NHW501      0.0000 
     38 O4A        19.8050  -13.7300   92.8100 O.co2     1 NHW501      0.0000 
     39 C4M        15.8740  -11.0360   82.0730 C.3       1 NHW501      0.0000 
     40 C4X        23.3070  -10.2640   88.9810 C.3       1 NHW501      0.0000 
     41 O4X        21.9290  -10.6410   88.4050 O.3       1 NHW501      0.0000 
     42 C5A        17.6890  -10.1050   87.6630 C.ar      1 NHW501      0.0000 
     43 O5A        21.3010  -15.7910   92.4990 O.co2     1 NHW501      0.0000 
     44 C5M        17.3840  -11.4430   82.1900 C.3       1 NHW501      0.0000 
     45 C5X        23.3910  -11.1160   90.2450 C.3       1 NHW501      0.0000 
     46 O5X        23.4040  -12.5010   89.8850 O.3       1 NHW501      0.0000 
     47 C6A        16.5720  -10.1080   86.7900 C.ar      1 NHW501      0.0000 
     48 N6A        15.3510  -10.5000   87.1500 N.pl3     1 NHW501      0.0000 
     49 O6A        20.0320  -14.7550   90.4800 O.3       1 NHW501      0.0000 
     50 C6M        18.2260  -10.4390   81.3020 C.3       1 NHW501      0.0000 
     51 N7A        17.8740  -10.4220   88.9430 N.2       1 NHW501      0.0000 
     52 O7A        23.4650   -5.9500   89.6170 O.co2     1 NHW501      0.0000 
     53 C7M        18.0280  -10.6870   79.8250 C.3       1 NHW501      0.0000 
     54 C8A        19.1820  -10.1900   89.2730 C.2       1 NHW501      0.0000 
     55 O8A        25.0710   -5.9610   87.6930 O.co2     1 NHW501      0.0000 
     56 C8M        18.8610   -9.5930   79.0230 C.3       1 NHW501      0.0000 
     57 N9A        19.8450   -9.7620   88.1970 N.pl3     1 NHW501      0.0000 
     58 O9A        25.5790   -7.1670   89.9130 O.co2     1 NHW501      0.0000 
     59 C9M        18.7140   -9.8890   77.5310 C.3       1 NHW501      0.0000 
     60 CAM        19.5920  -11.1340   77.1730 C.3       1 NHW501      0.0000 
     61 CBM        19.4660  -11.4390   75.6090 C.3       1 NHW501      0.0000 
     62 CCM        20.2350  -10.3360   74.7270 C.3       1 NHW501      0.0000 
     63 CDM        20.1300  -10.6980   73.2130 C.3       1 NHW501      0.0000 
     64 CEM        20.7050   -9.5640   72.2890 C.3       1 NHW501      0.0000 
@<TRIPOS>BOND
     1    1    2 1    
     2    1   12 1    
     3    2    3 1    
     4    3    4 1    
     5    4    5 am   
     6    5    6 2    
     7    5    7 1    
     8    7    8 1    
     9    8    9 1    
    10    9   10 am   
    11   10   11 2    
    12   10   13 1    
    13   12   22 1    
    14   13   14 1    
    15   13   15 1    
    16   15   16 1    
    17   15   17 1    
    18   15   18 1    
    19   16   49 1    
    20   19   25 ar   
    21   19   47 ar   
    22   20   21 ar   
    23   21   26 ar   
    24   21   32 1    
    25   21   46 1    
    26   22   23 2    
    27   22   28 1    
    28   24   29 1    
    29   24   41 1    
    30   24   57 1    
    31   25   31 ar   
    32   27   32 1    
    33   27   38 ar   
    34   27   43 ar   
    35   27   49 1    
    36   28   33 1    
    37   29   30 1    
    38   29   34 1    
    39   31   37 ar   
    40   33   39 1    
    41   34   35 1    
    42   34   40 1    
    43   35   36 1    
    44   36   52 ar   
    45   36   55 ar   
    46   36   58 ar   
    47   37   42 ar   
    48   37   57 1    
    49   39   44 1    
    50   40   41 1    
    51   40   45 1    
    52   42   47 ar   
    53   42   51 1    
    54   44   50 1    
    55   45   46 1    
    56   47   48 1    
    57   50   53 1    
    58   51   54 2    
    59   53   56 1    
    60   54   57 1    
    61   56   59 1    
    62   59   60 1    
    63   60   61 1    
    64   61   62 1    
    65   62   63 1    
    66   63   64 1    
@<TRIPOS>SUBSTRUCTURE
     1 NHW501      1 GROUP   
@<TRIPOS>SET

