#    Name: 6nqh_1_X1P
#    Modification time : Fri May 22 19:25:31 2020

@<TRIPOS>MOLECULE
6nqh_1_X1P
   14    14     1     0     0
SMALL
NO_CHARGES


@<TRIPOS>ATOM
      1 C1         25.7500   51.1870   15.7150 C.3       1 X1P502      0.0000 
      2 O1         26.0200   51.5530   14.4270 O.3       1 X1P502      0.0000 
      3 P          24.8500   51.7080   13.2630 P.3       1 X1P502      0.0000 
      4 O1P        23.8850   52.8090   13.6650 O.co2     1 X1P502      0.0000 
      5 O2P        24.1120   50.4120   13.0430 O.co2     1 X1P502      0.0000 
      6 O3P        25.5350   52.1360   11.9850 O.co2     1 X1P502      0.0000 
      7 C2         25.7500   52.3980   16.6510 C.3       1 X1P502      0.0000 
      8 O2         24.7400   53.3410   16.2650 O.3       1 X1P502      0.0000 
      9 C3         27.0750   53.0760   16.6350 C.3       1 X1P502      0.0000 
     10 O3         27.0130   54.3180   17.3910 O.3       1 X1P502      0.0000 
     11 C4         28.1050   52.1660   17.2130 C.3       1 X1P502      0.0000 
     12 O4         29.3810   52.8220   17.1670 O.3       1 X1P502      0.0000 
     13 C5         28.1460   50.8370   16.4330 C.3       1 X1P502      0.0000 
     14 O5         26.8180   50.2250   16.1420 O.3       1 X1P502      0.0000 
@<TRIPOS>BOND
     1    1    2 1    
     2    1    7 1    
     3    1   14 1    
     4    2    3 1    
     5    3    4 ar   
     6    3    5 ar   
     7    3    6 ar   
     8    7    8 1    
     9    7    9 1    
    10    9   10 1    
    11    9   11 1    
    12   11   12 1    
    13   11   13 1    
    14   13   14 1    
@<TRIPOS>SUBSTRUCTURE
     1 X1P502      1 GROUP   
@<TRIPOS>SET

