#    Name: 6nqh_2_X1P_CAVITY_N1_4
#    Modification time : Fri May 22 19:25:38 2020

@<TRIPOS>MOLECULE
6nqh_2_X1P_CAVITY_N1_4
   57     0     6     0     0
SMALL
NO_CHARGES


@<TRIPOS>ATOM
      1 OG         23.6000   46.4500   15.5300 O.3       1 SER1        0.0000 
      2 OG         25.4700   47.4300   15.3200 O.3       1 SER1        0.0000 
      3 OG         24.4100   47.3900   16.3800 O.3       1 SER1        0.0000 
      4 OG         23.7200   48.5600   15.7500 O.3       1 SER1        0.0000 
      5 OG         25.5900   49.5400   15.5300 O.3       1 SER1        0.0000 
      6 OG         26.6000   45.9800   18.5000 O.3       1 SER1        0.0000 
      7 OG         26.7200   48.0800   18.7100 O.3       1 SER1        0.0000 
      8 OG         26.0300   49.2500   18.0800 O.3       1 SER1        0.0000 
      9 OG         29.6500   49.1100   17.4300 O.3       1 SER1        0.0000 
     10 OG         28.5900   49.0700   18.5000 O.3       1 SER1        0.0000 
     11 OG         27.9000   50.2400   17.8600 O.3       1 SER1        0.0000 
     12 OG         27.2100   51.4100   17.2300 O.3       1 SER1        0.0000 
     13 OG         26.8400   50.1900   18.9300 O.3       1 SER1        0.0000 
     14 OG         26.1500   51.3600   18.2900 O.3       1 SER1        0.0000 
     15 OG         25.7900   50.1400   19.9900 O.3       1 SER1        0.0000 
     16 OG         29.7700   51.2200   17.6500 O.3       1 SER1        0.0000 
     17 OD1        27.9100   45.1400   15.5200 O.co2     2 ASP3        0.0000 
     18 OD1        26.8500   45.0900   16.5800 O.co2     2 ASP3        0.0000 
     19 OD1        28.7200   46.0700   16.3700 O.co2     2 ASP3        0.0000 
     20 OD1        27.6600   46.0200   17.4300 O.co2     2 ASP3        0.0000 
     21 OD1        29.1600   45.7900   18.9100 O.co2     2 ASP3        0.0000 
     22 OD1        28.4700   46.9600   18.2800 O.co2     2 ASP3        0.0000 
     23 OD1        25.6700   48.0300   19.7700 O.co2     2 ASP3        0.0000 
     24 OD1        24.9800   49.2100   19.1400 O.co2     2 ASP3        0.0000 
     25 NZ         22.5500   46.4000   16.6000 N.4       3 LYS4        0.0000 
     26 CZ         24.2900   45.2800   16.1700 C.ar      4 PHE5        0.0000 
     27 CZ         25.1000   46.2100   17.0100 C.ar      4 PHE5        0.0000 
     28 CZ         24.0500   46.1700   18.0800 C.ar      4 PHE5        0.0000 
     29 CZ         22.9900   46.1200   19.1400 C.ar      4 PHE5        0.0000 
     30 CZ         30.7100   49.1600   16.3700 C.ar      4 PHE5        0.0000 
     31 CZ         29.2800   47.8900   19.1300 C.ar      4 PHE5        0.0000 
     32 CZ         30.4600   50.0500   18.2800 C.ar      4 PHE5        0.0000 
     33 CZ         28.0200   52.3400   18.0800 C.ar      4 PHE5        0.0000 
     34 CA         27.2200   46.3100   14.8900 C.3       5 GLY6        0.0000 
     35 CA         26.1600   46.2600   15.9500 C.3       5 GLY6        0.0000 
     36 CA         28.0300   47.2400   15.7400 C.3       5 GLY6        0.0000 
     37 CA         27.3400   48.4200   15.1000 C.3       5 GLY6        0.0000 
     38 CA         26.2800   48.3700   16.1700 C.3       5 GLY6        0.0000 
     39 CA         28.1500   49.3500   15.9500 C.3       5 GLY6        0.0000 
     40 CA         23.6000   51.5500   17.8800 C.3       5 GLY6        0.0000 
     41 CA         25.4700   52.5300   17.6600 C.3       5 GLY6        0.0000 
     42 CA         25.1000   51.3100   19.3600 C.3       5 GLY6        0.0000 
     43 DU         26.9700   47.2000   16.8000 H         6 CUB7        0.0000 
     44 DU         25.9100   47.1500   17.8600 H         6 CUB7        0.0000 
     45 DU         25.2200   48.3200   17.2300 H         6 CUB7        0.0000 
     46 DU         24.5300   49.4900   16.6000 H         6 CUB7        0.0000 
     47 DU         24.8600   47.1000   18.9300 H         6 CUB7        0.0000 
     48 DU         24.1700   48.2700   18.2900 H         6 CUB7        0.0000 
     49 DU         28.8400   48.1800   16.5900 H         6 CUB7        0.0000 
     50 DU         27.7800   48.1300   17.6500 H         6 CUB7        0.0000 
     51 DU         27.0900   49.3000   17.0200 H         6 CUB7        0.0000 
     52 DU         26.4000   50.4800   16.3800 H         6 CUB7        0.0000 
     53 DU         27.4100   46.9100   19.3400 H         6 CUB7        0.0000 
     54 DU         25.3400   50.4300   17.4500 H         6 CUB7        0.0000 
     55 DU         24.6500   51.6000   16.8100 H         6 CUB7        0.0000 
     56 DU         24.2900   50.3800   18.5100 H         6 CUB7        0.0000 
     57 DU         28.9600   50.2900   16.8000 H         6 CUB7        0.0000 
@<TRIPOS>BOND
@<TRIPOS>SUBSTRUCTURE
     1 SER1        1 GROUP   
     2 ASP3       17 GROUP   
     3 LYS4       25 GROUP   
     4 PHE5       26 GROUP   
     5 GLY6       34 GROUP   
     6 CUB7       43 GROUP   
@<TRIPOS>SET

