#    Name: 6nqh_1_X1P_CAVITY_N1_8
#    Modification time : Fri May 22 19:25:32 2020

@<TRIPOS>MOLECULE
6nqh_1_X1P_CAVITY_N1_8
   82     0     7     0     0
SMALL
NO_CHARGES


@<TRIPOS>ATOM
      1 OG         23.6000   46.4500   15.5300 O.3       1 SER1        0.0000 
      2 OG         25.4700   47.4300   15.3200 O.3       1 SER1        0.0000 
      3 OG         24.4100   47.3900   16.3800 O.3       1 SER1        0.0000 
      4 OG         23.7200   48.5600   15.7500 O.3       1 SER1        0.0000 
      5 OG         25.9600   50.7600   13.8400 O.3       1 SER1        0.0000 
      6 OG         25.5900   49.5400   15.5300 O.3       1 SER1        0.0000 
      7 OG         24.9000   50.7100   14.9000 O.3       1 SER1        0.0000 
      8 OG         26.6000   45.9800   18.5000 O.3       1 SER1        0.0000 
      9 OG         26.7200   48.0800   18.7100 O.3       1 SER1        0.0000 
     10 OG         26.0300   49.2500   18.0800 O.3       1 SER1        0.0000 
     11 OG         29.6500   49.1100   17.4300 O.3       1 SER1        0.0000 
     12 OG         28.5900   49.0700   18.5000 O.3       1 SER1        0.0000 
     13 OG         27.9000   50.2400   17.8600 O.3       1 SER1        0.0000 
     14 OG         27.2100   51.4100   17.2300 O.3       1 SER1        0.0000 
     15 OG         26.5200   52.5800   16.6000 O.3       1 SER1        0.0000 
     16 OG         26.8400   50.1900   18.9300 O.3       1 SER1        0.0000 
     17 OG         26.1500   51.3600   18.2900 O.3       1 SER1        0.0000 
     18 OG         25.7900   50.1400   19.9900 O.3       1 SER1        0.0000 
     19 OG         29.7700   51.2200   17.6500 O.3       1 SER1        0.0000 
     20 OG         27.3300   53.5200   17.4500 O.3       1 SER1        0.0000 
     21 O          30.8300   51.2700   16.5900 O.2       2 ALA2        0.0000 
     22 OD1        27.9100   45.1400   15.5200 O.co2     3 ASP3        0.0000 
     23 OD1        26.8500   45.0900   16.5800 O.co2     3 ASP3        0.0000 
     24 OD1        28.7200   46.0700   16.3700 O.co2     3 ASP3        0.0000 
     25 OD1        25.2700   51.9300   13.2100 O.co2     3 ASP3        0.0000 
     26 OD1        27.6600   46.0200   17.4300 O.co2     3 ASP3        0.0000 
     27 OD1        24.2100   51.8900   14.2700 O.co2     3 ASP3        0.0000 
     28 OD1        23.8400   50.6600   15.9600 O.co2     3 ASP3        0.0000 
     29 OD1        23.1600   51.8400   15.3300 O.co2     3 ASP3        0.0000 
     30 OD1        29.1600   45.7900   18.9100 O.co2     3 ASP3        0.0000 
     31 OD1        28.4700   46.9600   18.2800 O.co2     3 ASP3        0.0000 
     32 OD1        25.0200   52.8200   15.1200 O.co2     3 ASP3        0.0000 
     33 OD1        23.9700   52.7700   16.1800 O.co2     3 ASP3        0.0000 
     34 OD1        25.6700   48.0300   19.7700 O.co2     3 ASP3        0.0000 
     35 OD1        24.9800   49.2100   19.1400 O.co2     3 ASP3        0.0000 
     36 OD1        25.8300   53.7500   15.9700 O.co2     3 ASP3        0.0000 
     37 NZ         22.5500   46.4000   16.6000 N.4       4 LYS4        0.0000 
     38 NZ         30.5800   47.0500   16.1600 N.4       4 LYS4        0.0000 
     39 NZ         29.0800   52.3900   17.0200 N.4       4 LYS4        0.0000 
     40 NZ         28.3900   53.5600   16.3800 N.4       4 LYS4        0.0000 
     41 CZ         25.1000   46.2100   17.0100 C.ar      5 PHE5        0.0000 
     42 CZ         24.0500   46.1700   18.0800 C.ar      5 PHE5        0.0000 
     43 CZ         22.9900   46.1200   19.1400 C.ar      5 PHE5        0.0000 
     44 CZ         29.9000   48.2300   15.5200 C.ar      5 PHE5        0.0000 
     45 CZ         27.4600   50.5200   15.3200 C.ar      5 PHE5        0.0000 
     46 CZ         30.7100   49.1600   16.3700 C.ar      5 PHE5        0.0000 
     47 CZ         30.0200   50.3300   15.7400 C.ar      5 PHE5        0.0000 
     48 CZ         29.3300   51.5100   15.1100 C.ar      5 PHE5        0.0000 
     49 CZ         29.2800   47.8900   19.1300 C.ar      5 PHE5        0.0000 
     50 CZ         31.5200   50.1000   17.2200 C.ar      5 PHE5        0.0000 
     51 CZ         30.4600   50.0500   18.2800 C.ar      5 PHE5        0.0000 
     52 CZ         28.0200   52.3400   18.0800 C.ar      5 PHE5        0.0000 
     53 CA         27.2200   46.3100   14.8900 C.3       6 GLY6        0.0000 
     54 CA         26.1600   46.2600   15.9500 C.3       6 GLY6        0.0000 
     55 CA         29.0900   47.2900   14.6700 C.3       6 GLY6        0.0000 
     56 CA         28.0300   47.2400   15.7400 C.3       6 GLY6        0.0000 
     57 CA         27.3400   48.4200   15.1000 C.3       6 GLY6        0.0000 
     58 CA         26.6500   49.5900   14.4700 C.3       6 GLY6        0.0000 
     59 CA         26.2800   48.3700   16.1700 C.3       6 GLY6        0.0000 
     60 CA         28.1500   49.3500   15.9500 C.3       6 GLY6        0.0000 
     61 CA         23.6000   51.5500   17.8800 C.3       6 GLY6        0.0000 
     62 CA         27.5800   52.6300   15.5400 C.3       6 GLY6        0.0000 
     63 CA         25.4700   52.5300   17.6600 C.3       6 GLY6        0.0000 
     64 CA         25.1000   51.3100   19.3600 C.3       6 GLY6        0.0000 
     65 DU         26.9700   47.2000   16.8000 H         7 CUB7        0.0000 
     66 DU         25.9100   47.1500   17.8600 H         7 CUB7        0.0000 
     67 DU         25.2200   48.3200   17.2300 H         7 CUB7        0.0000 
     68 DU         24.5300   49.4900   16.6000 H         7 CUB7        0.0000 
     69 DU         24.8600   47.1000   18.9300 H         7 CUB7        0.0000 
     70 DU         24.1700   48.2700   18.2900 H         7 CUB7        0.0000 
     71 DU         28.8400   48.1800   16.5900 H         7 CUB7        0.0000 
     72 DU         26.7700   51.7000   14.6900 H         7 CUB7        0.0000 
     73 DU         27.7800   48.1300   17.6500 H         7 CUB7        0.0000 
     74 DU         27.0900   49.3000   17.0200 H         7 CUB7        0.0000 
     75 DU         26.4000   50.4800   16.3800 H         7 CUB7        0.0000 
     76 DU         25.7100   51.6500   15.7500 H         7 CUB7        0.0000 
     77 DU         27.4100   46.9100   19.3400 H         7 CUB7        0.0000 
     78 DU         25.3400   50.4300   17.4500 H         7 CUB7        0.0000 
     79 DU         24.6500   51.6000   16.8100 H         7 CUB7        0.0000 
     80 DU         24.2900   50.3800   18.5100 H         7 CUB7        0.0000 
     81 DU         28.9600   50.2900   16.8000 H         7 CUB7        0.0000 
     82 DU         28.2700   51.4600   16.1700 H         7 CUB7        0.0000 
@<TRIPOS>BOND
@<TRIPOS>SUBSTRUCTURE
     1 SER1        1 GROUP   
     2 ALA2       21 GROUP   
     3 ASP3       22 GROUP   
     4 LYS4       37 GROUP   
     5 PHE5       41 GROUP   
     6 GLY6       53 GROUP   
     7 CUB7       65 GROUP   
@<TRIPOS>SET

