#    Name: 6nqh_2_X1P
#    Modification time : Fri May 22 19:25:37 2020

@<TRIPOS>MOLECULE
6nqh_2_X1P
   14    14     1     0     0
SMALL
NO_CHARGES


@<TRIPOS>ATOM
      1 C1         27.4450   46.0930   18.8540 C.3       1 X1P503      0.0000 
      2 O1         27.2880   45.6230   20.1230 O.3       1 X1P503      0.0000 
      3 P          27.9060   44.1390   20.4950 P.3       1 X1P503      0.0000 
      4 O1P        26.9150   43.0690   20.0800 O.co2     1 X1P503      0.0000 
      5 O2P        28.1740   44.0230   22.0000 O.co2     1 X1P503      0.0000 
      6 O3P        29.1970   43.9870   19.7260 O.co2     1 X1P503      0.0000 
      7 C2         27.5600   47.6080   18.8930 C.3       1 X1P503      0.0000 
      8 O2         28.7520   47.9800   19.6030 O.3       1 X1P503      0.0000 
      9 C3         26.3520   48.1970   19.5410 C.3       1 X1P503      0.0000 
     10 O3         26.4590   49.6420   19.4890 O.3       1 X1P503      0.0000 
     11 C4         25.0990   47.7750   18.8300 C.3       1 X1P503      0.0000 
     12 O4         23.9380   48.2480   19.5180 O.3       1 X1P503      0.0000 
     13 C5         25.0140   46.2450   18.6990 C.3       1 X1P503      0.0000 
     14 O5         26.2370   45.7250   18.0540 O.3       1 X1P503      0.0000 
@<TRIPOS>BOND
     1    1    2 1    
     2    1    7 1    
     3    1   14 1    
     4    2    3 1    
     5    3    4 ar   
     6    3    5 ar   
     7    3    6 ar   
     8    7    8 1    
     9    7    9 1    
    10    9   10 1    
    11    9   11 1    
    12   11   12 1    
    13   11   13 1    
    14   13   14 1    
@<TRIPOS>SUBSTRUCTURE
     1 X1P503      1 GROUP   
@<TRIPOS>SET

