#    Name: 6hbu_1_ATP
#    Modification time : Fri May 22 19:23:41 2020

@<TRIPOS>MOLECULE
6hbu_1_ATP
   31    33     1     0     1
SMALL
NO_CHARGES


@<TRIPOS>ATOM
      1 PG        109.6200   96.2370  134.6160 P.3       1 ATP1501     0.0000 
      2 O1G       108.7110   96.2590  133.4200 O.co2     1 ATP1501     0.0000 
      3 O2G       110.5410   97.4100  134.7340 O.co2     1 ATP1501     0.0000 
      4 O3G       108.9550   95.8530  135.9040 O.co2     1 ATP1501     0.0000 
      5 PB        110.1420   93.5080  134.3420 P.3       1 ATP1501     0.0000 
      6 O1B       108.8150   93.3900  133.6670 O.co2     1 ATP1501     0.0000 
      7 O2B       110.3340   93.0010  135.7360 O.co2     1 ATP1501     0.0000 
      8 O3B       110.6220   95.0320  134.3040 O.3       1 ATP1501     0.0000 
      9 PA        110.9020   92.0250  132.0760 P.3       1 ATP1501     0.0000 
     10 O1A       110.2540   92.9310  131.0790 O.co2     1 ATP1501     0.0000 
     11 O2A       110.2230   90.7400  132.3920 O.co2     1 ATP1501     0.0000 
     12 O3A       111.2480   92.8300  133.4130 O.3       1 ATP1501     0.0000 
     13 O5'       112.3690   91.7030  131.5460 O.3       1 ATP1501     0.0000 
     14 C5'       113.3590   91.1740  132.4150 C.3       1 ATP1501     0.0000 
     15 C4'       114.7160   91.4860  131.8110 C.3       1 ATP1501     0.0000 
     16 O4'       114.9310   90.6290  130.7070 O.3       1 ATP1501     0.0000 
     17 C3'       114.7890   92.8990  131.2770 C.3       1 ATP1501     0.0000 
     18 O3'       115.9560   93.5120  131.8170 O.3       1 ATP1501     0.0000 
     19 C2'       114.9590   92.7940  129.7830 C.3       1 ATP1501     0.0000 
     20 O2'       116.0410   93.6280  129.3790 O.3       1 ATP1501     0.0000 
     21 C1'       115.3020   91.3430  129.5380 C.3       1 ATP1501     0.0000 
     22 N9        114.5260   90.7820  128.4130 N.pl3     1 ATP1501     0.0000 
     23 C8        113.3840   90.0930  128.5320 C.2       1 ATP1501     0.0000 
     24 N7        112.9190   89.7010  127.3280 N.2       1 ATP1501     0.0000 
     25 C5        113.7880   90.1460  126.4110 C.ar      1 ATP1501     0.0000 
     26 C6        113.9000   90.0820  124.9440 C.ar      1 ATP1501     0.0000 
     27 N6        112.9680   89.4440  124.2010 N.pl3     1 ATP1501     0.0000 
     28 N1        114.9660   90.6700  124.3730 N.ar      1 ATP1501     0.0000 
     29 C2        115.9020   91.3030  125.0990 C.ar      1 ATP1501     0.0000 
     30 N3        115.8630   91.4020  126.4330 N.ar      1 ATP1501     0.0000 
     31 C4        114.8480   90.8510  127.1300 C.ar      1 ATP1501     0.0000 
@<TRIPOS>BOND
     1    1    2 ar   
     2    1    3 ar   
     3    1    4 ar   
     4    1    8 1    
     5    5    6 ar   
     6    5    7 ar   
     7    5    8 1    
     8    5   12 1    
     9    9   10 ar   
    10    9   11 ar   
    11    9   12 1    
    12    9   13 1    
    13   13   14 1    
    14   14   15 1    
    15   15   16 1    
    16   15   17 1    
    17   16   21 1    
    18   17   18 1    
    19   17   19 1    
    20   19   20 1    
    21   19   21 1    
    22   21   22 1    
    23   22   23 1    
    24   22   31 1    
    25   23   24 2    
    26   24   25 1    
    27   25   26 ar   
    28   25   31 ar   
    29   26   27 1    
    30   26   28 ar   
    31   28   29 ar   
    32   29   30 ar   
    33   30   31 ar   
@<TRIPOS>SUBSTRUCTURE
     1 ATP1501     1 GROUP   
@<TRIPOS>SET
ATOM$ORANGE STATIC     ATOMS   COLORGROUP SYSTEM 
20 14 14 15 15 17 17 19 19 21 21 23 23 25 25 26 26 29 \
29 31 31 

