#    Name: 6hbu_2_ATP
#    Modification time : Fri May 22 19:23:53 2020

@<TRIPOS>MOLECULE
6hbu_2_ATP
   31    33     1     0     1
SMALL
NO_CHARGES


@<TRIPOS>ATOM
      1 PG         97.8010  111.1760  134.6920 P.3       1 ATP1501     0.0000 
      2 O1G        98.7090  111.1530  133.4960 O.co2     1 ATP1501     0.0000 
      3 O2G        96.8810  110.0020  134.8140 O.co2     1 ATP1501     0.0000 
      4 O3G        98.4680  111.5630  135.9790 O.co2     1 ATP1501     0.0000 
      5 PB         97.2770  113.9040  134.4150 P.3       1 ATP1501     0.0000 
      6 O1B        98.6030  114.0210  133.7370 O.co2     1 ATP1501     0.0000 
      7 O2B        97.0860  114.4140  135.8070 O.co2     1 ATP1501     0.0000 
      8 O3B        96.7980  112.3800  134.3790 O.3       1 ATP1501     0.0000 
      9 PA         96.5140  115.3830  132.1470 P.3       1 ATP1501     0.0000 
     10 O1A        97.1610  114.4750  131.1500 O.co2     1 ATP1501     0.0000 
     11 O2A        97.1920  116.6680  132.4590 O.co2     1 ATP1501     0.0000 
     12 O3A        96.1690  114.5800  133.4860 O.3       1 ATP1501     0.0000 
     13 O5'        95.0460  115.7020  131.6170 O.3       1 ATP1501     0.0000 
     14 C5'        94.0560  116.2320  132.4860 C.3       1 ATP1501     0.0000 
     15 C4'        92.6990  115.9180  131.8840 C.3       1 ATP1501     0.0000 
     16 O4'        92.4820  116.7740  130.7790 O.3       1 ATP1501     0.0000 
     17 C3'        92.6270  114.5050  131.3530 C.3       1 ATP1501     0.0000 
     18 O3'        91.4610  113.8910  131.8950 O.3       1 ATP1501     0.0000 
     19 C2'        92.4550  114.6070  129.8590 C.3       1 ATP1501     0.0000 
     20 O2'        91.3720  113.7710  129.4570 O.3       1 ATP1501     0.0000 
     21 C1'        92.1100  116.0570  129.6120 C.3       1 ATP1501     0.0000 
     22 N9         92.8840  116.6160  128.4850 N.pl3     1 ATP1501     0.0000 
     23 C8         94.0260  117.3060  128.6010 C.2       1 ATP1501     0.0000 
     24 N7         94.4890  117.6960  127.3970 N.2       1 ATP1501     0.0000 
     25 C5         93.6200  117.2490  126.4810 C.ar      1 ATP1501     0.0000 
     26 C6         93.5060  117.3110  125.0140 C.ar      1 ATP1501     0.0000 
     27 N6         94.4370  117.9480  124.2690 N.pl3     1 ATP1501     0.0000 
     28 N1         92.4400  116.7200  124.4460 N.ar      1 ATP1501     0.0000 
     29 C2         91.5050  116.0890  125.1740 C.ar      1 ATP1501     0.0000 
     30 N3         91.5460  115.9920  126.5070 N.ar      1 ATP1501     0.0000 
     31 C4         92.5610  116.5450  127.2030 C.ar      1 ATP1501     0.0000 
@<TRIPOS>BOND
     1    1    2 ar   
     2    1    3 ar   
     3    1    4 ar   
     4    1    8 1    
     5    5    6 ar   
     6    5    7 ar   
     7    5    8 1    
     8    5   12 1    
     9    9   10 ar   
    10    9   11 ar   
    11    9   12 1    
    12    9   13 1    
    13   13   14 1    
    14   14   15 1    
    15   15   16 1    
    16   15   17 1    
    17   16   21 1    
    18   17   18 1    
    19   17   19 1    
    20   19   20 1    
    21   19   21 1    
    22   21   22 1    
    23   22   23 1    
    24   22   31 1    
    25   23   24 2    
    26   24   25 1    
    27   25   26 ar   
    28   25   31 ar   
    29   26   27 1    
    30   26   28 ar   
    31   28   29 ar   
    32   29   30 ar   
    33   30   31 ar   
@<TRIPOS>SUBSTRUCTURE
     1 ATP1501     1 GROUP   
@<TRIPOS>SET
ATOM$ORANGE STATIC     ATOMS   COLORGROUP SYSTEM 
20 14 14 15 15 17 17 19 19 21 21 23 23 25 25 26 26 29 \
29 31 31 

