#    Name: 6dds_4_NDP
#    Modification time : Fri May 22 19:25:45 2020

@<TRIPOS>MOLECULE
6dds_4_NDP
   48    52     1     0     1
SMALL
NO_CHARGES


@<TRIPOS>ATOM
      1 PA         53.1440   28.8490   -9.0430 P.3       1 NDP201      0.0000 
      2 O1A        52.0060   28.4610   -8.1820 O.co2     1 NDP201      0.0000 
      3 O2A        52.9630   29.8000  -10.2030 O.co2     1 NDP201      0.0000 
      4 O5B        54.3190   29.4620   -8.1000 O.3       1 NDP201      0.0000 
      5 C5B        54.7400   28.4640   -7.1640 C.3       1 NDP201      0.0000 
      6 C4B        55.7600   29.1850   -6.2510 C.3       1 NDP201      0.0000 
      7 O4B        55.0370   30.0090   -5.3490 O.3       1 NDP201      0.0000 
      8 C3B        56.6540   28.2400   -5.3920 C.3       1 NDP201      0.0000 
      9 O3B        57.7490   27.8050   -6.1260 O.3       1 NDP201      0.0000 
     10 C2B        57.1120   29.2910   -4.3320 C.3       1 NDP201      0.0000 
     11 O2B        57.9060   30.2340   -4.8300 O.3       1 NDP201      0.0000 
     12 C1B        55.7520   30.0300   -4.1170 C.3       1 NDP201      0.0000 
     13 N9A        54.9160   29.4390   -3.1140 N.pl3     1 NDP201      0.0000 
     14 C8A        54.0430   28.3300   -3.2280 C.2       1 NDP201      0.0000 
     15 N7A        53.4060   28.0510   -2.0780 N.2       1 NDP201      0.0000 
     16 C5A        53.8980   29.0380   -1.1820 C.ar      1 NDP201      0.0000 
     17 C6A        53.6370   29.3120    0.1760 C.ar      1 NDP201      0.0000 
     18 N6A        52.7470   28.5550    0.9090 N.pl3     1 NDP201      0.0000 
     19 N1A        54.2590   30.3470    0.8180 N.ar      1 NDP201      0.0000 
     20 C2A        55.1370   31.0780    0.0500 C.ar      1 NDP201      0.0000 
     21 N3A        55.4910   30.9440   -1.2310 N.ar      1 NDP201      0.0000 
     22 C4A        54.8360   29.8970   -1.8380 C.ar      1 NDP201      0.0000 
     23 O3         53.9390   27.4870   -9.6740 O.3       1 NDP201      0.0000 
     24 PN         53.0870   26.3600  -10.4650 P.3       1 NDP201      0.0000 
     25 O1N        54.1060   25.5400  -11.1540 O.co2     1 NDP201      0.0000 
     26 O2N        52.0220   25.6740   -9.6450 O.co2     1 NDP201      0.0000 
     27 O5D        52.1680   27.0690  -11.7580 O.3       1 NDP201      0.0000 
     28 C5D        53.0240   27.4550  -12.7710 C.3       1 NDP201      0.0000 
     29 C4D        52.3330   27.0810  -14.0690 C.3       1 NDP201      0.0000 
     30 O4D        51.0010   27.6350  -14.0600 O.3       1 NDP201      0.0000 
     31 C3D        53.0800   27.6840  -15.3030 C.3       1 NDP201      0.0000 
     32 O3D        53.1470   26.6610  -16.2720 O.3       1 NDP201      0.0000 
     33 C2D        52.1330   28.7850  -15.7420 C.3       1 NDP201      0.0000 
     34 O2D        52.1450   28.9730  -17.1200 O.3       1 NDP201      0.0000 
     35 C1D        50.7660   28.1500  -15.3520 C.3       1 NDP201      0.0000 
     36 N1N        49.7050   29.1810  -15.2560 N.pl3     1 NDP201      0.0000 
     37 C2N        48.5100   29.0230  -15.9400 C.2       1 NDP201      0.0000 
     38 C3N        47.4650   29.8600  -15.7050 C.2       1 NDP201      0.0000 
     39 C7N        46.2220   29.6570  -16.4370 C.2       1 NDP201      0.0000 
     40 O7N        45.1900   30.2700  -16.1610 O.2       1 NDP201      0.0000 
     41 N7N        46.1950   28.7310  -17.4580 N.am      1 NDP201      0.0000 
     42 C4N        47.5270   30.9540  -14.6990 C.3       1 NDP201      0.0000 
     43 C5N        48.8850   31.1360  -14.1700 C.2       1 NDP201      0.0000 
     44 C6N        49.8920   30.2930  -14.4470 C.2       1 NDP201      0.0000 
     45 P2B        59.6710   30.0570   -4.4730 P.3       1 NDP201      0.0000 
     46 O1X        59.9400   28.8720   -5.3540 O.co2     1 NDP201      0.0000 
     47 O2X        60.2270   31.4060   -4.9400 O.co2     1 NDP201      0.0000 
     48 O3X        59.5830   29.8110   -2.9940 O.co2     1 NDP201      0.0000 
@<TRIPOS>BOND
     1    1    2 ar   
     2    1    3 ar   
     3    1    4 1    
     4    1   23 1    
     5    4    5 1    
     6    5    6 1    
     7    6    7 1    
     8    6    8 1    
     9    7   12 1    
    10    8    9 1    
    11    8   10 1    
    12   10   11 1    
    13   10   12 1    
    14   11   45 1    
    15   12   13 1    
    16   13   14 1    
    17   13   22 1    
    18   14   15 2    
    19   15   16 1    
    20   16   17 ar   
    21   16   22 ar   
    22   17   18 1    
    23   17   19 ar   
    24   19   20 ar   
    25   20   21 ar   
    26   21   22 ar   
    27   23   24 1    
    28   24   25 ar   
    29   24   26 ar   
    30   24   27 1    
    31   27   28 1    
    32   28   29 1    
    33   29   30 1    
    34   29   31 1    
    35   30   35 1    
    36   31   32 1    
    37   31   33 1    
    38   33   34 1    
    39   33   35 1    
    40   35   36 1    
    41   36   37 1    
    42   36   44 1    
    43   37   38 2    
    44   38   39 1    
    45   38   42 1    
    46   39   40 2    
    47   39   41 am   
    48   42   43 1    
    49   43   44 2    
    50   45   46 ar   
    51   45   47 ar   
    52   45   48 ar   
@<TRIPOS>SUBSTRUCTURE
     1 NDP201      1 GROUP   
@<TRIPOS>SET
ATOM$ORANGE STATIC     ATOMS   COLORGROUP SYSTEM 
42 5 5 6 6 8 8 10 10 12 12 14 14 16 16 17 17 20 \
20 22 22 28 28 29 29 31 31 33 33 35 35 37 37 38 38 39 \
39 42 42 43 43 44 44 

