#    Name: 6day_4_PAB_CAVITY_N1_4
#    Modification time : Fri May 22 19:28:24 2020

@<TRIPOS>MOLECULE
6day_4_PAB_CAVITY_N1_4
   49     0     6     0     0
SMALL
NO_CHARGES


@<TRIPOS>ATOM
      1 OG         37.7800    8.4800   26.3700 O.3       1 SER1        0.0000 
      2 OG         37.2700    7.2700   27.0900 O.3       1 SER1        0.0000 
      3 OG         36.3300    8.1300   27.8900 O.3       1 SER1        0.0000 
      4 OG         38.8400    8.6600   27.4200 O.3       1 SER1        0.0000 
      5 OG         39.2600    6.5800   27.3500 O.3       1 SER1        0.0000 
      6 N          34.1500   12.2600   20.8000 N.am      2 ALA2        0.0000 
      7 N          35.2000   12.4400   21.8500 N.am      2 ALA2        0.0000 
      8 N          37.2000   11.7500   22.1100 N.am      2 ALA2        0.0000 
      9 N          38.2500   11.9300   23.1600 N.am      2 ALA2        0.0000 
     10 OD1        34.0600    8.9700   21.4600 O.co2     3 ASP3        0.0000 
     11 OD1        34.6900   11.2300   22.5700 O.co2     3 ASP3        0.0000 
     12 OD1        34.1800   10.0200   23.3000 O.co2     3 ASP3        0.0000 
     13 OD1        33.2500   10.8800   24.0900 O.co2     3 ASP3        0.0000 
     14 OD1        33.6700    8.8100   24.0200 O.co2     3 ASP3        0.0000 
     15 OD1        35.7500   11.4100   23.6200 O.co2     3 ASP3        0.0000 
     16 OD1        37.1100    8.4600   22.7600 O.co2     3 ASP3        0.0000 
     17 OD1        36.1700    9.3300   23.5500 O.co2     3 ASP3        0.0000 
     18 OD1        35.2400   10.2000   24.3500 O.co2     3 ASP3        0.0000 
     19 OD1        34.7300    8.9900   25.0700 O.co2     3 ASP3        0.0000 
     20 OD1        33.8000    9.8500   25.8600 O.co2     3 ASP3        0.0000 
     21 OD1        34.2200    7.7700   25.7900 O.co2     3 ASP3        0.0000 
     22 OD1        37.7400   10.7200   23.8800 O.co2     3 ASP3        0.0000 
     23 OD1        36.8100   11.5900   24.6700 O.co2     3 ASP3        0.0000 
     24 OD1        37.2300    9.5100   24.6000 O.co2     3 ASP3        0.0000 
     25 OD1        36.3000   10.3800   25.3900 O.co2     3 ASP3        0.0000 
     26 OD1        36.7200    8.3000   25.3200 O.co2     3 ASP3        0.0000 
     27 OD1        35.7900    9.1600   26.1200 O.co2     3 ASP3        0.0000 
     28 OD1        34.8500   10.0300   26.9100 O.co2     3 ASP3        0.0000 
     29 OD1        36.2100    7.0900   26.0500 O.co2     3 ASP3        0.0000 
     30 OD1        35.2800    7.9500   26.8400 O.co2     3 ASP3        0.0000 
     31 NZ         35.7000    5.8800   26.7700 N.4       4 LYS4        0.0000 
     32 NZ         38.2000    6.4000   26.3000 N.4       4 LYS4        0.0000 
     33 NZ         36.7600    6.0600   27.8200 N.4       4 LYS4        0.0000 
     34 CA         34.5700   10.1800   20.7300 C.3       5 GLY6        0.0000 
     35 CA         35.6300   10.3600   21.7800 C.3       5 GLY6        0.0000 
     36 CA         37.6200    9.6700   22.0400 C.3       5 GLY6        0.0000 
     37 CA         36.6800   10.5400   22.8300 C.3       5 GLY6        0.0000 
     38 CA         38.6700    9.8500   23.0900 C.3       5 GLY6        0.0000 
     39 CA         38.1600    8.6400   23.8100 C.3       5 GLY6        0.0000 
     40 CA         34.3400    8.8200   27.6300 C.3       5 GLY6        0.0000 
     41 CA         34.7700    6.7400   27.5600 C.3       5 GLY6        0.0000 
     42 CA         33.8300    7.6100   28.3500 C.3       5 GLY6        0.0000 
     43 CA         39.7300   10.0300   24.1300 C.3       5 GLY6        0.0000 
     44 CA         38.8000   10.9000   24.9300 C.3       5 GLY6        0.0000 
     45 CA         37.8700   11.7700   25.7200 C.3       5 GLY6        0.0000 
     46 CA         37.3600   10.5500   26.4400 C.3       5 GLY6        0.0000 
     47 CA         38.7100    7.6100   25.5800 C.3       5 GLY6        0.0000 
     48 CA         36.8500    9.3400   27.1600 C.3       5 GLY6        0.0000 
     49 DU         38.2900    9.6900   25.6500 H         6 CUB7        0.0000 
@<TRIPOS>BOND
@<TRIPOS>SUBSTRUCTURE
     1 SER1        1 GROUP   
     2 ALA2        6 GROUP   
     3 ASP3       10 GROUP   
     4 LYS4       31 GROUP   
     5 GLY6       34 GROUP   
     6 CUB7       49 GROUP   
@<TRIPOS>SET

