#    Name: 6day_2_PAB
#    Modification time : Fri May 22 19:28:11 2020

@<TRIPOS>MOLECULE
6day_2_PAB
   10    10     1     0     0
SMALL
NO_CHARGES


@<TRIPOS>ATOM
      1 C1'        -5.3440    8.7460   18.5410 C.2       1 PAB402      0.0000 
      2 O1'        -6.3570    8.8780   17.8250 O.co2     1 PAB402      0.0000 
      3 O2'        -4.5270    7.8250   18.3070 O.co2     1 PAB402      0.0000 
      4 C1         -5.1200    9.7070   19.6990 C.ar      1 PAB402      0.0000 
      5 C2         -3.9040    9.7060   20.3600 C.ar      1 PAB402      0.0000 
      6 C3         -3.6980   10.5770   21.4170 C.ar      1 PAB402      0.0000 
      7 C4         -4.7040   11.4480   21.8030 C.ar      1 PAB402      0.0000 
      8 C5         -5.9190   11.4530   21.1310 C.ar      1 PAB402      0.0000 
      9 C6         -6.1260   10.5760   20.0800 C.ar      1 PAB402      0.0000 
     10 N4         -4.4730   12.3620   22.9030 N.pl3     1 PAB402      0.0000 
@<TRIPOS>BOND
     1    1    2 ar   
     2    1    3 ar   
     3    1    4 1    
     4    4    5 ar   
     5    4    9 ar   
     6    5    6 ar   
     7    6    7 ar   
     8    7    8 ar   
     9    7   10 1    
    10    8    9 ar   
@<TRIPOS>SUBSTRUCTURE
     1 PAB402      1 GROUP   
@<TRIPOS>SET

