#    Name: 6day_7_PAB_CAVITY_N1_6
#    Modification time : Fri May 22 19:28:28 2020

@<TRIPOS>MOLECULE
6day_7_PAB_CAVITY_N1_6
   72     0     6     0     0
SMALL
NO_CHARGES


@<TRIPOS>ATOM
      1 OG          3.9600   10.1500   30.1600 O.3       1 SER1        0.0000 
      2 OG          3.0200   11.0100   30.9600 O.3       1 SER1        0.0000 
      3 OG          3.5700    9.9800   32.7300 O.3       1 SER1        0.0000 
      4 OG          7.5500    8.6100   33.2400 O.3       1 SER1        0.0000 
      5 O           4.8900    9.2800   29.3700 O.2       2 ALA2        0.0000 
      6 O           4.3800    8.0700   30.0900 O.2       2 ALA2        0.0000 
      7 O           2.5100    9.8000   31.6800 O.2       2 ALA2        0.0000 
      8 N           2.0000    8.5900   32.4000 N.am      2 ALA2        0.0000 
      9 O           5.9500    9.4600   30.4200 O.2       2 ALA2        0.0000 
     10 O           4.0800   11.1900   32.0100 O.2       2 ALA2        0.0000 
     11 O           3.1500   12.0600   32.8000 O.2       2 ALA2        0.0000 
     12 O           5.4400    8.2500   31.1400 O.2       2 ALA2        0.0000 
     13 O           4.2100   12.2400   33.8500 O.2       2 ALA2        0.0000 
     14 O           6.4900    8.4300   32.1900 O.2       2 ALA2        0.0000 
     15 N           3.9100   15.3600   35.7600 N.am      2 ALA2        0.0000 
     16 N           5.9900   17.9600   35.3600 N.am      2 ALA2        0.0000 
     17 N           6.4100   15.8900   35.2900 N.am      2 ALA2        0.0000 
     18 N           7.5600   19.3500   35.6900 N.am      2 ALA2        0.0000 
     19 O           8.9100   16.4100   34.8200 O.2       2 ALA2        0.0000 
     20 N           7.9800   17.2800   35.6200 N.am      2 ALA2        0.0000 
     21 OD1         3.9900    7.9000   32.6600 O.co2     3 ASP3        0.0000 
     22 OD1         3.0600    8.7700   33.4500 O.co2     3 ASP3        0.0000 
     23 OD1         5.9800    7.2200   32.9100 O.co2     3 ASP3        0.0000 
     24 OD1         5.0500    8.0800   33.7100 O.co2     3 ASP3        0.0000 
     25 OD1         8.2400   16.4000   31.2100 O.co2     3 ASP3        0.0000 
     26 OD1         7.6400   11.9000   32.5900 O.co2     3 ASP3        0.0000 
     27 OD1         6.7100   12.7600   33.3800 O.co2     3 ASP3        0.0000 
     28 OD1         5.7800   13.6300   34.1700 O.co2     3 ASP3        0.0000 
     29 OD1         7.1300   10.6800   33.3100 O.co2     3 ASP3        0.0000 
     30 OD1         6.2000   11.5500   34.1000 O.co2     3 ASP3        0.0000 
     31 OD1         5.2700   12.4200   34.9000 O.co2     3 ASP3        0.0000 
     32 OD1         6.6200    9.4700   34.0300 O.co2     3 ASP3        0.0000 
     33 OD1         8.7900   15.3600   32.9800 O.co2     3 ASP3        0.0000 
     34 OD1         8.2800   14.1500   33.7100 O.co2     3 ASP3        0.0000 
     35 OD1         7.3500   15.0200   34.5000 O.co2     3 ASP3        0.0000 
     36 OD1         8.7000   12.0700   33.6400 O.co2     3 ASP3        0.0000 
     37 OD1         6.8300   13.8100   35.2200 O.co2     3 ASP3        0.0000 
     38 OD1         5.9000   14.6800   36.0100 O.co2     3 ASP3        0.0000 
     39 CZ          3.2700   13.1100   34.6400 C.ar      4 PHE5        0.0000 
     40 CZ          4.8400   14.5000   34.9700 C.ar      4 PHE5        0.0000 
     41 CZ          8.0600    9.8200   32.5200 C.ar      4 PHE5        0.0000 
     42 CZ          4.3300   13.2800   35.6900 C.ar      4 PHE5        0.0000 
     43 CA          2.3900    8.7600   29.8400 C.3       5 GLY6        0.0000 
     44 CA          3.4500    8.9400   30.8900 C.3       5 GLY6        0.0000 
     45 CA          5.6500   12.5800   32.3300 C.3       5 GLY6        0.0000 
     46 CA          4.7200   13.4500   33.1200 C.3       5 GLY6        0.0000 
     47 CA          3.7900   14.3200   33.9200 C.3       5 GLY6        0.0000 
     48 CA          7.7300   15.1800   31.9300 C.3       5 GLY6        0.0000 
     49 CA          6.8000   16.0500   32.7300 C.3       5 GLY6        0.0000 
     50 CA          7.2200   13.9700   32.6600 C.3       5 GLY6        0.0000 
     51 CA          6.2900   14.8400   33.4500 C.3       5 GLY6        0.0000 
     52 CA          5.3500   15.7100   34.2400 C.3       5 GLY6        0.0000 
     53 CA          4.4200   16.5700   35.0400 C.3       5 GLY6        0.0000 
     54 CA          8.3700   17.4400   33.0500 C.3       5 GLY6        0.0000 
     55 CA          7.4300   18.3100   33.8500 C.3       5 GLY6        0.0000 
     56 CA          6.5000   19.1700   34.6400 C.3       5 GLY6        0.0000 
     57 CA          7.8600   16.2300   33.7800 C.3       5 GLY6        0.0000 
     58 CA          6.9200   17.1000   34.5700 C.3       5 GLY6        0.0000 
     59 CA          9.2100   13.2900   32.9100 C.3       5 GLY6        0.0000 
     60 CA          9.0000   19.7000   34.1700 C.3       5 GLY6        0.0000 
     61 CA          8.4900   18.4900   34.8900 C.3       5 GLY6        0.0000 
     62 CA          9.3400   14.3300   34.7500 C.3       5 GLY6        0.0000 
     63 CA          8.4000   15.2000   35.5500 C.3       5 GLY6        0.0000 
     64 CA          7.4700   16.0700   36.3400 C.3       5 GLY6        0.0000 
     65 DU          5.0200   10.3300   31.2100 H         6 CUB7        0.0000 
     66 DU          4.5000    9.1100   31.9400 H         6 CUB7        0.0000 
     67 DU          6.0700   10.5100   32.2600 H         6 CUB7        0.0000 
     68 DU          5.1400   11.3700   33.0500 H         6 CUB7        0.0000 
     69 DU          5.5600    9.2900   32.9800 H         6 CUB7        0.0000 
     70 DU          9.0900   12.2400   31.0700 H         6 CUB7        0.0000 
     71 DU          8.1500   13.1100   31.8600 H         6 CUB7        0.0000 
     72 DU          8.5700   11.0300   31.7900 H         6 CUB7        0.0000 
@<TRIPOS>BOND
@<TRIPOS>SUBSTRUCTURE
     1 SER1        1 GROUP   
     2 ALA2        5 GROUP   
     3 ASP3       21 GROUP   
     4 PHE5       39 GROUP   
     5 GLY6       43 GROUP   
     6 CUB7       65 GROUP   
@<TRIPOS>SET

