#    Name: 6day_2_PAB_CAVITY_N1_4
#    Modification time : Fri May 22 19:28:11 2020

@<TRIPOS>MOLECULE
6day_2_PAB_CAVITY_N1_4
   50     0     7     0     0
SMALL
NO_CHARGES


@<TRIPOS>ATOM
      1 OG         -3.7300    9.0400   16.6500 O.3       1 SER1        0.0000 
      2 OG         -4.6700    9.9100   17.4400 O.3       1 SER1        0.0000 
      3 OG         -4.2400    7.8300   17.3700 O.3       1 SER1        0.0000 
      4 OG         -5.1800    8.7000   18.1700 O.3       1 SER1        0.0000 
      5 OG         -6.1100    9.5600   18.9600 O.3       1 SER1        0.0000 
      6 N          -5.4700   11.8200   20.0800 N.am      2 ALA2        0.0000 
      7 N          -4.9300   10.7900   21.8500 N.am      2 ALA2        0.0000 
      8 N          -3.3600   12.1800   22.1700 N.am      2 ALA2        0.0000 
      9 N          -2.3000   12.3600   23.2200 N.am      2 ALA2        0.0000 
     10 OD1        -3.1900    8.0100   18.4200 O.co2     3 ASP3        0.0000 
     11 OD1        -4.1200    8.8800   19.2100 O.co2     3 ASP3        0.0000 
     12 OD1        -1.6200    9.4000   18.7500 O.co2     3 ASP3        0.0000 
     13 OD1        -2.1300    8.1900   19.4700 O.co2     3 ASP3        0.0000 
     14 OD1        -3.9900    9.9200   21.0600 O.co2     3 ASP3        0.0000 
     15 OD1        -4.5000    8.7100   21.7800 O.co2     3 ASP3        0.0000 
     16 OD1        -0.5600    9.5800   19.8000 O.co2     3 ASP3        0.0000 
     17 OD1        -1.4900   10.4500   20.5900 O.co2     3 ASP3        0.0000 
     18 OD1        -2.9400   10.1000   22.1000 O.co2     3 ASP3        0.0000 
     19 OD1        -0.4300   10.6300   21.6400 O.co2     3 ASP3        0.0000 
     20 OD1        -0.9500    9.4100   22.3600 O.co2     3 ASP3        0.0000 
     21 OD1        -1.8800   10.2800   23.1500 O.co2     3 ASP3        0.0000 
     22 NZ         -3.8200    5.7500   17.3000 N.4       4 LYS4        0.0000 
     23 NZ         -4.7600    6.6200   18.1000 N.4       4 LYS4        0.0000 
     24 NZ         -5.6900    7.4900   18.8900 N.4       4 LYS4        0.0000 
     25 NZ         -4.3300    4.5400   18.0300 N.4       4 LYS4        0.0000 
     26 NZ         -2.7600    5.9300   18.3500 N.4       4 LYS4        0.0000 
     27 NZ         -3.7000    6.8000   19.1400 N.4       4 LYS4        0.0000 
     28 CZ         -2.3800    6.1000   15.7900 C.ar      5 PHE5        0.0000 
     29 CZ         -3.3100    6.9600   16.5800 C.ar      5 PHE5        0.0000 
     30 CA         -2.6800    9.2200   17.7000 C.3       6 GLY6        0.0000 
     31 CA         -3.6100   10.0900   18.4900 C.3       6 GLY6        0.0000 
     32 CA         -4.5400   10.9500   19.2800 C.3       6 GLY6        0.0000 
     33 CA         -1.3200    6.2800   16.8400 C.3       6 GLY6        0.0000 
     34 CA         -2.2500    7.1400   17.6300 C.3       6 GLY6        0.0000 
     35 CA         -5.9800   10.6100   20.8000 C.3       6 GLY6        0.0000 
     36 CA         -1.8300    5.0700   17.5600 C.3       6 GLY6        0.0000 
     37 CA         -4.6300    7.6700   19.9400 C.3       6 GLY6        0.0000 
     38 CA         -5.5600    8.5300   20.7300 C.3       6 GLY6        0.0000 
     39 CA         -0.6800    8.5300   17.9500 C.3       6 GLY6        0.0000 
     40 CA         -2.5500   10.2700   19.5400 C.3       6 GLY6        0.0000 
     41 CA         -1.2000    7.3200   18.6800 C.3       6 GLY6        0.0000 
     42 CA         -3.8700   10.9700   22.9000 C.3       6 GLY6        0.0000 
     43 CA         -2.8100   11.1500   23.9500 C.3       6 GLY6        0.0000 
     44 DU         -2.8900    4.8900   16.5100 H         7 CUB7        0.0000 
     45 DU         -1.7400    8.3500   16.9100 H         7 CUB7        0.0000 
     46 DU         -5.0500    9.7400   20.0100 H         7 CUB7        0.0000 
     47 DU         -3.4800   11.1300   20.3300 H         7 CUB7        0.0000 
     48 DU         -4.4200   12.0000   21.1300 H         7 CUB7        0.0000 
     49 DU         -2.4300   11.3100   21.3800 H         7 CUB7        0.0000 
     50 DU         -1.3700   11.4900   22.4300 H         7 CUB7        0.0000 
@<TRIPOS>BOND
@<TRIPOS>SUBSTRUCTURE
     1 SER1        1 GROUP   
     2 ALA2        6 GROUP   
     3 ASP3       10 GROUP   
     4 LYS4       22 GROUP   
     5 PHE5       28 GROUP   
     6 GLY6       30 GROUP   
     7 CUB7       44 GROUP   
@<TRIPOS>SET

