#    Name: 6day_3_PAB
#    Modification time : Fri May 22 19:28:14 2020

@<TRIPOS>MOLECULE
6day_3_PAB
   10    10     1     0     0
SMALL
NO_CHARGES


@<TRIPOS>ATOM
      1 C1'        24.7670   15.1640   10.1470 C.2       1 PAB401      0.0000 
      2 O1'        23.8280   15.0490   10.9700 O.co2     1 PAB401      0.0000 
      3 O2'        24.7320   16.0720    9.2920 O.co2     1 PAB401      0.0000 
      4 C1         25.9460   14.1990   10.2180 C.ar      1 PAB401      0.0000 
      5 C2         25.9000   13.1800   11.1580 C.ar      1 PAB401      0.0000 
      6 C3         26.9310   12.2670   11.2770 C.ar      1 PAB401      0.0000 
      7 C4         28.0290   12.3840   10.4380 C.ar      1 PAB401      0.0000 
      8 C5         28.0740   13.4060    9.4920 C.ar      1 PAB401      0.0000 
      9 C6         27.0360   14.3160    9.3720 C.ar      1 PAB401      0.0000 
     10 N4         29.1170   11.4240   10.5710 N.pl3     1 PAB401      0.0000 
@<TRIPOS>BOND
     1    1    2 ar   
     2    1    3 ar   
     3    1    4 1    
     4    4    5 ar   
     5    4    9 ar   
     6    5    6 ar   
     7    6    7 ar   
     8    7    8 ar   
     9    7   10 1    
    10    8    9 ar   
@<TRIPOS>SUBSTRUCTURE
     1 PAB401      1 GROUP   
@<TRIPOS>SET

