#    Name: 6day_7_PAB
#    Modification time : Fri May 22 19:28:27 2020

@<TRIPOS>MOLECULE
6day_7_PAB
   10    10     1     0     0
SMALL
NO_CHARGES


@<TRIPOS>ATOM
      1 C1'         8.1460   15.7930   34.8860 C.2       1 PAB401      0.0000 
      2 O1'         9.1400   15.6460   34.1310 O.co2     1 PAB401      0.0000 
      3 O2'         8.1350   16.7150   35.7240 O.co2     1 PAB401      0.0000 
      4 C1          6.9620   14.8480   34.7820 C.ar      1 PAB401      0.0000 
      5 C2          7.0650   13.7750   33.9150 C.ar      1 PAB401      0.0000 
      6 C3          6.0180   12.8870   33.7830 C.ar      1 PAB401      0.0000 
      7 C4          4.8570   13.0770   34.5130 C.ar      1 PAB401      0.0000 
      8 C5          4.7500   14.1600   35.3850 C.ar      1 PAB401      0.0000 
      9 C6          5.8010   15.0500   35.5260 C.ar      1 PAB401      0.0000 
     10 N4          3.7640   12.1280   34.3410 N.pl3     1 PAB401      0.0000 
@<TRIPOS>BOND
     1    1    2 ar   
     2    1    3 ar   
     3    1    4 1    
     4    4    5 ar   
     5    4    9 ar   
     6    5    6 ar   
     7    6    7 ar   
     8    7    8 ar   
     9    7   10 1    
    10    8    9 ar   
@<TRIPOS>SUBSTRUCTURE
     1 PAB401      1 GROUP   
@<TRIPOS>SET

