#    Name: 6day_4_PAB
#    Modification time : Fri May 22 19:28:23 2020

@<TRIPOS>MOLECULE
6day_4_PAB
   10    10     1     0     0
SMALL
NO_CHARGES


@<TRIPOS>ATOM
      1 C1'        38.2190    8.3400   26.7090 C.2       1 PAB402      0.0000 
      2 O1'        37.3750    7.4330   26.9200 O.co2     1 PAB402      0.0000 
      3 O2'        39.1680    8.4880   27.5100 O.co2     1 PAB402      0.0000 
      4 C1         38.0920    9.2490   25.4880 C.ar      1 PAB402      0.0000 
      5 C2         37.1030    8.9900   24.5520 C.ar      1 PAB402      0.0000 
      6 C3         36.9660    9.7970   23.4360 C.ar      1 PAB402      0.0000 
      7 C4         37.8250   10.8700   23.2670 C.ar      1 PAB402      0.0000 
      8 C5         38.8080   11.1340   24.2050 C.ar      1 PAB402      0.0000 
      9 C6         38.9480   10.3210   25.3170 C.ar      1 PAB402      0.0000 
     10 N4         37.6900   11.7260   22.1080 N.pl3     1 PAB402      0.0000 
@<TRIPOS>BOND
     1    1    2 ar   
     2    1    3 ar   
     3    1    4 1    
     4    4    5 ar   
     5    4    9 ar   
     6    5    6 ar   
     7    6    7 ar   
     8    7    8 ar   
     9    7   10 1    
    10    8    9 ar   
@<TRIPOS>SUBSTRUCTURE
     1 PAB402      1 GROUP   
@<TRIPOS>SET

