#    Name: 5vxa_1_NDP_CAVITY_N1_4
#    Modification time : Fri May 22 19:14:54 2020

@<TRIPOS>MOLECULE
5vxa_1_NDP_CAVITY_N1_4
   84     0     7     0     0
SMALL
NO_CHARGES


@<TRIPOS>ATOM
      1 OG          5.3300  -24.3600  -24.1600 O.3       1 SER1        0.0000 
      2 OG          3.3100  -23.8800  -23.7200 O.3       1 SER1        0.0000 
      3 O           0.8300  -24.4500  -29.3500 O.2       2 ALA2        0.0000 
      4 N           4.0700  -23.5800  -25.6800 N.am      2 ALA2        0.0000 
      5 N           3.2100  -22.3600  -25.8200 N.am      2 ALA2        0.0000 
      6 O           4.4700  -23.1400  -24.3000 O.2       2 ALA2        0.0000 
      7 OD1         3.2600  -24.4800  -28.4200 O.co2     3 ASP3        0.0000 
      8 OD1         2.4000  -23.2600  -28.5600 O.co2     3 ASP3        0.0000 
      9 OD1         1.2400  -24.0000  -27.9800 O.co2     3 ASP3        0.0000 
     10 OD1         5.6800  -24.5000  -27.4900 O.co2     3 ASP3        0.0000 
     11 OD1         5.3800  -26.4700  -26.7600 O.co2     3 ASP3        0.0000 
     12 OD1         3.6600  -24.0300  -27.0500 O.co2     3 ASP3        0.0000 
     13 OD1         1.6400  -23.5600  -26.6100 O.co2     3 ASP3        0.0000 
     14 OD1         0.7800  -22.3400  -26.7500 O.co2     3 ASP3        0.0000 
     15 OD1         6.0900  -24.0600  -26.1200 O.co2     3 ASP3        0.0000 
     16 OD1         5.2300  -22.8300  -26.2600 O.co2     3 ASP3        0.0000 
     17 OD1         6.6500  -27.2500  -25.2400 O.co2     3 ASP3        0.0000 
     18 OD1         5.7900  -26.0200  -25.3900 O.co2     3 ASP3        0.0000 
     19 OD1         4.6300  -26.7700  -24.8000 O.co2     3 ASP3        0.0000 
     20 OD1         3.7700  -25.5500  -24.9400 O.co2     3 ASP3        0.0000 
     21 OD1         3.4600  -27.5200  -24.2100 O.co2     3 ASP3        0.0000 
     22 OD1        10.2300  -26.5200  -24.9000 O.co2     3 ASP3        0.0000 
     23 OD1         8.2100  -26.0500  -24.4600 O.co2     3 ASP3        0.0000 
     24 OD1         9.6300  -30.4600  -23.4400 O.co2     3 ASP3        0.0000 
     25 OD1         8.7700  -29.2400  -23.5800 O.co2     3 ASP3        0.0000 
     26 OD1         5.8900  -27.5500  -23.2800 O.co2     3 ASP3        0.0000 
     27 OD1         4.7300  -28.2900  -22.7000 O.co2     3 ASP3        0.0000 
     28 OD1         4.4300  -30.2600  -21.9700 O.co2     3 ASP3        0.0000 
     29 OD1         3.2700  -31.0100  -21.3800 O.co2     3 ASP3        0.0000 
     30 OD1         9.1800  -28.7900  -22.2100 O.co2     3 ASP3        0.0000 
     31 OD1         5.1400  -27.8500  -21.3200 O.co2     3 ASP3        0.0000 
     32 NZ          9.5800  -28.3500  -20.8400 N.4       4 LYS4        0.0000 
     33 NZ          8.7200  -27.1200  -20.9800 N.4       4 LYS4        0.0000 
     34 CZ          2.2000  -26.7500  -25.7300 C.ar      5 PHE5        0.0000 
     35 CZ          1.3400  -25.5300  -25.8700 C.ar      5 PHE5        0.0000 
     36 CZ          2.6100  -26.3000  -24.3600 C.ar      5 PHE5        0.0000 
     37 CZ          1.7500  -25.0800  -24.5000 C.ar      5 PHE5        0.0000 
     38 CZ          3.1600  -29.4900  -23.4800 C.ar      5 PHE5        0.0000 
     39 CZ          5.0300  -26.3300  -23.4300 C.ar      5 PHE5        0.0000 
     40 CZ          4.1700  -25.1000  -23.5700 C.ar      5 PHE5        0.0000 
     41 CZ          3.8700  -27.0700  -22.8400 C.ar      5 PHE5        0.0000 
     42 CZ          3.5700  -29.0400  -22.1100 C.ar      5 PHE5        0.0000 
     43 CZ          2.7100  -27.8200  -22.2500 C.ar      5 PHE5        0.0000 
     44 CZ          5.4400  -25.8800  -22.0500 C.ar      5 PHE5        0.0000 
     45 CZ          4.2800  -26.6300  -21.4700 C.ar      5 PHE5        0.0000 
     46 CA          2.0900  -25.2200  -27.8300 C.3       6 GLY6        0.0000 
     47 CA          0.9300  -25.9700  -27.2500 C.3       6 GLY6        0.0000 
     48 CA          0.0700  -24.7500  -27.3900 C.3       6 GLY6        0.0000 
     49 CA          4.5200  -25.2500  -26.9000 C.3       6 GLY6        0.0000 
     50 CA          3.3600  -26.0000  -26.3200 C.3       6 GLY6        0.0000 
     51 CA          2.5000  -24.7800  -26.4600 C.3       6 GLY6        0.0000 
     52 CA          0.4800  -24.3000  -26.0200 C.3       6 GLY6        0.0000 
     53 CA          7.8100  -26.5000  -25.8300 C.3       6 GLY6        0.0000 
     54 CA          2.0500  -23.1100  -25.2300 C.3       6 GLY6        0.0000 
     55 CA          0.8900  -23.8600  -24.6500 C.3       6 GLY6        0.0000 
     56 CA          8.4700  -31.2100  -22.8500 C.3       6 GLY6        0.0000 
     57 CA          7.6100  -29.9900  -23.0000 C.3       6 GLY6        0.0000 
     58 CA          2.4500  -22.6600  -23.8600 C.3       6 GLY6        0.0000 
     59 CA          6.4500  -30.7400  -22.4100 C.3       6 GLY6        0.0000 
     60 CA          8.8700  -30.7600  -21.4800 C.3       6 GLY6        0.0000 
     61 CA          6.8500  -30.2900  -21.0400 C.3       6 GLY6        0.0000 
     62 CA          6.0000  -29.0700  -21.1800 C.3       6 GLY6        0.0000 
     63 CA          5.6900  -31.0400  -20.4500 C.3       6 GLY6        0.0000 
     64 CA          4.8300  -29.8200  -20.5900 C.3       6 GLY6        0.0000 
     65 CA          9.2800  -30.3100  -20.1100 C.3       6 GLY6        0.0000 
     66 CA          8.4200  -29.0900  -20.2500 C.3       6 GLY6        0.0000 
     67 CA          7.5600  -27.8700  -20.3900 C.3       6 GLY6        0.0000 
     68 CA          6.7000  -26.6500  -20.5400 C.3       6 GLY6        0.0000 
     69 CA          8.1200  -31.0600  -19.5200 C.3       6 GLY6        0.0000 
     70 CA          7.2600  -29.8400  -19.6600 C.3       6 GLY6        0.0000 
     71 DU          6.9500  -25.2800  -25.9700 H         7 CUB7        0.0000 
     72 DU          4.9300  -24.8000  -25.5300 H         7 CUB7        0.0000 
     73 DU          2.9100  -24.3300  -25.0900 H         7 CUB7        0.0000 
     74 DU          7.3500  -24.8300  -24.6000 H         7 CUB7        0.0000 
     75 DU          7.9100  -28.0200  -23.7300 H         7 CUB7        0.0000 
     76 DU          7.0500  -26.8000  -23.8700 H         7 CUB7        0.0000 
     77 DU          6.1900  -25.5800  -24.0100 H         7 CUB7        0.0000 
     78 DU          6.7500  -28.7700  -23.1400 H         7 CUB7        0.0000 
     79 DU          5.5900  -29.5100  -22.5500 H         7 CUB7        0.0000 
     80 DU          8.6200  -25.6000  -23.0800 H         7 CUB7        0.0000 
     81 DU          8.3200  -27.5700  -22.3500 H         7 CUB7        0.0000 
     82 DU          8.0200  -29.5400  -21.6200 H         7 CUB7        0.0000 
     83 DU          7.1600  -28.3200  -21.7700 H         7 CUB7        0.0000 
     84 DU          6.3000  -27.1000  -21.9100 H         7 CUB7        0.0000 
@<TRIPOS>BOND
@<TRIPOS>SUBSTRUCTURE
     1 SER1        1 GROUP   
     2 ALA2        3 GROUP   
     3 ASP3        7 GROUP   
     4 LYS4       32 GROUP   
     5 PHE5       34 GROUP   
     6 GLY6       46 GROUP   
     7 CUB7       71 GROUP   
@<TRIPOS>SET

