#    Name: 5vxa_2_NDP
#    Modification time : Fri May 22 19:14:56 2020

@<TRIPOS>MOLECULE
5vxa_2_NDP
   31    33     1     0     1
SMALL
NO_CHARGES


@<TRIPOS>ATOM
      1 PA          5.9440  -17.0270  -60.6580 P.3       1 NDP202      0.0000 
      2 O1A         6.4190  -16.5350  -62.0020 O.co2     1 NDP202      0.0000 
      3 O2A         5.1390  -18.2990  -60.5860 O.co2     1 NDP202      0.0000 
      4 O5B         7.2850  -17.1070  -59.7500 O.3       1 NDP202      0.0000 
      5 C5B         7.3620  -17.4580  -58.3730 C.3       1 NDP202      0.0000 
      6 C4B         7.1680  -16.2620  -57.4500 C.3       1 NDP202      0.0000 
      7 O4B         6.7430  -16.8720  -56.2350 O.3       1 NDP202      0.0000 
      8 C3B         8.4160  -15.4810  -57.0760 C.3       1 NDP202      0.0000 
      9 O3B         8.5580  -14.2510  -57.7980 O.3       1 NDP202      0.0000 
     10 C2B         8.1760  -15.1590  -55.6180 C.3       1 NDP202      0.0000 
     11 O2B         7.2990  -14.0490  -55.6160 O.3       1 NDP202      0.0000 
     12 C1B         7.3770  -16.3200  -55.0820 C.3       1 NDP202      0.0000 
     13 N9A         8.1700  -17.4190  -54.4760 N.pl3     1 NDP202      0.0000 
     14 C8A         7.6760  -18.3270  -53.5930 C.2       1 NDP202      0.0000 
     15 N7A         8.6210  -19.2400  -53.2260 N.2       1 NDP202      0.0000 
     16 C5A         9.7430  -18.9100  -53.8910 C.ar      1 NDP202      0.0000 
     17 C6A        11.1020  -19.4630  -53.9670 C.ar      1 NDP202      0.0000 
     18 N6A        11.4020  -20.5480  -53.2340 N.pl3     1 NDP202      0.0000 
     19 N1A        12.0020  -18.8580  -54.7690 N.ar      1 NDP202      0.0000 
     20 C2A        11.6830  -17.7680  -55.4880 C.ar      1 NDP202      0.0000 
     21 N3A        10.4480  -17.2190  -55.4730 N.ar      1 NDP202      0.0000 
     22 C4A         9.4520  -17.7300  -54.7190 C.ar      1 NDP202      0.0000 
     23 O3          5.1960  -15.7840  -59.9530 O.3       1 NDP202      0.0000 
     24 PN          3.6030  -15.5610  -59.9680 P.3       1 NDP202      0.0000 
     25 O1N         3.1000  -15.9680  -61.3390 O.3       1 NDP202      0.0000 
     26 O2N         3.3540  -14.1730  -59.4270 O.co2     1 NDP202      0.0000 
     27 O5D         3.0920  -16.6250  -58.8600 O.co2     1 NDP202      0.0000 
     28 P2B         7.1130  -13.0820  -54.3480 P.3       1 NDP202      0.0000 
     29 O1X         6.0970  -12.0300  -54.7640 O.co2     1 NDP202      0.0000 
     30 O2X         8.3840  -12.3600  -53.9360 O.co2     1 NDP202      0.0000 
     31 O3X         6.5940  -13.9110  -53.1760 O.co2     1 NDP202      0.0000 
@<TRIPOS>BOND
     1    1    2 ar   
     2    1    3 ar   
     3    1    4 1    
     4    1   23 1    
     5    4    5 1    
     6    5    6 1    
     7    6    7 1    
     8    6    8 1    
     9    7   12 1    
    10    8    9 1    
    11    8   10 1    
    12   10   11 1    
    13   10   12 1    
    14   11   28 1    
    15   12   13 1    
    16   13   14 1    
    17   13   22 1    
    18   14   15 2    
    19   15   16 1    
    20   16   17 ar   
    21   16   22 ar   
    22   17   18 1    
    23   17   19 ar   
    24   19   20 ar   
    25   20   21 ar   
    26   21   22 ar   
    27   23   24 1    
    28   24   25 1    
    29   24   26 ar   
    30   24   27 ar   
    31   28   29 ar   
    32   28   30 ar   
    33   28   31 ar   
@<TRIPOS>SUBSTRUCTURE
     1 NDP202      1 GROUP   
@<TRIPOS>SET
ATOM$ORANGE STATIC     ATOMS   COLORGROUP SYSTEM 
20 5 5 6 6 8 8 10 10 12 12 14 14 16 16 17 17 20 \
20 22 22 

