#    Name: 5vxa_1_NDP
#    Modification time : Fri May 22 19:14:52 2020

@<TRIPOS>MOLECULE
5vxa_1_NDP
   48    52     1     0     1
SMALL
NO_CHARGES


@<TRIPOS>ATOM
      1 PA          4.2550  -29.0540  -22.5810 P.3       1 NDP202      0.0000 
      2 O1A         3.1400  -29.0210  -21.5610 O.co2     1 NDP202      0.0000 
      3 O2A         5.6640  -28.6700  -22.1860 O.co2     1 NDP202      0.0000 
      4 O5B         3.8080  -28.1430  -23.8320 O.3       1 NDP202      0.0000 
      5 C5B         3.6070  -26.7410  -23.6510 C.3       1 NDP202      0.0000 
      6 C4B         4.7760  -25.9920  -24.2800 C.3       1 NDP202      0.0000 
      7 O4B         4.7060  -26.0950  -25.7080 O.3       1 NDP202      0.0000 
      8 C3B         4.7560  -24.4970  -23.9930 C.3       1 NDP202      0.0000 
      9 O3B         5.5110  -24.1810  -22.8120 O.3       1 NDP202      0.0000 
     10 C2B         5.3910  -23.8900  -25.2350 C.3       1 NDP202      0.0000 
     11 O2B         6.7910  -23.9090  -25.0300 O.3       1 NDP202      0.0000 
     12 C1B         5.1500  -24.8770  -26.3570 C.3       1 NDP202      0.0000 
     13 N9A         4.0550  -24.5610  -27.3100 N.pl3     1 NDP202      0.0000 
     14 C8A         4.0420  -24.9250  -28.6200 C.2       1 NDP202      0.0000 
     15 N7A         2.8820  -24.5620  -29.2350 N.2       1 NDP202      0.0000 
     16 C5A         2.1230  -23.9770  -28.2940 C.ar      1 NDP202      0.0000 
     17 C6A         0.7820  -23.3600  -28.2500 C.ar      1 NDP202      0.0000 
     18 N6A         0.0030  -23.3020  -29.3470 N.pl3     1 NDP202      0.0000 
     19 N1A         0.3580  -22.8520  -27.0730 N.ar      1 NDP202      0.0000 
     20 C2A         1.1060  -22.8890  -25.9610 C.ar      1 NDP202      0.0000 
     21 N3A         2.3260  -23.4310  -25.9210 N.ar      1 NDP202      0.0000 
     22 C4A         2.8860  -23.9810  -27.0330 C.ar      1 NDP202      0.0000 
     23 O3          4.3850  -30.5280  -23.1880 O.3       1 NDP202      0.0000 
     24 PN          5.6450  -31.3940  -22.6840 P.3       1 NDP202      0.0000 
     25 O1N         6.8220  -30.4620  -22.5090 O.co2     1 NDP202      0.0000 
     26 O2N         5.7340  -32.6180  -23.5640 O.co2     1 NDP202      0.0000 
     27 O5D         5.2250  -31.8480  -21.1980 O.3       1 NDP202      0.0000 
     28 C5D         3.9000  -32.2920  -20.9420 C.3       1 NDP202      0.0000 
     29 C4D         3.4820  -31.7890  -19.5700 C.3       1 NDP202      0.0000 
     30 O4D         2.0610  -31.7500  -19.5010 O.3       1 NDP202      0.0000 
     31 C3D         3.9810  -32.6860  -18.4560 C.3       1 NDP202      0.0000 
     32 O3D         4.5950  -31.8460  -17.4750 O.3       1 NDP202      0.0000 
     33 C2D         2.7410  -33.3690  -17.9030 C.3       1 NDP202      0.0000 
     34 O2D         2.7490  -33.4000  -16.4710 O.3       1 NDP202      0.0000 
     35 C1D         1.5730  -32.5440  -18.4220 C.3       1 NDP202      0.0000 
     36 N1N         0.5140  -33.3940  -18.9590 N.pl3     1 NDP202      0.0000 
     37 C2N        -0.7510  -33.1560  -18.6090 C.2       1 NDP202      0.0000 
     38 C3N        -1.7990  -33.9260  -19.0930 C.2       1 NDP202      0.0000 
     39 C7N        -3.1970  -33.6190  -18.6450 C.2       1 NDP202      0.0000 
     40 O7N        -4.1440  -34.0180  -19.3040 O.2       1 NDP202      0.0000 
     41 N7N        -3.3570  -32.9180  -17.5270 N.am      1 NDP202      0.0000 
     42 C4N        -1.5610  -35.0570  -20.0640 C.3       1 NDP202      0.0000 
     43 C5N        -0.1450  -35.1990  -20.3730 C.2       1 NDP202      0.0000 
     44 C6N         0.8230  -34.3680  -19.8200 C.2       1 NDP202      0.0000 
     45 P2B         7.7490  -22.8430  -25.7580 P.3       1 NDP202      0.0000 
     46 O1X         7.4560  -21.4610  -25.2170 O.co2     1 NDP202      0.0000 
     47 O2X         9.1770  -23.1870  -25.3910 O.co2     1 NDP202      0.0000 
     48 O3X         7.4980  -22.8950  -27.2590 O.co2     1 NDP202      0.0000 
@<TRIPOS>BOND
     1    1    2 ar   
     2    1    3 ar   
     3    1    4 1    
     4    1   23 1    
     5    4    5 1    
     6    5    6 1    
     7    6    7 1    
     8    6    8 1    
     9    7   12 1    
    10    8    9 1    
    11    8   10 1    
    12   10   11 1    
    13   10   12 1    
    14   11   45 1    
    15   12   13 1    
    16   13   14 1    
    17   13   22 1    
    18   14   15 2    
    19   15   16 1    
    20   16   17 ar   
    21   16   22 ar   
    22   17   18 1    
    23   17   19 ar   
    24   19   20 ar   
    25   20   21 ar   
    26   21   22 ar   
    27   23   24 1    
    28   24   25 ar   
    29   24   26 ar   
    30   24   27 1    
    31   27   28 1    
    32   28   29 1    
    33   29   30 1    
    34   29   31 1    
    35   30   35 1    
    36   31   32 1    
    37   31   33 1    
    38   33   34 1    
    39   33   35 1    
    40   35   36 1    
    41   36   37 1    
    42   36   44 1    
    43   37   38 2    
    44   38   39 1    
    45   38   42 1    
    46   39   40 2    
    47   39   41 am   
    48   42   43 1    
    49   43   44 2    
    50   45   46 ar   
    51   45   47 ar   
    52   45   48 ar   
@<TRIPOS>SUBSTRUCTURE
     1 NDP202      1 GROUP   
@<TRIPOS>SET
ATOM$ORANGE STATIC     ATOMS   COLORGROUP SYSTEM 
42 5 5 6 6 8 8 10 10 12 12 14 14 16 16 17 17 20 \
20 22 22 28 28 29 29 31 31 33 33 35 35 37 37 38 38 39 \
39 42 42 43 43 44 44 

