#    Name: 5vxa_2_NDP_CAVITY_N1_4
#    Modification time : Fri May 22 19:14:58 2020

@<TRIPOS>MOLECULE
5vxa_2_NDP_CAVITY_N1_4
   89     0     7     0     0
SMALL
NO_CHARGES


@<TRIPOS>ATOM
      1 OG          9.9800  -15.8300  -57.8000 O.3       1 SER1        0.0000 
      2 OG          7.9600  -15.3600  -57.3600 O.3       1 SER1        0.0000 
      3 OG         10.3800  -15.3900  -56.4300 O.3       1 SER1        0.0000 
      4 OG          9.5200  -14.1700  -56.5700 O.3       1 SER1        0.0000 
      5 OG          6.7500  -13.9900  -54.1700 O.3       1 SER1        0.0000 
      6 N           3.3000  -11.8200  -62.0600 N.am      2 ALA2        0.0000 
      7 O           6.1300  -11.4000  -59.7500 O.2       2 ALA2        0.0000 
      8 N           9.2200  -16.1300  -55.8400 N.am      2 ALA2        0.0000 
      9 O           8.3600  -14.9100  -55.9900 O.2       2 ALA2        0.0000 
     10 N           9.6300  -15.6900  -54.4700 N.am      2 ALA2        0.0000 
     11 O           8.7700  -14.4700  -54.6200 O.2       2 ALA2        0.0000 
     12 O           7.9100  -13.2500  -54.7600 O.2       2 ALA2        0.0000 
     13 OD1         6.7400  -16.7000  -61.4800 O.co2     3 ASP3        0.0000 
     14 OD1         5.8800  -15.4800  -61.6200 O.co2     3 ASP3        0.0000 
     15 OD1         1.8400  -14.5300  -60.7400 O.co2     3 ASP3        0.0000 
     16 OD1         7.4500  -14.2900  -60.8400 O.co2     3 ASP3        0.0000 
     17 OD1         6.5900  -13.0700  -60.9800 O.co2     3 ASP3        0.0000 
     18 OD1         6.2900  -15.0300  -60.2500 O.co2     3 ASP3        0.0000 
     19 OD1         5.4300  -13.8100  -60.3900 O.co2     3 ASP3        0.0000 
     20 OD1         3.7100  -11.3700  -60.6800 O.co2     3 ASP3        0.0000 
     21 OD1         2.5500  -12.1200  -60.1000 O.co2     3 ASP3        0.0000 
     22 OD1         2.2500  -14.0900  -59.3700 O.co2     3 ASP3        0.0000 
     23 OD1         0.2300  -13.6100  -58.9200 O.co2     3 ASP3        0.0000 
     24 OD1         1.7900  -12.4200  -58.1400 O.co2     3 ASP3        0.0000 
     25 OD1         0.6300  -13.1700  -57.5500 O.co2     3 ASP3        0.0000 
     26 OD1        11.3500  -18.1300  -54.1800 O.co2     3 ASP3        0.0000 
     27 OD1        10.4900  -16.9100  -54.3300 O.co2     3 ASP3        0.0000 
     28 OD1        10.1900  -18.8800  -53.6000 O.co2     3 ASP3        0.0000 
     29 OD1         9.3300  -17.6600  -53.7400 O.co2     3 ASP3        0.0000 
     30 OD1         8.4700  -16.4300  -53.8800 O.co2     3 ASP3        0.0000 
     31 OD1         7.6100  -15.2100  -54.0300 O.co2     3 ASP3        0.0000 
     32 OD1         8.1700  -18.4000  -53.1500 O.co2     3 ASP3        0.0000 
     33 OD1         7.3100  -17.1800  -53.3000 O.co2     3 ASP3        0.0000 
     34 NZ          4.9700  -12.1400  -59.1700 N.4       4 LYS4        0.0000 
     35 NZ          4.1100  -10.9200  -59.3100 N.4       4 LYS4        0.0000 
     36 NZ          2.9500  -11.6700  -58.7200 N.4       4 LYS4        0.0000 
     37 NZ          2.0900  -10.4500  -58.8700 N.4       4 LYS4        0.0000 
     38 NZ          4.2200  -12.4500  -57.2100 N.4       4 LYS4        0.0000 
     39 NZ          2.2000  -11.9700  -56.7600 N.4       4 LYS4        0.0000 
     40 CZ          8.0000  -17.4800  -59.9600 C.ar      5 PHE5        0.0000 
     41 CZ          7.1500  -16.2600  -60.1100 C.ar      5 PHE5        0.0000 
     42 CZ          6.8400  -18.2200  -59.3800 C.ar      5 PHE5        0.0000 
     43 CZ          7.8500  -13.8400  -59.4600 C.ar      5 PHE5        0.0000 
     44 CZ          6.9900  -12.6200  -59.6100 C.ar      5 PHE5        0.0000 
     45 CZ          8.4100  -17.0300  -58.5900 C.ar      5 PHE5        0.0000 
     46 CZ          7.5500  -15.8100  -58.7300 C.ar      5 PHE5        0.0000 
     47 CZ          6.6900  -14.5900  -58.8800 C.ar      5 PHE5        0.0000 
     48 CZ          8.1100  -19.0000  -57.8600 C.ar      5 PHE5        0.0000 
     49 CZ          9.6800  -17.8000  -57.0700 C.ar      5 PHE5        0.0000 
     50 CZ          8.8200  -16.5800  -57.2200 C.ar      5 PHE5        0.0000 
     51 CA          5.0200  -14.2600  -61.7700 C.3       6 GLY6        0.0000 
     52 CA          4.1600  -13.0400  -61.9100 C.3       6 GLY6        0.0000 
     53 CA          3.8600  -15.0100  -61.1800 C.3       6 GLY6        0.0000 
     54 CA          3.0000  -13.7900  -61.3200 C.3       6 GLY6        0.0000 
     55 CA          5.7300  -11.8400  -61.1300 C.3       6 GLY6        0.0000 
     56 CA          7.2500  -17.7800  -58.0000 C.3       6 GLY6        0.0000 
     57 CA          5.2300  -17.3000  -57.5600 C.3       6 GLY6        0.0000 
     58 CA         10.8400  -17.0500  -57.6600 C.3       6 GLY6        0.0000 
     59 CA         10.5400  -19.0200  -56.9300 C.3       6 GLY6        0.0000 
     60 CA          9.3700  -19.7700  -56.3400 C.3       6 GLY6        0.0000 
     61 CA          8.5200  -18.5500  -56.4900 C.3       6 GLY6        0.0000 
     62 CA          7.6600  -17.3300  -56.6300 C.3       6 GLY6        0.0000 
     63 CA          5.6400  -16.8600  -56.1900 C.3       6 GLY6        0.0000 
     64 CA          3.9200  -14.4100  -56.4800 C.3       6 GLY6        0.0000 
     65 CA         12.1000  -17.8300  -56.1400 C.3       6 GLY6        0.0000 
     66 CA         11.2400  -16.6100  -56.2900 C.3       6 GLY6        0.0000 
     67 CA         11.8000  -19.8000  -55.4100 C.3       6 GLY6        0.0000 
     68 CA         10.9400  -18.5800  -55.5600 C.3       6 GLY6        0.0000 
     69 CA         10.6400  -20.5500  -54.8300 C.3       6 GLY6        0.0000 
     70 CA          9.7800  -19.3200  -54.9700 C.3       6 GLY6        0.0000 
     71 CA          8.9200  -18.1000  -55.1100 C.3       6 GLY6        0.0000 
     72 CA          7.7600  -18.8500  -54.5300 C.3       6 GLY6        0.0000 
     73 CA          6.9000  -17.6300  -54.6700 C.3       6 GLY6        0.0000 
     74 DU          4.5700  -12.5900  -60.5400 H         7 CUB7        0.0000 
     75 DU          5.9800  -17.0000  -59.5200 H         7 CUB7        0.0000 
     76 DU          5.1300  -15.7800  -59.6600 H         7 CUB7        0.0000 
     77 DU          4.2700  -14.5600  -59.8100 H         7 CUB7        0.0000 
     78 DU          3.4100  -13.3400  -59.9500 H         7 CUB7        0.0000 
     79 DU          3.1100  -15.3100  -59.2200 H         7 CUB7        0.0000 
     80 DU          5.8300  -13.3700  -59.0200 H         7 CUB7        0.0000 
     81 DU          6.3900  -16.5600  -58.1500 H         7 CUB7        0.0000 
     82 DU          3.8100  -12.8900  -58.5800 H         7 CUB7        0.0000 
     83 DU          2.6500  -13.6400  -57.9900 H         7 CUB7        0.0000 
     84 DU          7.1000  -14.1400  -57.5000 H         7 CUB7        0.0000 
     85 DU          6.8000  -16.1100  -56.7700 H         7 CUB7        0.0000 
     86 DU         10.0800  -17.3600  -55.7000 H         7 CUB7        0.0000 
     87 DU          8.0600  -16.8800  -55.2600 H         7 CUB7        0.0000 
     88 DU          7.2000  -15.6600  -55.4000 H         7 CUB7        0.0000 
     89 DU          6.3400  -14.4400  -55.5500 H         7 CUB7        0.0000 
@<TRIPOS>BOND
@<TRIPOS>SUBSTRUCTURE
     1 SER1        1 GROUP   
     2 ALA2        6 GROUP   
     3 ASP3       13 GROUP   
     4 LYS4       34 GROUP   
     5 PHE5       40 GROUP   
     6 GLY6       51 GROUP   
     7 CUB7       74 GROUP   
@<TRIPOS>SET

