#    Name: 6qjx_1_MIY
#    Modification time : Fri May 22 19:25:40 2020

@<TRIPOS>MOLECULE
6qjx_1_MIY
   33    36     1     0     0
SMALL
NO_CHARGES


@<TRIPOS>ATOM
      1 O8         17.7590   31.5910   35.5430 O.2       1 MIY301      0.0000 
      2 C21        18.2980   32.5240   34.9680 C.2       1 MIY301      0.0000 
      3 N2         17.6880   33.0010   33.8870 N.am      1 MIY301      0.0000 
      4 C2         19.5730   33.1350   35.4410 C.2       1 MIY301      0.0000 
      5 C1         20.2420   34.1160   34.5730 C.2       1 MIY301      0.0000 
      6 O1         19.6690   34.7090   33.6380 O.2       1 MIY301      0.0000 
      7 C3         20.0990   32.8540   36.6600 C.2       1 MIY301      0.0000 
      8 O2         19.7970   31.7430   37.2990 O.co2     1 MIY301      0.0000 
      9 C4         21.0280   33.7810   37.4150 C.3       1 MIY301      0.0000 
     10 N1         21.9850   32.9990   38.2660 N.4       1 MIY301      0.0000 
     11 C20        22.7350   33.7350   39.3180 C.3       1 MIY301      0.0000 
     12 C19        22.9360   32.2230   37.4040 C.3       1 MIY301      0.0000 
     13 C5         21.6670   34.7930   36.4450 C.3       1 MIY301      0.0000 
     14 C18        21.6680   34.3990   34.9470 C.3       1 MIY301      0.0000 
     15 O7         22.4790   33.2680   34.6100 O.3       1 MIY301      0.0000 
     16 C17        22.2370   35.5020   34.1290 C.2       1 MIY301      0.0000 
     17 O6         22.4720   35.2140   32.8540 O.co2     1 MIY301      0.0000 
     18 C16        22.5210   36.6910   34.6560 C.2       1 MIY301      0.0000 
     19 C7         21.9690   37.1540   35.9880 C.3       1 MIY301      0.0000 
     20 C6         20.9550   36.1540   36.5290 C.3       1 MIY301      0.0000 
     21 C15        23.4000   37.6220   33.9690 C.2       1 MIY301      0.0000 
     22 O5         23.8930   37.3330   32.8930 O.2       1 MIY301      0.0000 
     23 C14        23.7870   38.8410   34.7500 C.ar      1 MIY301      0.0000 
     24 C9         22.7890   39.3450   35.7220 C.ar      1 MIY301      0.0000 
     25 C8         21.4840   38.6030   35.8300 C.3       1 MIY301      0.0000 
     26 C13        25.0950   39.5200   34.6400 C.ar      1 MIY301      0.0000 
     27 O4         26.0520   39.0800   33.7810 O.co2     1 MIY301      0.0000 
     28 C12        25.3570   40.6150   35.4350 C.ar      1 MIY301      0.0000 
     29 C11        24.4210   41.1120   36.3530 C.ar      1 MIY301      0.0000 
     30 C10        23.1480   40.5380   36.5330 C.ar      1 MIY301      0.0000 
     31 N7         22.1940   41.0300   37.4550 N.3       1 MIY301      0.0000 
     32 CN7        21.1910   41.9150   36.7820 C.3       1 MIY301      0.0000 
     33 C71        22.8020   41.5860   38.6890 C.3       1 MIY301      0.0000 
@<TRIPOS>BOND
     1   18   21 1    
     2   19   20 1    
     3   19   25 1    
     4   21   22 2    
     5   21   23 1    
     6   23   24 ar   
     7   23   26 ar   
     8   24   25 1    
     9   24   30 ar   
    10   26   27 ar   
    11   26   28 ar   
    12   28   29 ar   
    13   29   30 ar   
    14   30   31 1    
    15   31   32 1    
    16   31   33 1    
    17    1    2 2    
    18    2    3 am   
    19    2    4 1    
    20    4    5 1    
    21    4    7 2    
    22    5    6 2    
    23    5   14 1    
    24    7    8 ar   
    25    7    9 1    
    26    9   10 1    
    27    9   13 1    
    28   10   11 1    
    29   10   12 1    
    30   13   14 1    
    31   13   20 1    
    32   14   15 1    
    33   14   16 1    
    34   16   17 ar   
    35   16   18 2    
    36   18   19 1    
@<TRIPOS>SUBSTRUCTURE
     1 MIY301      1 GROUP   
@<TRIPOS>SET

