#    Name: 6c2m_3_SUE
#    Modification time : Fri May 22 19:34:07 2020

@<TRIPOS>MOLECULE
6c2m_3_SUE
  104   110     1     0     0
SMALL
NO_CHARGES


@<TRIPOS>ATOM
      1 C          42.1140   -7.4290  -19.4100 C.2       1 SUE1203     0.0000 
      2 N          44.2320   -8.4740  -19.0460 N.am      1 SUE1203     0.0000 
      3 O          42.2590   -6.6680  -18.5150 O.2       1 SUE1203     0.0000 
      4 CA         42.8750   -8.7560  -19.4070 C.3       1 SUE1203     0.0000 
      5 CB         42.2510   -9.7320  -18.3660 C.3       1 SUE1203     0.0000 
      6 CAB        45.2620   -8.4030  -20.0710 C.2       1 SUE1203     0.0000 
      7 NAC        40.2760   -5.3180  -24.9920 N.ar      1 SUE1203     0.0000 
      8 CAD        41.3120   -2.5940  -27.7750 C.ar      1 SUE1203     0.0000 
      9 CAE        38.9320   -4.4250  -27.0240 C.ar      1 SUE1203     0.0000 
     10 CAF        48.7330   -6.8550  -20.2350 C.3       1 SUE1203     0.0000 
     11 CAG        47.6430   -6.4340  -21.2240 C.3       1 SUE1203     0.0000 
     12 CAH        47.5390   -7.7740  -20.5070 C.3       1 SUE1203     0.0000 
     13 CAK        34.0870   -4.5180  -20.2940 C.3       1 SUE1203     0.0000 
     14 CAL        33.1830   -3.6070  -19.4490 C.3       1 SUE1203     0.0000 
     15 OAM        34.8350   -5.2400  -17.1900 O.2       1 SUE1203     0.0000 
     16 SAN        35.4580   -4.0750  -17.8210 S.o2      1 SUE1203     0.0000 
     17 CAO        39.5030   -4.3400  -17.1620 C.3       1 SUE1203     0.0000 
     18 OAP        38.9240   -6.5490  -18.8770 O.2       1 SUE1203     0.0000 
     19 CAQ        39.7000   -5.7390  -19.2850 C.2       1 SUE1203     0.0000 
     20 CAR        42.5390   -9.2640  -16.9070 C.3       1 SUE1203     0.0000 
     21 CAS        39.7060   -5.7440  -14.9670 C.2       1 SUE1203     0.0000 
     22 CAT        41.3860   -3.5290  -26.5370 C.ar      1 SUE1203     0.0000 
     23 CAU        48.0860   -5.8870  -22.6020 C.3       1 SUE1203     0.0000 
     24 NAV        37.1150   -4.3030  -18.0850 N.am      1 SUE1203     0.0000 
     25 CAW        40.4050   -4.9980  -16.1140 C.3       1 SUE1203     0.0000 
     26 CAX        45.6790   -6.3280  -23.3580 C.3       1 SUE1203     0.0000 
     27 CAY        40.0250   -2.5850  -28.6240 C.ar      1 SUE1203     0.0000 
     28 OAZ        41.5950   -6.1810  -23.0400 O.3       1 SUE1203     0.0000 
     29 CBA        36.5760   -4.2980  -28.6350 C.3       1 SUE1203     0.0000 
     30 OBB        37.6600   -3.4830  -29.0450 O.3       1 SUE1203     0.0000 
     31 CBC        47.1840   -6.5100  -23.7050 C.3       1 SUE1203     0.0000 
     32 CBD        44.9620   -5.4220  -24.3920 C.3       1 SUE1203     0.0000 
     33 CBE        41.4810   -5.3350  -24.1880 C.ar      1 SUE1203     0.0000 
     34 CBF        42.6720   -4.4250  -24.5460 C.ar      1 SUE1203     0.0000 
     35 CBG        40.2200   -4.4190  -26.1780 C.ar      1 SUE1203     0.0000 
     36 NBH        42.6180   -3.5410  -25.7040 N.ar      1 SUE1203     0.0000 
     37 CBI        43.9480   -4.4720  -23.6810 C.3       1 SUE1203     0.0000 
     38 CBJ        38.8270   -3.5040  -28.2540 C.ar      1 SUE1203     0.0000 
     39 OBK        35.2420   -3.0600  -16.7980 O.2       1 SUE1203     0.0000 
     40 CBL        34.6980   -3.4690  -19.3710 C.3       1 SUE1203     0.0000 
     41 OBM        37.5450   -3.9150  -15.8870 O.2       1 SUE1203     0.0000 
     42 CBN        40.2980   -3.4690  -16.1870 C.3       1 SUE1203     0.0000 
     43 CBO        37.9970   -4.1770  -16.9460 C.2       1 SUE1203     0.0000 
     44 NBP        40.0720   -4.5540  -18.4930 N.am      1 SUE1203     0.0000 
     45 CBQ        40.1970   -6.9250  -14.6000 C.2       1 SUE1203     0.0000 
     46 OBR        44.9760   -8.4720  -21.2220 O.2       1 SUE1203     0.0000 
     47 OBT        46.5820   -8.2630  -19.6000 O.3       1 SUE1203     0.0000 
     48 CBX        39.5180   -6.0510  -21.8350 C.3       1 SUE1203     0.0000 
     49 CBY        40.4090   -5.8810  -20.6170 C.3       1 SUE1203     0.0000 
     50 NBZ        41.1900   -7.1030  -20.5220 N.am      1 SUE1203     0.0000 
     51 CCA        40.8950   -7.9260  -21.6970 C.3       1 SUE1203     0.0000 
     52 CCB        40.4400   -6.8850  -22.6900 C.3       1 SUE1203     0.0000 
     53 CG1        40.7160   -9.8410  -18.5700 C.3       1 SUE1203     0.0000 
     54 CG2        42.8530  -11.1480  -18.5730 C.3       1 SUE1203     0.0000 
     55 HN         44.4390   -8.3460  -18.2210 H         1 SUE1203     0.0000 
     56 HA         42.8460   -9.1550  -20.2910 H         1 SUE1203     0.0000 
     57 HAD        42.0290   -2.0450  -27.9970 H         1 SUE1203     0.0000 
     58 HAE        38.2190   -4.9740  -26.7880 H         1 SUE1203     0.0000 
     59 HAF        48.7240   -6.3970  -19.3800 H         1 SUE1203     0.0000 
     60 HAFA       49.5740   -7.1320  -20.6310 H         1 SUE1203     0.0000 
     61 HAG        47.0530   -5.7950  -20.7940 H         1 SUE1203     0.0000 
     62 HAH        47.8110   -8.4830  -21.1110 H         1 SUE1203     0.0000 
     63 HAK        34.1580   -5.4360  -19.9900 H         1 SUE1203     0.0000 
     64 HAKA       34.1200   -4.3130  -21.2420 H         1 SUE1203     0.0000 
     65 HAL        32.7610   -4.0290  -18.6850 H         1 SUE1203     0.0000 
     66 HALA       32.7230   -2.9050  -19.9360 H         1 SUE1203     0.0000 
     67 HAR        42.2850   -9.9650  -16.2860 H         1 SUE1203     0.0000 
     68 HARA       42.0270   -8.4630  -16.7170 H         1 SUE1203     0.0000 
     69 HARB       43.4850   -9.0730  -16.8090 H         1 SUE1203     0.0000 
     70 HAS        38.9620   -5.3810  -14.5430 H         1 SUE1203     0.0000 
     71 HAU        49.0120   -6.1270  -22.7640 H         1 SUE1203     0.0000 
     72 HAUA       47.9940   -4.9210  -22.6130 H         1 SUE1203     0.0000 
     73 HNAV       37.4220   -4.4750  -18.8690 H         1 SUE1203     0.0000 
     74 HAW        41.2350   -5.3590  -16.4640 H         1 SUE1203     0.0000 
     75 HAX        45.6030   -5.9270  -22.4790 H         1 SUE1203     0.0000 
     76 HAXA       45.2500   -7.1980  -23.3480 H         1 SUE1203     0.0000 
     77 HAY        39.9680   -2.0310  -29.3680 H         1 SUE1203     0.0000 
     78 HBA        36.9050   -5.1800  -28.4000 H         1 SUE1203     0.0000 
     79 HBAA       35.9360   -4.3740  -29.3610 H         1 SUE1203     0.0000 
     80 HBAB       36.1440   -3.8980  -27.8640 H         1 SUE1203     0.0000 
     81 HBC        47.3820   -7.4560  -23.7820 H         1 SUE1203     0.0000 
     82 HBCA       47.3710   -6.0750  -24.5520 H         1 SUE1203     0.0000 
     83 HBD        45.6220   -4.8900  -24.8630 H         1 SUE1203     0.0000 
     84 HBDA       44.4860   -5.9780  -25.0290 H         1 SUE1203     0.0000 
     85 HBI        44.3280   -3.5830  -23.6050 H         1 SUE1203     0.0000 
     86 HBIA       43.7360   -4.8170  -22.8000 H         1 SUE1203     0.0000 
     87 HBL        35.0670   -2.6900  -19.8160 H         1 SUE1203     0.0000 
     88 HBN        39.7800   -3.0520  -15.4810 H         1 SUE1203     0.0000 
     89 HBNA       41.0660   -3.0130  -16.5630 H         1 SUE1203     0.0000 
     90 HNBP       40.6560   -4.0030  -18.8000 H         1 SUE1203     0.0000 
     91 HBQ        39.7960   -7.4010  -13.9090 H         1 SUE1203     0.0000 
     92 HBQA       40.9420   -7.2740  -15.0340 H         1 SUE1203     0.0000 
     93 HBX        38.7070   -6.5350  -21.6140 H         1 SUE1203     0.0000 
     94 HBXA       39.3260   -5.1970  -22.2540 H         1 SUE1203     0.0000 
     95 HBY        41.0040   -5.1270  -20.7550 H         1 SUE1203     0.0000 
     96 HCA        40.1830   -8.5570  -21.5070 H         1 SUE1203     0.0000 
     97 HCAA       41.6940   -8.3780  -22.0120 H         1 SUE1203     0.0000 
     98 HCB        39.9870   -7.2770  -23.4520 H         1 SUE1203     0.0000 
     99 HG1        40.3090   -8.9720  -18.4300 H         1 SUE1203     0.0000 
    100 HG1A       40.3500  -10.4760  -17.9340 H         1 SUE1203     0.0000 
    101 HG1B       40.5310  -10.1440  -19.4720 H         1 SUE1203     0.0000 
    102 HG2        43.0590  -11.2770  -19.5120 H         1 SUE1203     0.0000 
    103 HG2A       42.2120  -11.8170  -18.2870 H         1 SUE1203     0.0000 
    104 HG2B       43.6650  -11.2330  -18.0490 H         1 SUE1203     0.0000 
@<TRIPOS>BOND
     1    1    3 2    
     2    1    4 1    
     3    1   50 am   
     4    2    4 1    
     5    2    6 am   
     6    4    5 1    
     7    2   55 1    
     8    4   56 1    
     9    5   20 1    
    10    5   53 1    
    11    5   54 1    
    12    6   46 2    
    13    6   47 1    
    14    7   33 ar   
    15    7   35 ar   
    16    8   22 ar   
    17    8   27 ar   
    18    9   35 ar   
    19    8   57 1    
    20    9   38 ar   
    21   10   11 1    
    22    9   58 1    
    23   10   12 1    
    24   10   59 1    
    25   10   60 1    
    26   11   12 1    
    27   11   23 1    
    28   11   61 1    
    29   12   47 1    
    30   12   62 1    
    31   13   14 1    
    32   13   40 1    
    33   13   63 1    
    34   13   64 1    
    35   14   66 1    
    36   14   40 1    
    37   14   65 1    
    38   15   16 2    
    39   16   24 1    
    40   16   39 2    
    41   16   40 1    
    42   17   25 1    
    43   17   42 1    
    44   17   43 1    
    45   17   44 1    
    46   18   19 2    
    47   19   44 am   
    48   19   49 1    
    49   20   67 1    
    50   20   68 1    
    51   20   69 1    
    52   21   25 1    
    53   21   45 2    
    54   22   35 ar   
    55   21   70 1    
    56   22   36 ar   
    57   23   31 1    
    58   23   71 1    
    59   23   72 1    
    60   24   43 am   
    61   25   42 1    
    62   24   73 1    
    63   25   74 1    
    64   26   31 1    
    65   26   32 1    
    66   26   75 1    
    67   26   76 1    
    68   27   38 ar   
    69   28   33 1    
    70   27   77 1    
    71   28   52 1    
    72   29   30 1    
    73   29   78 1    
    74   29   79 1    
    75   29   80 1    
    76   30   38 1    
    77   31   81 1    
    78   31   82 1    
    79   32   37 1    
    80   32   83 1    
    81   32   84 1    
    82   33   34 ar   
    83   34   36 ar   
    84   34   37 1    
    85   37   85 1    
    86   37   86 1    
    87   40   87 1    
    88   41   43 2    
    89   42   88 1    
    90   42   89 1    
    91   48   49 1    
    92   44   90 1    
    93   45   91 1    
    94   45   92 1    
    95   48   52 1    
    96   48   93 1    
    97   48   94 1    
    98   49   50 1    
    99   49   95 1    
   100   50   51 1    
   101   51   52 1    
   102   51   96 1    
   103   51   97 1    
   104   52   98 1    
   105   53   99 1    
   106   53  100 1    
   107   53  101 1    
   108   54  102 1    
   109   54  103 1    
   110   54  104 1    
@<TRIPOS>SUBSTRUCTURE
     1 SUE1203     1 GROUP   
@<TRIPOS>SET

