#    Name: 6c2m_3_SUE_CAVITY_N1_8
#    Modification time : Fri May 22 19:34:09 2020

@<TRIPOS>MOLECULE
6c2m_3_SUE_CAVITY_N1_8
   72     0     5     0     0
SMALL
NO_CHARGES


@<TRIPOS>ATOM
      1 OG         37.6000   -6.0400  -18.5600 O.3       1 SER1        0.0000 
      2 OG         38.9800   -6.0200  -19.1700 O.3       1 SER1        0.0000 
      3 OG         35.9100   -4.7600  -18.6400 O.3       1 SER1        0.0000 
      4 OG         34.2200   -3.4900  -18.7100 O.3       1 SER1        0.0000 
      5 OG         35.5900   -3.4700  -19.3200 O.3       1 SER1        0.0000 
      6 OG         36.4200   -4.0100  -17.4500 O.3       1 SER1        0.0000 
      7 OG         37.8000   -3.9900  -18.0500 O.3       1 SER1        0.0000 
      8 OG         39.1700   -3.9700  -18.6600 O.3       1 SER1        0.0000 
      9 N          32.1400   -6.3200  -19.8000 N.am      2 ALA2        0.0000 
     10 N          34.0200   -5.5400  -19.2200 N.am      2 ALA2        0.0000 
     11 N          33.7000   -4.2400  -19.9000 N.am      2 ALA2        0.0000 
     12 N          40.3500   -5.9900  -19.7700 N.am      2 ALA2        0.0000 
     13 N          31.7900   -4.8300  -16.8200 N.am      2 ALA2        0.0000 
     14 N          33.1700   -4.8100  -17.4200 N.am      2 ALA2        0.0000 
     15 N          41.4000   -4.6800  -21.0600 N.am      2 ALA2        0.0000 
     16 N          32.8400   -3.5100  -18.1100 N.am      2 ALA2        0.0000 
     17 O          41.5100   -7.8300  -17.2200 O.2       2 ALA2        0.0000 
     18 O          41.1800   -6.5400  -17.9000 O.2       2 ALA2        0.0000 
     19 O          42.5600   -6.5100  -18.5000 O.2       2 ALA2        0.0000 
     20 O          36.7500   -5.3100  -16.7600 O.2       2 ALA2        0.0000 
     21 N          39.4900   -5.2600  -17.9800 N.am      2 ALA2        0.0000 
     22 O          35.0500   -4.0300  -16.8400 O.2       2 ALA2        0.0000 
     23 N          39.6000   -8.4200  -14.1300 N.am      2 ALA2        0.0000 
     24 O          39.2800   -7.1200  -14.8100 O.2       2 ALA2        0.0000 
     25 O          40.3300   -5.8000  -16.1000 O.2       2 ALA2        0.0000 
     26 O          41.7000   -5.7800  -16.7100 O.2       2 ALA2        0.0000 
     27 O          37.2600   -4.5500  -15.5700 O.2       2 ALA2        0.0000 
     28 N          38.6300   -4.5300  -16.1800 N.am      2 ALA2        0.0000 
     29 N          40.0000   -4.5100  -16.7900 N.am      2 ALA2        0.0000 
     30 O          39.7900   -6.3700  -13.6200 O.2       2 ALA2        0.0000 
     31 N          39.4700   -5.0700  -14.3100 N.am      2 ALA2        0.0000 
     32 N          39.1500   -3.7700  -14.9900 N.am      2 ALA2        0.0000 
     33 CZ         35.4000   -5.5200  -19.8300 C.ar      3 PHE5        0.0000 
     34 CZ         40.0300   -4.7000  -20.4500 C.ar      3 PHE5        0.0000 
     35 CZ         40.8400   -5.0500  -14.9100 C.ar      3 PHE5        0.0000 
     36 CZ         40.5200   -3.7500  -15.5900 C.ar      3 PHE5        0.0000 
     37 CZ         41.8900   -3.7300  -16.2000 C.ar      3 PHE5        0.0000 
     38 CZ         40.2000   -2.4600  -16.2800 C.ar      3 PHE5        0.0000 
     39 CA         31.6000   -6.8800  -17.3300 C.3       4 GLY6        0.0000 
     40 CA         32.9700   -6.8600  -17.9300 C.3       4 GLY6        0.0000 
     41 CA         31.2800   -5.5800  -18.0100 C.3       4 GLY6        0.0000 
     42 CA         32.6500   -5.5600  -18.6100 C.3       4 GLY6        0.0000 
     43 CA         32.3300   -4.2700  -19.3000 C.3       4 GLY6        0.0000 
     44 CA         33.3800   -2.9500  -20.5900 C.3       4 GLY6        0.0000 
     45 CA         36.5500   -7.3600  -17.2700 C.3       4 GLY6        0.0000 
     46 CA         33.4900   -6.1000  -16.7400 C.3       4 GLY6        0.0000 
     47 CA         34.8600   -6.0800  -17.3500 C.3       4 GLY6        0.0000 
     48 CA         37.7100   -9.1900  -14.7200 C.3       4 GLY6        0.0000 
     49 CA         39.0800   -9.1700  -15.3200 C.3       4 GLY6        0.0000 
     50 CA         40.4600   -9.1500  -15.9300 C.3       4 GLY6        0.0000 
     51 CA         37.3900   -7.9000  -15.4000 C.3       4 GLY6        0.0000 
     52 CA         37.0700   -6.6000  -16.0800 C.3       4 GLY6        0.0000 
     53 CA         40.8600   -5.2400  -18.5800 C.3       4 GLY6        0.0000 
     54 CA         40.9700   -8.4000  -14.7400 C.3       4 GLY6        0.0000 
     55 CA         40.6500   -7.1000  -15.4200 C.3       4 GLY6        0.0000 
     56 CA         38.9500   -5.8300  -15.5000 C.3       4 GLY6        0.0000 
     57 CA         41.3800   -4.4900  -17.3900 C.3       4 GLY6        0.0000 
     58 CA         38.3100   -3.2300  -16.8600 C.3       4 GLY6        0.0000 
     59 CA         39.6800   -3.2100  -17.4700 C.3       4 GLY6        0.0000 
     60 CA         41.1600   -6.3500  -14.2300 C.3       4 GLY6        0.0000 
     61 DU         34.3500   -6.8400  -18.5400 H         5 CUB7        0.0000 
     62 DU         35.7200   -6.8100  -19.1400 H         5 CUB7        0.0000 
     63 DU         38.2500   -8.6300  -17.1900 H         5 CUB7        0.0000 
     64 DU         37.9300   -7.3300  -17.8800 H         5 CUB7        0.0000 
     65 DU         40.6700   -7.2900  -19.0900 H         5 CUB7        0.0000 
     66 DU         36.2300   -6.0600  -17.9500 H         5 CUB7        0.0000 
     67 DU         34.5400   -4.7900  -18.0300 H         5 CUB7        0.0000 
     68 DU         38.7600   -7.8800  -16.0000 H         5 CUB7        0.0000 
     69 DU         40.1300   -7.8500  -16.6100 H         5 CUB7        0.0000 
     70 DU         38.4400   -6.5800  -16.6900 H         5 CUB7        0.0000 
     71 DU         39.8100   -6.5600  -17.2900 H         5 CUB7        0.0000 
     72 DU         38.1200   -5.2800  -17.3700 H         5 CUB7        0.0000 
@<TRIPOS>BOND
@<TRIPOS>SUBSTRUCTURE
     1 SER1        1 GROUP   
     2 ALA2        9 GROUP   
     3 PHE5       33 GROUP   
     4 GLY6       39 GROUP   
     5 CUB7       61 GROUP   
@<TRIPOS>SET

