#    Name: 6ef0_4_ATP
#    Modification time : Fri May 22 19:32:46 2020

@<TRIPOS>MOLECULE
6ef0_4_ATP
   31    33     1     0     1
SMALL
NO_CHARGES


@<TRIPOS>ATOM
      1 PG        175.1120  155.0100  166.2790 P.3       1 ATP501      0.0000 
      2 O1G       174.0220  154.8820  165.2500 O.co2     1 ATP501      0.0000 
      3 O2G       175.0640  156.2700  167.1010 O.co2     1 ATP501      0.0000 
      4 O3G       176.4810  154.5870  165.8100 O.co2     1 ATP501      0.0000 
      5 PB        174.8860  152.3490  166.9660 P.3       1 ATP501      0.0000 
      6 O1B       173.9180  152.1470  165.8360 O.co2     1 ATP501      0.0000 
      7 O2B       176.3440  152.0160  166.7940 O.co2     1 ATP501      0.0000 
      8 O3B       174.7570  153.8910  167.3720 O.3       1 ATP501      0.0000 
      9 PA        175.0410  150.2340  168.7550 P.3       1 ATP501      0.0000 
     10 O1A       175.7240  149.5980  167.5810 O.co2     1 ATP501      0.0000 
     11 O2A       175.8270  150.5070  170.0120 O.co2     1 ATP501      0.0000 
     12 O3A       174.3110  151.5690  168.2440 O.3       1 ATP501      0.0000 
     13 O5'       173.8180  149.2640  169.1160 O.3       1 ATP501      0.0000 
     14 C5'       173.9480  147.9400  168.6210 C.3       1 ATP501      0.0000 
     15 C4'       172.9060  146.9920  169.1800 C.3       1 ATP501      0.0000 
     16 O4'       173.0340  145.7200  168.5580 O.3       1 ATP501      0.0000 
     17 C3'       173.0760  146.8360  170.6610 C.3       1 ATP501      0.0000 
     18 O3'       171.8500  147.2170  171.2770 O.3       1 ATP501      0.0000 
     19 C2'       173.3870  145.3770  170.8740 C.3       1 ATP501      0.0000 
     20 O2'       172.3440  144.7470  171.6190 O.3       1 ATP501      0.0000 
     21 C1'       173.4840  144.7500  169.4900 C.3       1 ATP501      0.0000 
     22 N9        174.8520  144.3830  169.0690 N.pl3     1 ATP501      0.0000 
     23 C8        175.4110  144.7150  167.8960 C.2       1 ATP501      0.0000 
     24 N7        176.6630  144.2120  167.8030 N.2       1 ATP501      0.0000 
     25 C5        176.9090  143.5430  168.9340 C.ar      1 ATP501      0.0000 
     26 C6        178.0270  142.7800  169.4980 C.ar      1 ATP501      0.0000 
     27 N6        179.1650  142.6260  168.8040 N.pl3     1 ATP501      0.0000 
     28 N1        177.8710  142.2380  170.7150 N.ar      1 ATP501      0.0000 
     29 C2        176.7360  142.3820  171.4140 C.ar      1 ATP501      0.0000 
     30 N3        175.6820  143.0670  170.9630 N.ar      1 ATP501      0.0000 
     31 C4        175.7100  143.6470  169.7530 C.ar      1 ATP501      0.0000 
@<TRIPOS>BOND
     1    1    2 ar   
     2    1    3 ar   
     3    1    4 ar   
     4    1    8 1    
     5    5    6 ar   
     6    5    7 ar   
     7    5    8 1    
     8    5   12 1    
     9    9   10 ar   
    10    9   11 ar   
    11    9   12 1    
    12    9   13 1    
    13   13   14 1    
    14   14   15 1    
    15   15   16 1    
    16   15   17 1    
    17   16   21 1    
    18   17   18 1    
    19   17   19 1    
    20   19   20 1    
    21   19   21 1    
    22   21   22 1    
    23   22   23 1    
    24   22   31 1    
    25   23   24 2    
    26   24   25 1    
    27   25   26 ar   
    28   25   31 ar   
    29   26   27 1    
    30   26   28 ar   
    31   28   29 ar   
    32   29   30 ar   
    33   30   31 ar   
@<TRIPOS>SUBSTRUCTURE
     1 ATP501      1 GROUP   
@<TRIPOS>SET
ATOM$ORANGE STATIC     ATOMS   COLORGROUP SYSTEM 
20 14 14 15 15 17 17 19 19 21 21 23 23 25 25 26 26 29 \
29 31 31 

