#    Name: 6ef0_3_ATP_CAVITY_N1_ALL
#    Modification time : Fri May 22 19:32:39 2020

@<TRIPOS>MOLECULE
6ef0_3_ATP_CAVITY_N1_ALL
   83     0     7     0     0
SMALL
NO_CHARGES


@<TRIPOS>ATOM
      1 OG        198.4900  172.6900  170.0300 O.3       1 SER1        0.0000 
      2 OG        203.3700  169.9700  170.5700 O.3       1 SER1        0.0000 
      3 OG        201.0500  172.3800  170.3800 O.3       1 SER1        0.0000 
      4 OG        200.4000  173.5700  169.7300 O.3       1 SER1        0.0000 
      5 OG        200.0300  172.4200  171.4700 O.3       1 SER1        0.0000 
      6 OG        205.2800  170.8500  170.2800 O.3       1 SER1        0.0000 
      7 OG        200.9100  173.3300  172.2700 O.3       1 SER1        0.0000 
      8 OG        207.8400  170.5400  170.6200 O.3       1 SER1        0.0000 
      9 OG        206.8100  170.5800  171.7200 O.3       1 SER1        0.0000 
     10 OG        205.7900  170.6100  172.8100 O.3       1 SER1        0.0000 
     11 OG        202.9400  172.8200  176.2500 O.3       1 SER1        0.0000 
     12 OG        204.4800  172.5500  177.6900 O.3       1 SER1        0.0000 
     13 N         200.5900  168.1800  170.0700 N.am      2 ALA2        0.0000 
     14 N         202.4900  169.0600  169.7800 N.am      2 ALA2        0.0000 
     15 O         200.5400  172.6200  167.8400 O.2       2 ALA2        0.0000 
     16 N         204.4000  169.9400  169.4800 N.am      2 ALA2        0.0000 
     17 N         203.7500  171.1200  168.8300 N.am      2 ALA2        0.0000 
     18 N         206.3100  170.8200  169.1800 N.am      2 ALA2        0.0000 
     19 N         207.1900  171.7300  169.9800 N.am      2 ALA2        0.0000 
     20 N         206.6700  171.5300  173.6100 N.am      2 ALA2        0.0000 
     21 OD1       199.9400  169.3600  169.4300 O.co2     3 ASP3        0.0000 
     22 OD1       198.9100  169.4000  170.5200 O.co2     3 ASP3        0.0000 
     23 OD1       200.1700  171.4700  169.5800 O.co2     3 ASP3        0.0000 
     24 OD1       199.5200  172.6600  168.9300 O.co2     3 ASP3        0.0000 
     25 OD1       200.4400  169.1200  171.9600 O.co2     3 ASP3        0.0000 
     26 OD1       199.1400  171.5000  170.6700 O.co2     3 ASP3        0.0000 
     27 OD1       203.0000  168.8200  172.3100 O.co2     3 ASP3        0.0000 
     28 OD1       201.3200  170.0400  172.7600 O.co2     3 ASP3        0.0000 
     29 OD1       200.3000  170.0700  173.8600 O.co2     3 ASP3        0.0000 
     30 OD1       202.8600  169.7700  174.2000 O.co2     3 ASP3        0.0000 
     31 OD1       201.8300  169.8000  175.3000 O.co2     3 ASP3        0.0000 
     32 OD1       200.5300  172.1800  174.0100 O.co2     3 ASP3        0.0000 
     33 OD1       199.8800  173.3700  173.3600 O.co2     3 ASP3        0.0000 
     34 OD1       200.1600  171.0200  175.7500 O.co2     3 ASP3        0.0000 
     35 OD1       199.5100  172.2100  175.1000 O.co2     3 ASP3        0.0000 
     36 OD1       202.0600  171.9000  175.4500 O.co2     3 ASP3        0.0000 
     37 OD1       201.4100  173.0900  174.8100 O.co2     3 ASP3        0.0000 
     38 OD1       201.0400  171.9400  176.5500 O.co2     3 ASP3        0.0000 
     39 OD1       202.3000  174.0100  175.6000 O.co2     3 ASP3        0.0000 
     40 OD1       201.9200  172.8500  177.3400 O.co2     3 ASP3        0.0000 
     41 NZ        199.7900  170.3100  171.3200 N.4       4 LYS4        0.0000 
     42 NZ        199.4200  169.1600  173.0600 N.4       4 LYS4        0.0000 
     43 NZ        198.1200  171.5400  171.7700 N.4       4 LYS4        0.0000 
     44 NZ        199.6500  171.2600  173.2100 N.4       4 LYS4        0.0000 
     45 NZ        199.0000  172.4500  172.5700 N.4       4 LYS4        0.0000 
     46 NZ        199.2700  170.1100  174.9500 N.4       4 LYS4        0.0000 
     47 CZ        203.8800  169.7300  173.1100 C.ar      5 PHE5        0.0000 
     48 CZ        203.5000  168.5800  174.8500 C.ar      5 PHE5        0.0000 
     49 CZ        204.7600  170.6500  173.9100 C.ar      5 PHE5        0.0000 
     50 CZ        203.7400  170.6800  175.0000 C.ar      5 PHE5        0.0000 
     51 CA        201.8400  170.2400  169.1300 C.3       6 GLY6        0.0000 
     52 CA        201.1900  171.4300  168.4800 C.3       6 GLY6        0.0000 
     53 CA        201.4700  169.0900  170.8700 C.3       6 GLY6        0.0000 
     54 CA        203.1000  172.3100  168.1900 C.3       6 GLY6        0.0000 
     55 CA        202.0800  172.3500  169.2800 C.3       6 GLY6        0.0000 
     56 CA        201.4300  173.5400  168.6400 C.3       6 GLY6        0.0000 
     57 CA        206.9600  169.6300  169.8300 C.3       6 GLY6        0.0000 
     58 CA        204.6300  172.0400  169.6300 C.3       6 GLY6        0.0000 
     59 CA        204.2600  170.8900  171.3700 C.3       6 GLY6        0.0000 
     60 CA        203.6100  172.0700  170.7200 C.3       6 GLY6        0.0000 
     61 CA        203.2300  170.9200  172.4600 C.3       6 GLY6        0.0000 
     62 CA        202.5800  172.1100  171.8200 C.3       6 GLY6        0.0000 
     63 CA        201.9300  173.3000  171.1700 C.3       6 GLY6        0.0000 
     64 CA        201.5600  172.1400  172.9100 C.3       6 GLY6        0.0000 
     65 CA        206.1600  171.7700  171.0700 C.3       6 GLY6        0.0000 
     66 CA        204.1100  171.8400  173.2600 C.3       6 GLY6        0.0000 
     67 CA        203.0900  171.8700  174.3600 C.3       6 GLY6        0.0000 
     68 CA        202.4400  173.0600  173.7100 C.3       6 GLY6        0.0000 
     69 CA        205.6400  171.5600  174.7000 C.3       6 GLY6        0.0000 
     70 CA        204.6200  171.6000  175.8000 C.3       6 GLY6        0.0000 
     71 CA        203.9700  172.7800  175.1500 C.3       6 GLY6        0.0000 
     72 CA        204.8500  173.7000  175.9500 C.3       6 GLY6        0.0000 
     73 CA        205.1200  171.3600  178.3400 C.3       6 GLY6        0.0000 
     74 DU        200.8200  170.2800  170.2200 H         7 CUB7        0.0000 
     75 DU        202.7300  171.1600  169.9300 H         7 CUB7        0.0000 
     76 DU        201.7000  171.1900  171.0200 H         7 CUB7        0.0000 
     77 DU        200.6700  171.2300  172.1200 H         7 CUB7        0.0000 
     78 DU        202.2100  170.9500  173.5600 H         7 CUB7        0.0000 
     79 DU        201.1800  170.9900  174.6500 H         7 CUB7        0.0000 
     80 DU        202.7100  170.7200  176.1000 H         7 CUB7        0.0000 
     81 DU        201.6900  170.7500  177.1900 H         7 CUB7        0.0000 
     82 DU        203.5900  171.6300  176.8900 H         7 CUB7        0.0000 
     83 DU        202.5700  171.6700  177.9900 H         7 CUB7        0.0000 
@<TRIPOS>BOND
@<TRIPOS>SUBSTRUCTURE
     1 SER1        1 GROUP   
     2 ALA2       13 GROUP   
     3 ASP3       21 GROUP   
     4 LYS4       41 GROUP   
     5 PHE5       47 GROUP   
     6 GLY6       51 GROUP   
     7 CUB7       74 GROUP   
@<TRIPOS>SET

