#    Name: 6ef0_2_ATP
#    Modification time : Fri May 22 19:32:30 2020

@<TRIPOS>MOLECULE
6ef0_2_ATP
   31    33     1     0     1
SMALL
NO_CHARGES


@<TRIPOS>ATOM
      1 PG        189.2580  202.6860  160.2470 P.3       1 ATP501      0.0000 
      2 O1G       188.2300  201.7990  159.5920 O.co2     1 ATP501      0.0000 
      3 O2G       188.8790  204.1460  160.2450 O.co2     1 ATP501      0.0000 
      4 O3G       189.7900  202.1760  161.5640 O.co2     1 ATP501      0.0000 
      5 PB        191.4660  203.8170  158.9810 P.3       1 ATP501      0.0000 
      6 O1B       190.5840  204.8740  158.4050 O.co2     1 ATP501      0.0000 
      7 O2B       192.3490  204.0830  160.1720 O.co2     1 ATP501      0.0000 
      8 O3B       190.5060  202.5610  159.2420 O.3       1 ATP501      0.0000 
      9 PA        193.0240  204.3360  156.7970 P.3       1 ATP501      0.0000 
     10 O1A       192.5370  204.1190  155.3920 O.co2     1 ATP501      0.0000 
     11 O2A       192.8340  205.6900  157.4210 O.co2     1 ATP501      0.0000 
     12 O3A       192.3550  203.2620  157.7720 O.3       1 ATP501      0.0000 
     13 O5'       194.5790  203.9730  156.9030 O.3       1 ATP501      0.0000 
     14 C5'       195.3830  204.9460  157.5410 C.3       1 ATP501      0.0000 
     15 C4'       196.8610  204.5890  157.5420 C.3       1 ATP501      0.0000 
     16 O4'       197.4100  204.8630  156.2540 O.3       1 ATP501      0.0000 
     17 C3'       197.6670  205.3990  158.5380 C.3       1 ATP501      0.0000 
     18 O3'       198.4580  204.5350  159.3510 O.3       1 ATP501      0.0000 
     19 C2'       198.5510  206.2930  157.7080 C.3       1 ATP501      0.0000 
     20 O2'       199.8610  206.4170  158.2570 O.3       1 ATP501      0.0000 
     21 C1'       198.6140  205.6230  156.3520 C.3       1 ATP501      0.0000 
     22 N9        198.6800  206.5080  155.1660 N.pl3     1 ATP501      0.0000 
     23 C8        198.6710  205.9780  153.9460 C.2       1 ATP501      0.0000 
     24 N7        198.7450  206.9220  152.9870 N.2       1 ATP501      0.0000 
     25 C5        198.8110  208.0970  153.6090 C.ar      1 ATP501      0.0000 
     26 C6        198.9060  209.4940  153.1790 C.ar      1 ATP501      0.0000 
     27 N6        198.9450  209.7950  151.8690 N.pl3     1 ATP501      0.0000 
     28 N1        198.9460  210.4440  154.1250 N.ar      1 ATP501      0.0000 
     29 C2        198.9180  210.1430  155.4270 C.ar      1 ATP501      0.0000 
     30 N3        198.8340  208.8860  155.8810 N.ar      1 ATP501      0.0000 
     31 C4        198.7820  207.8310  155.0450 C.ar      1 ATP501      0.0000 
@<TRIPOS>BOND
     1    1    2 ar   
     2    1    3 ar   
     3    1    4 ar   
     4    1    8 1    
     5    5    6 ar   
     6    5    7 ar   
     7    5    8 1    
     8    5   12 1    
     9    9   10 ar   
    10    9   11 ar   
    11    9   12 1    
    12    9   13 1    
    13   13   14 1    
    14   14   15 1    
    15   15   16 1    
    16   15   17 1    
    17   16   21 1    
    18   17   18 1    
    19   17   19 1    
    20   19   20 1    
    21   19   21 1    
    22   21   22 1    
    23   22   23 1    
    24   22   31 1    
    25   23   24 2    
    26   24   25 1    
    27   25   26 ar   
    28   25   31 ar   
    29   26   27 1    
    30   26   28 ar   
    31   28   29 ar   
    32   29   30 ar   
    33   30   31 ar   
@<TRIPOS>SUBSTRUCTURE
     1 ATP501      1 GROUP   
@<TRIPOS>SET
ATOM$ORANGE STATIC     ATOMS   COLORGROUP SYSTEM 
20 14 14 15 15 17 17 19 19 21 21 23 23 25 25 26 26 29 \
29 31 31 

