#    Name: 6ef0_5_ADP
#    Modification time : Fri May 22 19:32:54 2020

@<TRIPOS>MOLECULE
6ef0_5_ADP
   27    29     1     0     1
SMALL
NO_CHARGES


@<TRIPOS>ATOM
      1 PB        146.2180  156.5440  154.5310 P.3       1 ADP501      0.0000 
      2 O1B       146.8050  155.8000  153.3600 O.co2     1 ADP501      0.0000 
      3 O2B       147.1160  156.7000  155.7300 O.co2     1 ADP501      0.0000 
      4 O3B       145.4360  157.7760  154.1580 O.co2     1 ADP501      0.0000 
      5 PA        144.3770  155.9550  156.4100 P.3       1 ADP501      0.0000 
      6 O1A       144.7170  157.4010  156.6540 O.co2     1 ADP501      0.0000 
      7 O2A       144.7200  154.9310  157.4520 O.co2     1 ADP501      0.0000 
      8 O3A       145.0960  155.5370  155.0510 O.3       1 ADP501      0.0000 
      9 O5'       142.8390  155.8450  155.9700 O.3       1 ADP501      0.0000 
     10 C5'       141.9970  156.9760  156.1320 C.3       1 ADP501      0.0000 
     11 C4'       140.7000  156.7910  155.3470 C.3       1 ADP501      0.0000 
     12 O4'       140.8200  155.6620  154.4730 O.3       1 ADP501      0.0000 
     13 C3'       139.4580  156.5830  156.1860 C.3       1 ADP501      0.0000 
     14 O3'       138.4620  157.5110  155.7630 O.3       1 ADP501      0.0000 
     15 C2'       139.0440  155.1590  155.9100 C.3       1 ADP501      0.0000 
     16 O2'       137.6250  155.0220  155.8400 O.3       1 ADP501      0.0000 
     17 C1'       139.7080  154.7780  154.5960 C.3       1 ADP501      0.0000 
     18 N9        140.2180  153.3930  154.6160 N.pl3     1 ADP501      0.0000 
     19 C8        141.3700  153.0070  154.0580 C.2       1 ADP501      0.0000 
     20 N7        141.5760  151.6860  154.2280 N.2       1 ADP501      0.0000 
     21 C5        140.5450  151.2140  154.9200 C.ar      1 ADP501      0.0000 
     22 C6        140.1640  149.9010  155.4370 C.ar      1 ADP501      0.0000 
     23 N6        140.9870  148.8610  155.2130 N.pl3     1 ADP501      0.0000 
     24 N1        139.0040  149.8010  156.1080 N.ar      1 ADP501      0.0000 
     25 C2        138.2150  150.8740  156.3070 C.ar      1 ADP501      0.0000 
     26 N3        138.5140  152.1040  155.8590 N.ar      1 ADP501      0.0000 
     27 C4        139.6420  152.3280  155.1640 C.ar      1 ADP501      0.0000 
@<TRIPOS>BOND
     1    1    2 ar   
     2    1    3 ar   
     3    1    4 ar   
     4    1    8 1    
     5    5    6 ar   
     6    5    7 ar   
     7    5    8 1    
     8    5    9 1    
     9    9   10 1    
    10   10   11 1    
    11   11   12 1    
    12   11   13 1    
    13   12   17 1    
    14   13   14 1    
    15   13   15 1    
    16   15   16 1    
    17   15   17 1    
    18   17   18 1    
    19   18   19 1    
    20   18   27 1    
    21   19   20 2    
    22   20   21 1    
    23   21   22 ar   
    24   21   27 ar   
    25   22   23 1    
    26   22   24 ar   
    27   24   25 ar   
    28   25   26 ar   
    29   26   27 ar   
@<TRIPOS>SUBSTRUCTURE
     1 ADP501      1 GROUP   
@<TRIPOS>SET
ATOM$ORANGE STATIC     ATOMS   COLORGROUP SYSTEM 
20 10 10 11 11 13 13 15 15 17 17 19 19 21 21 22 22 25 \
25 27 27 

