#    Name: 6ef0_6_ADP
#    Modification time : Fri May 22 19:33:03 2020

@<TRIPOS>MOLECULE
6ef0_6_ADP
   27    29     1     0     1
SMALL
NO_CHARGES


@<TRIPOS>ATOM
      1 PB        138.3380  186.9940  144.9730 P.3       1 ADP501      0.0000 
      2 O1B       139.5810  186.3770  144.3840 O.co2     1 ADP501      0.0000 
      3 O2B       137.7350  186.2530  146.1380 O.co2     1 ADP501      0.0000 
      4 O3B       138.4120  188.4880  145.1540 O.co2     1 ADP501      0.0000 
      5 PA        135.7410  187.2970  144.1540 P.3       1 ADP501      0.0000 
      6 O1A       134.8170  186.1140  144.0440 O.co2     1 ADP501      0.0000 
      7 O2A       135.7820  188.1280  145.4080 O.co2     1 ADP501      0.0000 
      8 O3A       137.2320  186.8100  143.8300 O.3       1 ADP501      0.0000 
      9 O5'       135.4890  188.2790  142.9080 O.3       1 ADP501      0.0000 
     10 C5'       134.2810  189.0160  142.7770 C.3       1 ADP501      0.0000 
     11 C4'       134.5330  190.2870  141.9860 C.3       1 ADP501      0.0000 
     12 O4'       135.0180  189.9210  140.6970 O.3       1 ADP501      0.0000 
     13 C3'       133.2450  191.0510  141.7780 C.3       1 ADP501      0.0000 
     14 O3'       133.5020  192.4550  141.7340 O.3       1 ADP501      0.0000 
     15 C2'       132.7430  190.5300  140.4550 C.3       1 ADP501      0.0000 
     16 O2'       132.0150  191.5070  139.7080 O.3       1 ADP501      0.0000 
     17 C1'       134.0060  190.1360  139.7170 C.3       1 ADP501      0.0000 
     18 N9        133.8070  188.8950  138.9500 N.pl3     1 ADP501      0.0000 
     19 C8        134.6610  187.8640  138.9320 C.2       1 ADP501      0.0000 
     20 N7        134.2000  186.8810  138.1260 N.2       1 ADP501      0.0000 
     21 C5        133.0370  187.2980  137.6060 C.ar      1 ADP501      0.0000 
     22 C6        132.0340  186.7540  136.6770 C.ar      1 ADP501      0.0000 
     23 N6        132.2010  185.5290  136.1380 N.pl3     1 ADP501      0.0000 
     24 N1        130.9520  187.5060  136.4010 N.ar      1 ADP501      0.0000 
     25 C2        130.7800  188.7230  136.9390 C.ar      1 ADP501      0.0000 
     26 N3        131.6580  189.2800  137.7880 N.ar      1 ADP501      0.0000 
     27 C4        132.7850  188.6300  138.1450 C.ar      1 ADP501      0.0000 
@<TRIPOS>BOND
     1    1    2 ar   
     2    1    3 ar   
     3    1    4 ar   
     4    1    8 1    
     5    5    6 ar   
     6    5    7 ar   
     7    5    8 1    
     8    5    9 1    
     9    9   10 1    
    10   10   11 1    
    11   11   12 1    
    12   11   13 1    
    13   12   17 1    
    14   13   14 1    
    15   13   15 1    
    16   15   16 1    
    17   15   17 1    
    18   17   18 1    
    19   18   19 1    
    20   18   27 1    
    21   19   20 2    
    22   20   21 1    
    23   21   22 ar   
    24   21   27 ar   
    25   22   23 1    
    26   22   24 ar   
    27   24   25 ar   
    28   25   26 ar   
    29   26   27 ar   
@<TRIPOS>SUBSTRUCTURE
     1 ADP501      1 GROUP   
@<TRIPOS>SET
ATOM$ORANGE STATIC     ATOMS   COLORGROUP SYSTEM 
20 10 10 11 11 13 13 15 15 17 17 19 19 21 21 22 22 25 \
25 27 27 

