#    Name: 6ef0_1_ADP
#    Modification time : Fri May 22 19:32:21 2020

@<TRIPOS>MOLECULE
6ef0_1_ADP
   27    29     1     0     1
SMALL
NO_CHARGES


@<TRIPOS>ATOM
      1 PB        158.5240  211.1660  147.9820 P.3       1 ADP501      0.0000 
      2 O1B       158.0770  210.9030  146.5650 O.co2     1 ADP501      0.0000 
      3 O2B       157.4040  211.3700  148.9700 O.co2     1 ADP501      0.0000 
      4 O3B       159.6120  210.2320  148.4450 O.co2     1 ADP501      0.0000 
      5 PA        158.3880  213.8820  147.4410 P.3       1 ADP501      0.0000 
      6 O1A       157.4490  213.4670  146.3350 O.co2     1 ADP501      0.0000 
      7 O2A       157.8230  214.5020  148.6920 O.co2     1 ADP501      0.0000 
      8 O3A       159.2460  212.6010  147.8970 O.3       1 ADP501      0.0000 
      9 O5'       159.4340  214.9380  146.8410 O.3       1 ADP501      0.0000 
     10 C5'       159.3120  215.3480  145.4870 C.3       1 ADP501      0.0000 
     11 C4'       160.5730  216.0930  145.0800 C.3       1 ADP501      0.0000 
     12 O4'       160.7860  215.9390  143.6740 O.3       1 ADP501      0.0000 
     13 C3'       160.5390  217.5810  145.3800 C.3       1 ADP501      0.0000 
     14 O3'       161.6550  217.9390  146.2000 O.3       1 ADP501      0.0000 
     15 C2'       160.6180  218.2580  144.0280 C.3       1 ADP501      0.0000 
     16 O2'       161.5360  219.3570  144.0340 O.3       1 ADP501      0.0000 
     17 C1'       161.1090  217.1900  143.0650 C.3       1 ADP501      0.0000 
     18 N9        160.5090  217.2100  141.7080 N.pl3     1 ADP501      0.0000 
     19 C8        160.4860  216.1220  140.9260 C.2       1 ADP501      0.0000 
     20 N7        159.9150  216.3870  139.7300 N.2       1 ADP501      0.0000 
     21 C5        159.5660  217.6790  139.7390 C.ar      1 ADP501      0.0000 
     22 C6        158.9130  218.5980  138.7910 C.ar      1 ADP501      0.0000 
     23 N6        158.5180  218.1680  137.5760 N.pl3     1 ADP501      0.0000 
     24 N1        158.7260  219.8740  139.1760 N.ar      1 ADP501      0.0000 
     25 C2        159.1150  220.3150  140.3830 C.ar      1 ADP501      0.0000 
     26 N3        159.7140  219.5280  141.2920 N.ar      1 ADP501      0.0000 
     27 C4        159.9690  218.2270  141.0360 C.ar      1 ADP501      0.0000 
@<TRIPOS>BOND
     1    1    2 ar   
     2    1    3 ar   
     3    1    4 ar   
     4    1    8 1    
     5    5    6 ar   
     6    5    7 ar   
     7    5    8 1    
     8    5    9 1    
     9    9   10 1    
    10   10   11 1    
    11   11   12 1    
    12   11   13 1    
    13   12   17 1    
    14   13   14 1    
    15   13   15 1    
    16   15   16 1    
    17   15   17 1    
    18   17   18 1    
    19   18   19 1    
    20   18   27 1    
    21   19   20 2    
    22   20   21 1    
    23   21   22 ar   
    24   21   27 ar   
    25   22   23 1    
    26   22   24 ar   
    27   24   25 ar   
    28   25   26 ar   
    29   26   27 ar   
@<TRIPOS>SUBSTRUCTURE
     1 ADP501      1 GROUP   
@<TRIPOS>SET
ATOM$ORANGE STATIC     ATOMS   COLORGROUP SYSTEM 
20 10 10 11 11 13 13 15 15 17 17 19 19 21 21 22 22 25 \
25 27 27 

