#    Name: 5z6f_1_FOL
#    Modification time : Fri May 22 19:26:45 2020

@<TRIPOS>MOLECULE
5z6f_1_FOL
   32    34     1     0     0
SMALL
NO_CHARGES


@<TRIPOS>ATOM
      1 N1          3.7310    4.2100   12.3440 N.pl3     1 FOL201      0.0000 
      2 C2          2.9040    5.2570   12.4080 C.2       1 FOL201      0.0000 
      3 NA2         3.3810    6.4910   12.7350 N.pl3     1 FOL201      0.0000 
      4 N3          1.5720    5.1360   12.1610 N.2       1 FOL201      0.0000 
      5 C4          0.9830    3.9700   11.8370 C.2       1 FOL201      0.0000 
      6 O4         -0.2470    3.8990   11.6100 O.2       1 FOL201      0.0000 
      7 C4A         1.8520    2.7770   11.7280 C.ar      1 FOL201      0.0000 
      8 N5          1.3630    1.5710   11.3810 N.ar      1 FOL201      0.0000 
      9 C6          2.2210    0.5310   11.2950 C.ar      1 FOL201      0.0000 
     10 C7          3.5770    0.7180   11.5730 C.ar      1 FOL201      0.0000 
     11 N8          4.0910    1.9100   11.9180 N.ar      1 FOL201      0.0000 
     12 C8A         3.2860    2.9810   12.0020 C.ar      1 FOL201      0.0000 
     13 C9          1.7160   -0.8380   10.9020 C.3       1 FOL201      0.0000 
     14 N10         0.4650   -0.7680   10.1360 N.pl3     1 FOL201      0.0000 
     15 C11        -0.2560    1.1620    6.5050 C.ar      1 FOL201      0.0000 
     16 C12        -1.2870    0.5570    7.2230 C.ar      1 FOL201      0.0000 
     17 C13        -1.0220   -0.0820    8.4340 C.ar      1 FOL201      0.0000 
     18 C14         0.2760   -0.1360    8.9480 C.ar      1 FOL201      0.0000 
     19 C15         1.3120    0.4730    8.2350 C.ar      1 FOL201      0.0000 
     20 C16         1.0430    1.1200    7.0210 C.ar      1 FOL201      0.0000 
     21 C          -0.5510    1.8530    5.1980 C.2       1 FOL201      0.0000 
     22 O          -1.5850    1.6110    4.5920 O.2       1 FOL201      0.0000 
     23 N           0.3140    2.7290    4.6950 N.am      1 FOL201      0.0000 
     24 CA          0.2990    3.0180    3.2720 C.3       1 FOL201      0.0000 
     25 CB         -0.6790    4.1490    2.9710 C.3       1 FOL201      0.0000 
     26 CG         -0.2330    5.4560    3.6090 C.3       1 FOL201      0.0000 
     27 CD         -1.3230    6.5030    3.4410 C.2       1 FOL201      0.0000 
     28 OE1        -1.0640    7.6940    3.6960 O.co2     1 FOL201      0.0000 
     29 OE2        -2.4540    6.1540    3.0460 O.co2     1 FOL201      0.0000 
     30 CT          1.6630    3.4100    2.8090 C.2       1 FOL201      0.0000 
     31 O1          2.5390    3.6400    3.6660 O.co2     1 FOL201      0.0000 
     32 O2          1.8800    3.5220    1.5930 O.co2     1 FOL201      0.0000 
@<TRIPOS>BOND
     1    1    2 1    
     2    1   12 1    
     3    2    3 1    
     4    2    4 2    
     5    4    5 1    
     6    5    6 2    
     7    5    7 1    
     8    7    8 ar   
     9    7   12 ar   
    10    8    9 ar   
    11    9   10 ar   
    12    9   13 1    
    13   10   11 ar   
    14   11   12 ar   
    15   13   14 1    
    16   14   18 1    
    17   15   16 ar   
    18   15   20 ar   
    19   15   21 1    
    20   16   17 ar   
    21   17   18 ar   
    22   18   19 ar   
    23   19   20 ar   
    24   21   22 2    
    25   21   23 am   
    26   23   24 1    
    27   24   25 1    
    28   24   30 1    
    29   25   26 1    
    30   26   27 1    
    31   27   28 ar   
    32   27   29 ar   
    33   30   31 ar   
    34   30   32 ar   
@<TRIPOS>SUBSTRUCTURE
     1 FOL201      1 GROUP   
@<TRIPOS>SET

