#    Name: 6aei_1_Y01
#    Modification time : Fri May 22 19:32:27 2020

@<TRIPOS>MOLECULE
6aei_1_Y01
   35    38     1     0     0
SMALL
NO_CHARGES


@<TRIPOS>ATOM
      1 CAA       147.7880  134.6630  186.0220 C.3       1 Y01803      0.0000 
      2 CBA       147.6490  135.0550  184.5540 C.3       1 Y01803      0.0000 
      3 CAB       146.1730  135.0210  184.1600 C.3       1 Y01803      0.0000 
      4 CAN       148.4480  134.0820  183.6850 C.3       1 Y01803      0.0000 
      5 CAJ       147.7720  132.7070  183.6850 C.3       1 Y01803      0.0000 
      6 CAO       148.8330  131.6130  183.6700 C.3       1 Y01803      0.0000 
      7 CBB       148.4450  130.5690  182.6340 C.3       1 Y01803      0.0000 
      8 CAC       147.0710  130.0260  182.9980 C.3       1 Y01803      0.0000 
      9 CBE       148.3790  131.1930  181.2350 C.3       1 Y01803      0.0000 
     10 CAP       149.5390  132.1730  180.9650 C.3       1 Y01803      0.0000 
     11 CAQ       149.7980  132.0590  179.4580 C.3       1 Y01803      0.0000 
     12 CBG       148.6900  131.1180  179.0090 C.3       1 Y01803      0.0000 
     13 CBI       148.6030  130.1730  180.1620 C.3       1 Y01803      0.0000 
     14 CAE       149.8920  129.3760  180.3940 C.3       1 Y01803      0.0000 
     15 CAU       147.4620  129.2180  179.9170 C.3       1 Y01803      0.0000 
     16 CAS       147.8240  128.3710  178.7020 C.3       1 Y01803      0.0000 
     17 CBF       148.0270  129.2590  177.4840 C.3       1 Y01803      0.0000 
     18 CBD       149.0670  130.3460  177.7720 C.3       1 Y01803      0.0000 
     19 CAK       149.1470  131.2780  176.5460 C.3       1 Y01803      0.0000 
     20 CAI       149.1540  130.6410  175.2890 C.2       1 Y01803      0.0000 
     21 CAZ       148.8700  129.2790  175.1500 C.2       1 Y01803      0.0000 
     22 CAV       148.8630  128.7270  173.8750 C.3       1 Y01803      0.0000 
     23 CBH       148.5790  128.4460  176.2770 C.3       1 Y01803      0.0000 
     24 CAD       149.8900  127.8230  176.7390 C.3       1 Y01803      0.0000 
     25 CAT       147.6370  127.2530  175.9540 C.3       1 Y01803      0.0000 
     26 CAR       146.7380  127.4660  174.6970 C.3       1 Y01803      0.0000 
     27 CBC       147.3990  128.4160  173.6260 C.3       1 Y01803      0.0000 
     28 OAW       147.2780  127.8200  172.3320 O.3       1 Y01803      0.0000 
     29 CAY       146.7880  128.6350  171.3600 C.2       1 Y01803      0.0000 
     30 OAG       146.6400  129.8510  171.4710 O.2       1 Y01803      0.0000 
     31 CAM       146.4180  127.9340  170.0580 C.3       1 Y01803      0.0000 
     32 CAL       147.3140  126.7130  169.8690 C.3       1 Y01803      0.0000 
     33 CAX       147.3180  126.2970  168.4050 C.2       1 Y01803      0.0000 
     34 OAH       148.4240  126.0080  167.9140 O.co2     1 Y01803      0.0000 
     35 OAF       146.2260  126.2740  167.8050 O.co2     1 Y01803      0.0000 
@<TRIPOS>BOND
     1    1    2 1    
     2    2    3 1    
     3    2    4 1    
     4    4    5 1    
     5    5    6 1    
     6    6    7 1    
     7    7    8 1    
     8    7    9 1    
     9    9   10 1    
    10    9   13 1    
    11   10   11 1    
    12   11   12 1    
    13   12   13 1    
    14   12   18 1    
    15   13   14 1    
    16   13   15 1    
    17   15   16 1    
    18   16   17 1    
    19   17   18 1    
    20   17   23 1    
    21   18   19 1    
    22   19   20 1    
    23   20   21 2    
    24   21   22 1    
    25   21   23 1    
    26   22   27 1    
    27   23   24 1    
    28   23   25 1    
    29   25   26 1    
    30   26   27 1    
    31   27   28 1    
    32   28   29 1    
    33   29   30 2    
    34   29   31 1    
    35   31   32 1    
    36   32   33 1    
    37   33   34 ar   
    38   33   35 ar   
@<TRIPOS>SUBSTRUCTURE
     1 Y01803      1 GROUP   
@<TRIPOS>SET

