#    Name: 6aei_3_Y01
#    Modification time : Fri May 22 19:33:07 2020

@<TRIPOS>MOLECULE
6aei_3_Y01
   35    38     1     0     0
SMALL
NO_CHARGES


@<TRIPOS>ATOM
      1 CAA       166.7940  181.1420  185.6490 C.3       1 Y01802      0.0000 
      2 CBA       166.9250  180.7300  184.1860 C.3       1 Y01802      0.0000 
      3 CAB       168.3990  180.7570  183.7820 C.3       1 Y01802      0.0000 
      4 CAN       166.1210  181.6900  183.3070 C.3       1 Y01802      0.0000 
      5 CAJ       166.7970  183.0640  183.2830 C.3       1 Y01802      0.0000 
      6 CAO       165.7370  184.1590  183.2580 C.3       1 Y01802      0.0000 
      7 CBB       166.1180  185.1870  182.2050 C.3       1 Y01802      0.0000 
      8 CAC       167.4940  185.7360  182.5540 C.3       1 Y01802      0.0000 
      9 CBE       166.1760  184.5430  180.8150 C.3       1 Y01802      0.0000 
     10 CAP       165.0150  183.5600  180.5670 C.3       1 Y01802      0.0000 
     11 CAQ       164.7470  183.6520  179.0600 C.3       1 Y01802      0.0000 
     12 CBG       165.8520  184.5880  178.5900 C.3       1 Y01802      0.0000 
     13 CBI       165.9460  185.5480  179.7290 C.3       1 Y01802      0.0000 
     14 CAE       164.6580  186.3480  179.9570 C.3       1 Y01802      0.0000 
     15 CAU       167.0860  186.5000  179.4650 C.3       1 Y01802      0.0000 
     16 CAS       166.7160  187.3300  178.2400 C.3       1 Y01802      0.0000 
     17 CBF       166.5070  186.4230  177.0360 C.3       1 Y01802      0.0000 
     18 CBD       165.4690  185.3410  177.3450 C.3       1 Y01802      0.0000 
     19 CAK       165.3800  184.3930  176.1320 C.3       1 Y01802      0.0000 
     20 CAI       165.3670  185.0110  174.8660 C.2       1 Y01802      0.0000 
     21 CAZ       165.6490  186.3700  174.7070 C.2       1 Y01802      0.0000 
     22 CAV       165.6490  186.9050  173.4250 C.3       1 Y01802      0.0000 
     23 CBH       165.9480  187.2190  175.8210 C.3       1 Y01802      0.0000 
     24 CAD       164.6380  187.8500  176.2810 C.3       1 Y01802      0.0000 
     25 CAT       166.8870  188.4090  175.4740 C.3       1 Y01802      0.0000 
     26 CAR       167.7800  188.1780  174.2160 C.3       1 Y01802      0.0000 
     27 CBC       167.1120  187.2120  173.1610 C.3       1 Y01802      0.0000 
     28 OAW       167.2270  187.7890  171.8590 O.3       1 Y01802      0.0000 
     29 CAY       167.7100  186.9610  170.8950 C.2       1 Y01802      0.0000 
     30 OAG       167.8580  185.7470  171.0230 O.2       1 Y01802      0.0000 
     31 CAM       168.0720  187.6430  169.5820 C.3       1 Y01802      0.0000 
     32 CAL       167.1760  188.8610  169.3800 C.3       1 Y01802      0.0000 
     33 CAX       167.1630  189.2570  167.9120 C.2       1 Y01802      0.0000 
     34 OAH       166.0540  189.5380  167.4220 O.co2     1 Y01802      0.0000 
     35 OAF       168.2520  189.2700  167.3050 O.co2     1 Y01802      0.0000 
@<TRIPOS>BOND
     1    1    2 1    
     2    2    3 1    
     3    2    4 1    
     4    4    5 1    
     5    5    6 1    
     6    6    7 1    
     7    7    8 1    
     8    7    9 1    
     9    9   10 1    
    10    9   13 1    
    11   10   11 1    
    12   11   12 1    
    13   12   13 1    
    14   12   18 1    
    15   13   14 1    
    16   13   15 1    
    17   15   16 1    
    18   16   17 1    
    19   17   18 1    
    20   17   23 1    
    21   18   19 1    
    22   19   20 1    
    23   20   21 2    
    24   21   22 1    
    25   21   23 1    
    26   22   27 1    
    27   23   24 1    
    28   23   25 1    
    29   25   26 1    
    30   26   27 1    
    31   27   28 1    
    32   28   29 1    
    33   29   30 2    
    34   29   31 1    
    35   31   32 1    
    36   32   33 1    
    37   33   34 ar   
    38   33   35 ar   
@<TRIPOS>SUBSTRUCTURE
     1 Y01802      1 GROUP   
@<TRIPOS>SET

