#    Name: 6aei_4_Y01
#    Modification time : Fri May 22 19:33:27 2020

@<TRIPOS>MOLECULE
6aei_4_Y01
   35    38     1     0     0
SMALL
NO_CHARGES


@<TRIPOS>ATOM
      1 CAA       134.0530  167.4080  185.8400 C.3       1 Y01802      0.0000 
      2 CBA       134.4500  167.5330  184.3720 C.3       1 Y01802      0.0000 
      3 CAB       134.4190  169.0050  183.9620 C.3       1 Y01802      0.0000 
      4 CAN       133.4810  166.7250  183.5060 C.3       1 Y01802      0.0000 
      5 CAJ       132.1070  167.4010  183.4930 C.3       1 Y01802      0.0000 
      6 CAO       131.0120  166.3410  183.4840 C.3       1 Y01802      0.0000 
      7 CBB       129.9740  166.7170  182.4390 C.3       1 Y01802      0.0000 
      8 CAC       129.4280  168.0950  182.7880 C.3       1 Y01802      0.0000 
      9 CBE       130.6040  166.7700  181.0430 C.3       1 Y01802      0.0000 
     10 CAP       131.5840  165.6070  180.7890 C.3       1 Y01802      0.0000 
     11 CAQ       131.4770  165.3330  179.2840 C.3       1 Y01802      0.0000 
     12 CBG       130.5370  166.4360  178.8190 C.3       1 Y01802      0.0000 
     13 CBI       129.5880  166.5350  179.9670 C.3       1 Y01802      0.0000 
     14 CAE       128.7900  165.2480  180.2090 C.3       1 Y01802      0.0000 
     15 CAU       128.6330  167.6730  179.7080 C.3       1 Y01802      0.0000 
     16 CAS       127.7910  167.2990  178.4930 C.3       1 Y01802      0.0000 
     17 CBF       128.6860  167.0840  177.2810 C.3       1 Y01802      0.0000 
     18 CBD       129.7710  166.0470  177.5830 C.3       1 Y01802      0.0000 
     19 CAK       130.7070  165.9540  176.3610 C.3       1 Y01802      0.0000 
     20 CAI       130.0770  165.9350  175.1020 C.2       1 Y01802      0.0000 
     21 CAZ       128.7160  166.2170  174.9550 C.2       1 Y01802      0.0000 
     22 CAV       128.1680  166.2110  173.6780 C.3       1 Y01802      0.0000 
     23 CBH       127.8780  166.5200  176.0760 C.3       1 Y01802      0.0000 
     24 CAD       127.2510  165.2120  176.5480 C.3       1 Y01802      0.0000 
     25 CAT       126.6850  167.4580  175.7370 C.3       1 Y01802      0.0000 
     26 CAR       126.9030  168.3450  174.4730 C.3       1 Y01802      0.0000 
     27 CBC       127.8580  167.6730  173.4120 C.3       1 Y01802      0.0000 
     28 OAW       127.2680  167.7820  172.1150 O.3       1 Y01802      0.0000 
     29 CAY       128.0870  168.2610  171.1410 C.2       1 Y01802      0.0000 
     30 OAG       129.3020  168.4100  171.2550 O.2       1 Y01802      0.0000 
     31 CAM       127.3920  168.6180  169.8320 C.3       1 Y01802      0.0000 
     32 CAL       126.1710  167.7200  169.6470 C.3       1 Y01802      0.0000 
     33 CAX       125.7610  167.7010  168.1820 C.2       1 Y01802      0.0000 
     34 OAH       124.8390  166.9240  167.8740 O.co2     1 Y01802      0.0000 
     35 OAF       126.3720  168.4560  167.4000 O.co2     1 Y01802      0.0000 
@<TRIPOS>BOND
     1    1    2 1    
     2    2    3 1    
     3    2    4 1    
     4    4    5 1    
     5    5    6 1    
     6    6    7 1    
     7    7    8 1    
     8    7    9 1    
     9    9   10 1    
    10    9   13 1    
    11   10   11 1    
    12   11   12 1    
    13   12   13 1    
    14   12   18 1    
    15   13   14 1    
    16   13   15 1    
    17   15   16 1    
    18   16   17 1    
    19   17   18 1    
    20   17   23 1    
    21   18   19 1    
    22   19   20 1    
    23   20   21 2    
    24   21   22 1    
    25   21   23 1    
    26   22   27 1    
    27   23   24 1    
    28   23   25 1    
    29   25   26 1    
    30   26   27 1    
    31   27   28 1    
    32   28   29 1    
    33   29   30 2    
    34   29   31 1    
    35   31   32 1    
    36   32   33 1    
    37   33   34 ar   
    38   33   35 ar   
@<TRIPOS>SUBSTRUCTURE
     1 Y01802      1 GROUP   
@<TRIPOS>SET

