#    Name: 6aei_2_Y01
#    Modification time : Fri May 22 19:32:47 2020

@<TRIPOS>MOLECULE
6aei_2_Y01
   35    38     1     0     0
SMALL
NO_CHARGES


@<TRIPOS>ATOM
      1 CAA       180.5290  148.4010  185.8440 C.3       1 Y01802      0.0000 
      2 CBA       180.1230  148.2550  184.3800 C.3       1 Y01802      0.0000 
      3 CAB       180.1520  146.7770  183.9920 C.3       1 Y01802      0.0000 
      4 CAN       181.0870  149.0510  183.4980 C.3       1 Y01802      0.0000 
      5 CAJ       182.4610  148.3740  183.4870 C.3       1 Y01802      0.0000 
      6 CAO       183.5560  149.4340  183.4560 C.3       1 Y01802      0.0000 
      7 CBB       184.5880  149.0430  182.4110 C.3       1 Y01802      0.0000 
      8 CAC       185.1360  147.6700  182.7760 C.3       1 Y01802      0.0000 
      9 CBE       183.9500  148.9700  181.0190 C.3       1 Y01802      0.0000 
     10 CAP       182.9680  150.1290  180.7550 C.3       1 Y01802      0.0000 
     11 CAQ       183.0670  150.3820  179.2450 C.3       1 Y01802      0.0000 
     12 CBG       184.0050  149.2730  178.7910 C.3       1 Y01802      0.0000 
     13 CBI       184.9600  149.1900  179.9350 C.3       1 Y01802      0.0000 
     14 CAE       185.7590  150.4800  180.1530 C.3       1 Y01802      0.0000 
     15 CAU       185.9140  148.0480  179.6860 C.3       1 Y01802      0.0000 
     16 CAS       186.7490  148.4050  178.4610 C.3       1 Y01802      0.0000 
     17 CBF       185.8470  148.6020  177.2510 C.3       1 Y01802      0.0000 
     18 CBD       184.7640  149.6430  177.5450 C.3       1 Y01802      0.0000 
     19 CAK       183.8200  149.7200  176.3270 C.3       1 Y01802      0.0000 
     20 CAI       184.4440  149.7200  175.0640 C.2       1 Y01802      0.0000 
     21 CAZ       185.8040  149.4370  174.9130 C.2       1 Y01802      0.0000 
     22 CAV       186.3440  149.4240  173.6340 C.3       1 Y01802      0.0000 
     23 CBH       186.6480  149.1500  176.0340 C.3       1 Y01802      0.0000 
     24 CAD       187.2770  150.4640  176.4840 C.3       1 Y01802      0.0000 
     25 CAT       187.8390  148.2070  175.7010 C.3       1 Y01802      0.0000 
     26 CAR       187.6140  147.3010  174.4510 C.3       1 Y01802      0.0000 
     27 CBC       186.6530  147.9590  173.3860 C.3       1 Y01802      0.0000 
     28 OAW       187.2350  147.8310  172.0880 O.3       1 Y01802      0.0000 
     29 CAY       186.4110  147.3380  171.1250 C.2       1 Y01802      0.0000 
     30 OAG       185.1970  147.1910  171.2490 O.2       1 Y01802      0.0000 
     31 CAM       187.0990  146.9630  169.8180 C.3       1 Y01802      0.0000 
     32 CAL       188.3180  147.8580  169.6130 C.3       1 Y01802      0.0000 
     33 CAX       188.7200  147.8560  168.1460 C.2       1 Y01802      0.0000 
     34 OAH       189.7800  148.4400  167.8590 O.co2     1 Y01802      0.0000 
     35 OAF       187.9660  147.2760  167.3390 O.co2     1 Y01802      0.0000 
@<TRIPOS>BOND
     1    1    2 1    
     2    2    3 1    
     3    2    4 1    
     4    4    5 1    
     5    5    6 1    
     6    6    7 1    
     7    7    8 1    
     8    7    9 1    
     9    9   10 1    
    10    9   13 1    
    11   10   11 1    
    12   11   12 1    
    13   12   13 1    
    14   12   18 1    
    15   13   14 1    
    16   13   15 1    
    17   15   16 1    
    18   16   17 1    
    19   17   18 1    
    20   17   23 1    
    21   18   19 1    
    22   19   20 1    
    23   20   21 2    
    24   21   22 1    
    25   21   23 1    
    26   22   27 1    
    27   23   24 1    
    28   23   25 1    
    29   25   26 1    
    30   26   27 1    
    31   27   28 1    
    32   28   29 1    
    33   29   30 2    
    34   29   31 1    
    35   31   32 1    
    36   32   33 1    
    37   33   34 ar   
    38   33   35 ar   
@<TRIPOS>SUBSTRUCTURE
     1 Y01802      1 GROUP   
@<TRIPOS>SET

