#    Name: 6gfk_1_SAH
#    Modification time : Fri May 22 19:26:52 2020

@<TRIPOS>MOLECULE
6gfk_1_SAH
   26    28     1     0     0
SMALL
NO_CHARGES


@<TRIPOS>ATOM
      1 N         -24.2280   38.1000  -11.8130 N.4       1 SAH301      0.0000 
      2 CA        -23.6280   37.5770  -13.0610 C.3       1 SAH301      0.0000 
      3 CB        -24.5360   36.5900  -13.8980 C.3       1 SAH301      0.0000 
      4 CG        -25.8940   37.2070  -14.2190 C.3       1 SAH301      0.0000 
      5 SD        -26.8270   36.1510  -15.3600 S.3       1 SAH301      0.0000 
      6 C         -23.1800   38.8430  -13.8810 C.2       1 SAH301      0.0000 
      7 O         -22.4150   38.5620  -14.8970 O.co2     1 SAH301      0.0000 
      8 OXT       -23.5260   39.9680  -13.5960 O.co2     1 SAH301      0.0000 
      9 C5'       -28.1690   35.5220  -14.3170 C.3       1 SAH301      0.0000 
     10 C4'       -27.7500   34.2820  -13.5540 C.3       1 SAH301      0.0000 
     11 O4'       -28.7490   33.9550  -12.5690 O.3       1 SAH301      0.0000 
     12 C3'       -27.4980   33.0030  -14.3660 C.3       1 SAH301      0.0000 
     13 O3'       -26.1760   32.5410  -14.1070 O.3       1 SAH301      0.0000 
     14 C2'       -28.5650   32.0220  -13.8550 C.3       1 SAH301      0.0000 
     15 O2'       -28.1310   30.6620  -13.8340 O.3       1 SAH301      0.0000 
     16 C1'       -28.8040   32.5500  -12.4440 C.3       1 SAH301      0.0000 
     17 N9        -30.0790   32.1840  -11.8210 N.pl3     1 SAH301      0.0000 
     18 C8        -31.2990   32.0410  -12.4300 C.2       1 SAH301      0.0000 
     19 N7        -32.2880   31.8120  -11.6000 N.2       1 SAH301      0.0000 
     20 C5        -31.6780   31.8040  -10.3550 C.ar      1 SAH301      0.0000 
     21 C6        -32.1840   31.6410   -9.0450 C.ar      1 SAH301      0.0000 
     22 N6        -33.4740   31.4530   -8.7650 N.pl3     1 SAH301      0.0000 
     23 N1        -31.3000   31.6770   -8.0200 N.ar      1 SAH301      0.0000 
     24 C2        -30.0020   31.8560   -8.2920 C.ar      1 SAH301      0.0000 
     25 N3        -29.4150   32.0380   -9.4790 N.ar      1 SAH301      0.0000 
     26 C4        -30.3130   32.0120  -10.4760 C.ar      1 SAH301      0.0000 
@<TRIPOS>BOND
     1    1    2 1    
     2    2    3 1    
     3    2    6 1    
     4    3    4 1    
     5    4    5 1    
     6    5    9 1    
     7    6    7 ar   
     8    6    8 ar   
     9    9   10 1    
    10   10   11 1    
    11   10   12 1    
    12   11   16 1    
    13   12   13 1    
    14   12   14 1    
    15   14   15 1    
    16   14   16 1    
    17   16   17 1    
    18   17   18 1    
    19   17   26 1    
    20   18   19 2    
    21   19   20 1    
    22   20   21 ar   
    23   20   26 ar   
    24   21   22 1    
    25   21   23 ar   
    26   23   24 ar   
    27   24   25 ar   
    28   25   26 ar   
@<TRIPOS>SUBSTRUCTURE
     1 SAH301      1 GROUP   
@<TRIPOS>SET

