#    Name: 6gfk_3_SAH
#    Modification time : Fri May 22 19:27:00 2020

@<TRIPOS>MOLECULE
6gfk_3_SAH
   26    28     1     0     0
SMALL
NO_CHARGES


@<TRIPOS>ATOM
      1 N         -18.2920   71.9690   -7.0450 N.4       1 SAH301      0.0000 
      2 CA        -19.4630   72.6880   -6.5220 C.3       1 SAH301      0.0000 
      3 CB        -19.7430   74.0990   -7.1600 C.3       1 SAH301      0.0000 
      4 CG        -20.0670   74.0320   -8.6450 C.3       1 SAH301      0.0000 
      5 SD        -20.5150   75.7150   -9.1690 S.3       1 SAH301      0.0000 
      6 C         -20.6670   71.7270   -6.6910 C.2       1 SAH301      0.0000 
      7 O         -20.6590   70.7380   -7.3970 O.co2     1 SAH301      0.0000 
      8 OXT       -21.7000   72.1230   -6.0070 O.co2     1 SAH301      0.0000 
      9 C5'       -19.0300   76.2820  -10.0400 C.3       1 SAH301      0.0000 
     10 C4'       -18.0850   77.0900   -9.1720 C.3       1 SAH301      0.0000 
     11 O4'       -16.9310   77.4110   -9.9690 O.3       1 SAH301      0.0000 
     12 C3'       -18.5880   78.4180   -8.5890 C.3       1 SAH301      0.0000 
     13 O3'       -18.6620   78.3440   -7.1690 O.3       1 SAH301      0.0000 
     14 C2'       -17.5640   79.4640   -9.0780 C.3       1 SAH301      0.0000 
     15 O2'       -17.2240   80.4110   -8.0690 O.3       1 SAH301      0.0000 
     16 C1'       -16.3700   78.5920   -9.4500 C.3       1 SAH301      0.0000 
     17 N9        -15.4300   79.1220  -10.4400 N.pl3     1 SAH301      0.0000 
     18 C8        -15.7170   79.8000  -11.5970 C.2       1 SAH301      0.0000 
     19 N7        -14.6780   80.0000  -12.3720 N.2       1 SAH301      0.0000 
     20 C5        -13.6290   79.4220  -11.6720 C.ar      1 SAH301      0.0000 
     21 C6        -12.2470   79.3000  -11.9500 C.ar      1 SAH301      0.0000 
     22 N6        -11.6660   79.7700  -13.0590 N.pl3     1 SAH301      0.0000 
     23 N1        -11.4720   78.6840  -11.0250 N.ar      1 SAH301      0.0000 
     24 C2        -12.0430   78.2290   -9.9020 C.ar      1 SAH301      0.0000 
     25 N3        -13.3260   78.2850   -9.5330 N.ar      1 SAH301      0.0000 
     26 C4        -14.0750   78.8920  -10.4710 C.ar      1 SAH301      0.0000 
@<TRIPOS>BOND
     1    1    2 1    
     2    2    3 1    
     3    2    6 1    
     4    3    4 1    
     5    4    5 1    
     6    5    9 1    
     7    6    7 ar   
     8    6    8 ar   
     9    9   10 1    
    10   10   11 1    
    11   10   12 1    
    12   11   16 1    
    13   12   13 1    
    14   12   14 1    
    15   14   15 1    
    16   14   16 1    
    17   16   17 1    
    18   17   18 1    
    19   17   26 1    
    20   18   19 2    
    21   19   20 1    
    22   20   21 ar   
    23   20   26 ar   
    24   21   22 1    
    25   21   23 ar   
    26   23   24 ar   
    27   24   25 ar   
    28   25   26 ar   
@<TRIPOS>SUBSTRUCTURE
     1 SAH301      1 GROUP   
@<TRIPOS>SET

