#    Name: 6gfk_2_SAH
#    Modification time : Fri May 22 19:26:56 2020

@<TRIPOS>MOLECULE
6gfk_2_SAH
   26    28     1     0     0
SMALL
NO_CHARGES


@<TRIPOS>ATOM
      1 N          20.4190   36.9520  -17.3750 N.4       1 SAH301      0.0000 
      2 CA         21.7530   36.7940  -17.9940 C.3       1 SAH301      0.0000 
      3 CB         22.0970   37.7460  -19.1710 C.3       1 SAH301      0.0000 
      4 CG         22.1150   39.2220  -18.7850 C.3       1 SAH301      0.0000 
      5 SD         22.7170   40.1340  -20.2380 S.3       1 SAH301      0.0000 
      6 C          22.8100   36.9090  -16.8540 C.2       1 SAH301      0.0000 
      7 O          23.9540   36.3600  -17.1960 O.co2     1 SAH301      0.0000 
      8 OXT        22.6040   37.4600  -15.7730 O.co2     1 SAH301      0.0000 
      9 C5'        21.2280   40.9740  -20.8350 C.3       1 SAH301      0.0000 
     10 C4'        20.5090   40.1350  -21.8720 C.3       1 SAH301      0.0000 
     11 O4'        19.2850   40.7950  -22.2450 O.3       1 SAH301      0.0000 
     12 C3'        21.2670   39.8550  -23.1760 C.3       1 SAH301      0.0000 
     13 O3'        21.5340   38.4610  -23.2960 O.3       1 SAH301      0.0000 
     14 C2'        20.3590   40.4460  -24.2720 C.3       1 SAH301      0.0000 
     15 O2'        20.3370   39.6450  -25.4470 O.3       1 SAH301      0.0000 
     16 C1'        19.0020   40.4490  -23.5780 C.3       1 SAH301      0.0000 
     17 N9         17.9910   41.3790  -24.0830 N.pl3     1 SAH301      0.0000 
     18 C8         18.1690   42.6760  -24.4950 C.2       1 SAH301      0.0000 
     19 N7         17.0530   43.3150  -24.7470 N.2       1 SAH301      0.0000 
     20 C5         16.0680   42.3740  -24.4840 C.ar      1 SAH301      0.0000 
     21 C6         14.6550   42.4400  -24.5000 C.ar      1 SAH301      0.0000 
     22 N6         13.9650   43.5130  -24.8960 N.pl3     1 SAH301      0.0000 
     23 N1         13.9670   41.3340  -24.1220 N.ar      1 SAH301      0.0000 
     24 C2         14.6500   40.2340  -23.7880 C.ar      1 SAH301      0.0000 
     25 N3         15.9740   40.0490  -23.7580 N.ar      1 SAH301      0.0000 
     26 C4         16.6320   41.1700  -24.0960 C.ar      1 SAH301      0.0000 
@<TRIPOS>BOND
     1    1    2 1    
     2    2    3 1    
     3    2    6 1    
     4    3    4 1    
     5    4    5 1    
     6    5    9 1    
     7    6    7 ar   
     8    6    8 ar   
     9    9   10 1    
    10   10   11 1    
    11   10   12 1    
    12   11   16 1    
    13   12   13 1    
    14   12   14 1    
    15   14   15 1    
    16   14   16 1    
    17   16   17 1    
    18   17   18 1    
    19   17   26 1    
    20   18   19 2    
    21   19   20 1    
    22   20   21 ar   
    23   20   26 ar   
    24   21   22 1    
    25   21   23 ar   
    26   23   24 ar   
    27   24   25 ar   
    28   25   26 ar   
@<TRIPOS>SUBSTRUCTURE
     1 SAH301      1 GROUP   
@<TRIPOS>SET

