#    Name: 6i5f_1_ADP
#    Modification time : Fri May 22 19:27:52 2020

@<TRIPOS>MOLECULE
6i5f_1_ADP
   27    29     1     0     1
SMALL
NO_CHARGES


@<TRIPOS>ATOM
      1 PB         41.3160    7.4910   27.3000 P.3       1 ADP916      0.0000 
      2 O1B        42.7530    7.5650   26.7280 O.co2     1 ADP916      0.0000 
      3 O2B        40.5470    6.2720   26.7940 O.co2     1 ADP916      0.0000 
      4 O3B        41.5040    7.4410   28.8290 O.co2     1 ADP916      0.0000 
      5 PA         39.2120    9.5240   26.6940 P.3       1 ADP916      0.0000 
      6 O1A        39.0010    9.7630   25.2490 O.co2     1 ADP916      0.0000 
      7 O2A        38.1680    8.4970   27.1330 O.co2     1 ADP916      0.0000 
      8 O3A        40.6650    8.9060   26.9360 O.3       1 ADP916      0.0000 
      9 O5'        38.9040   10.8390   27.6110 O.3       1 ADP916      0.0000 
     10 C5'        39.1690   12.2030   27.2170 C.3       1 ADP916      0.0000 
     11 C4'        38.0250   13.1650   27.4540 C.3       1 ADP916      0.0000 
     12 O4'        38.4780   14.4830   27.0550 O.3       1 ADP916      0.0000 
     13 C3'        36.7390   12.9050   26.6580 C.3       1 ADP916      0.0000 
     14 O3'        35.7190   12.1830   27.3470 O.3       1 ADP916      0.0000 
     15 C2'        36.2760   14.3160   26.2720 C.3       1 ADP916      0.0000 
     16 O2'        35.5710   14.9470   27.3390 O.3       1 ADP916      0.0000 
     17 C1'        37.6120   15.0250   26.0760 C.3       1 ADP916      0.0000 
     18 N9         38.2120   14.8940   24.7390 N.pl3     1 ADP916      0.0000 
     19 C8         38.7040   13.7610   24.1500 C.2       1 ADP916      0.0000 
     20 N7         39.1120   13.9290   22.9130 N.2       1 ADP916      0.0000 
     21 C5         38.8850   15.2730   22.6800 C.ar      1 ADP916      0.0000 
     22 C6         39.1280   16.0970   21.5540 C.ar      1 ADP916      0.0000 
     23 N6         39.7350   15.6680   20.4450 N.pl3     1 ADP916      0.0000 
     24 N1         38.7790   17.4030   21.6400 N.ar      1 ADP916      0.0000 
     25 C2         38.2460   17.8550   22.7810 C.ar      1 ADP916      0.0000 
     26 N3         37.9880   17.1830   23.9090 N.ar      1 ADP916      0.0000 
     27 C4         38.3290   15.8930   23.7910 C.ar      1 ADP916      0.0000 
@<TRIPOS>BOND
     1    1    2 ar   
     2    1    3 ar   
     3    1    4 ar   
     4    1    8 1    
     5    5    6 ar   
     6    5    7 ar   
     7    5    8 1    
     8    5    9 1    
     9    9   10 1    
    10   10   11 1    
    11   11   12 1    
    12   11   13 1    
    13   12   17 1    
    14   13   14 1    
    15   13   15 1    
    16   15   16 1    
    17   15   17 1    
    18   17   18 1    
    19   18   19 1    
    20   18   27 1    
    21   19   20 2    
    22   20   21 1    
    23   21   22 ar   
    24   21   27 ar   
    25   22   23 1    
    26   22   24 ar   
    27   24   25 ar   
    28   25   26 ar   
    29   26   27 ar   
@<TRIPOS>SUBSTRUCTURE
     1 ADP916      1 GROUP   
@<TRIPOS>SET
ATOM$ORANGE STATIC     ATOMS   COLORGROUP SYSTEM 
20 10 10 11 11 13 13 15 15 17 17 19 19 21 21 22 22 25 \
25 27 27 

