#    Name: 6px2_5_NAD
#    Modification time : Fri May 22 19:37:26 2020

@<TRIPOS>MOLECULE
6px2_5_NAD
   44    48     1     0     1
SMALL
NO_CHARGES


@<TRIPOS>ATOM
      1 PA        -22.9650   93.1740  -65.8610 P.3       1 NAD401      0.0000 
      2 O1A       -23.2090   93.2310  -67.3580 O.co2     1 NAD401      0.0000 
      3 O2A       -23.9930   93.5690  -64.8540 O.co2     1 NAD401      0.0000 
      4 O5B       -21.6920   94.0850  -65.4920 O.3       1 NAD401      0.0000 
      5 C5B       -20.5660   94.2280  -66.3650 C.3       1 NAD401      0.0000 
      6 C4B       -19.9700   95.6110  -66.1710 C.3       1 NAD401      0.0000 
      7 O4B       -18.7330   95.6840  -66.8810 O.3       1 NAD401      0.0000 
      8 C3B       -20.8290   96.7500  -66.7090 C.3       1 NAD401      0.0000 
      9 O3B       -20.9530   97.7550  -65.6920 O.3       1 NAD401      0.0000 
     10 C2B       -20.0580   97.3470  -67.8640 C.3       1 NAD401      0.0000 
     11 O2B       -20.2410   98.7710  -67.9450 O.3       1 NAD401      0.0000 
     12 C1B       -18.6270   96.9750  -67.4890 C.3       1 NAD401      0.0000 
     13 N9A       -17.6180   96.9030  -68.5820 N.pl3     1 NAD401      0.0000 
     14 C8A       -17.7610   96.3790  -69.8150 C.2       1 NAD401      0.0000 
     15 N7A       -16.5970   96.4800  -70.5120 N.2       1 NAD401      0.0000 
     16 C5A       -15.6850   97.0730  -69.7150 C.ar      1 NAD401      0.0000 
     17 C6A       -14.2550   97.4850  -69.8110 C.ar      1 NAD401      0.0000 
     18 N6A       -13.5380   97.2790  -70.9390 N.pl3     1 NAD401      0.0000 
     19 N1A       -13.7020   98.0700  -68.7300 N.ar      1 NAD401      0.0000 
     20 C2A       -14.3870   98.2820  -67.5880 C.ar      1 NAD401      0.0000 
     21 N3A       -15.6790   97.9410  -67.4370 N.ar      1 NAD401      0.0000 
     22 C4A       -16.3690   97.3430  -68.4420 C.ar      1 NAD401      0.0000 
     23 O3        -22.5450   91.6280  -65.7100 O.3       1 NAD401      0.0000 
     24 PN        -22.4990   90.8410  -64.3110 P.3       1 NAD401      0.0000 
     25 O1N       -23.7480   89.9960  -64.1200 O.co2     1 NAD401      0.0000 
     26 O2N       -22.1060   91.8800  -63.2820 O.co2     1 NAD401      0.0000 
     27 O5D       -21.3460   89.7930  -64.6730 O.3       1 NAD401      0.0000 
     28 C5D       -19.9660   90.1730  -64.7760 C.3       1 NAD401      0.0000 
     29 C4D       -19.1750   88.8820  -64.7670 C.3       1 NAD401      0.0000 
     30 O4D       -19.4860   88.1610  -63.5660 O.3       1 NAD401      0.0000 
     31 C3D       -19.5750   87.9960  -65.9410 C.3       1 NAD401      0.0000 
     32 O3D       -18.4400   87.3450  -66.5210 O.3       1 NAD401      0.0000 
     33 C2D       -20.4930   86.9580  -65.3520 C.3       1 NAD401      0.0000 
     34 O2D       -20.4370   85.6990  -66.0410 O.3       1 NAD401      0.0000 
     35 C1D       -19.9600   86.8530  -63.9280 C.3       1 NAD401      0.0000 
     36 N1N       -20.9650   86.3050  -63.0010 N.pl3     1 NAD401      0.0000 
     37 C2N       -22.2100   86.8310  -62.9090 C.ar      1 NAD401      0.0000 
     38 C3N       -23.1460   86.2730  -62.0340 C.ar      1 NAD401      0.0000 
     39 C7N       -24.5260   86.8380  -61.8780 C.2       1 NAD401      0.0000 
     40 O7N       -25.4220   86.0750  -61.5920 O.2       1 NAD401      0.0000 
     41 N7N       -24.7540   88.1440  -62.0190 N.am      1 NAD401      0.0000 
     42 C4N       -22.7920   85.1700  -61.2620 C.ar      1 NAD401      0.0000 
     43 C5N       -21.5120   84.6480  -61.3810 C.ar      1 NAD401      0.0000 
     44 C6N       -20.6110   85.2320  -62.2650 C.ar      1 NAD401      0.0000 
@<TRIPOS>BOND
     1    1    2 ar   
     2    1    3 ar   
     3    1    4 1    
     4    1   23 1    
     5    4    5 1    
     6    5    6 1    
     7    6    7 1    
     8    6    8 1    
     9    7   12 1    
    10    8    9 1    
    11    8   10 1    
    12   10   11 1    
    13   10   12 1    
    14   12   13 1    
    15   13   14 1    
    16   13   22 1    
    17   14   15 2    
    18   15   16 1    
    19   16   17 ar   
    20   16   22 ar   
    21   17   18 1    
    22   17   19 ar   
    23   19   20 ar   
    24   20   21 ar   
    25   21   22 ar   
    26   23   24 1    
    27   24   25 ar   
    28   24   26 ar   
    29   24   27 1    
    30   27   28 1    
    31   28   29 1    
    32   29   30 1    
    33   29   31 1    
    34   30   35 1    
    35   31   32 1    
    36   31   33 1    
    37   33   34 1    
    38   33   35 1    
    39   35   36 1    
    40   36   37 ar   
    41   36   44 ar   
    42   37   38 ar   
    43   38   39 1    
    44   38   42 ar   
    45   39   40 2    
    46   39   41 am   
    47   42   43 ar   
    48   43   44 ar   
@<TRIPOS>SUBSTRUCTURE
     1 NAD401      1 GROUP   
@<TRIPOS>SET
ATOM$ORANGE STATIC     ATOMS   COLORGROUP SYSTEM 
42 5 5 6 6 8 8 10 10 12 12 14 14 16 16 17 17 20 \
20 22 22 28 28 29 29 31 31 33 33 35 35 37 37 38 38 39 \
39 42 42 43 43 44 44 

