#    Name: 6px2_2_NAD
#    Modification time : Fri May 22 19:37:05 2020

@<TRIPOS>MOLECULE
6px2_2_NAD
   44    48     1     0     1
SMALL
NO_CHARGES


@<TRIPOS>ATOM
      1 PA        -28.2570  140.5430    9.5990 P.3       1 NAD401      0.0000 
      2 O1A       -28.1360  139.3240   10.4550 O.co2     1 NAD401      0.0000 
      3 O2A       -28.6960  140.3590    8.1850 O.co2     1 NAD401      0.0000 
      4 O5B       -26.8630  141.3290    9.6160 O.3       1 NAD401      0.0000 
      5 C5B       -25.9140  141.0610   10.6740 C.3       1 NAD401      0.0000 
      6 C4B       -24.5320  140.9130   10.0830 C.3       1 NAD401      0.0000 
      7 O4B       -23.5640  141.0850   11.1470 O.3       1 NAD401      0.0000 
      8 C3B       -24.1890  139.5680    9.4170 C.3       1 NAD401      0.0000 
      9 O3B       -23.6120  139.7610    8.1310 O.3       1 NAD401      0.0000 
     10 C2B       -23.1380  138.9550   10.3490 C.3       1 NAD401      0.0000 
     11 O2B       -22.2270  138.1360    9.6490 O.3       1 NAD401      0.0000 
     12 C1B       -22.4920  140.2050   10.9330 C.3       1 NAD401      0.0000 
     13 N9A       -21.8680  140.0000   12.2300 N.pl3     1 NAD401      0.0000 
     14 C8A       -22.2690  139.1250   13.2060 C.2       1 NAD401      0.0000 
     15 N7A       -21.5170  139.1690   14.2780 N.2       1 NAD401      0.0000 
     16 C5A       -20.5640  140.1370   13.9900 C.ar      1 NAD401      0.0000 
     17 C6A       -19.4820  140.6530   14.7290 C.ar      1 NAD401      0.0000 
     18 N6A       -19.1660  140.2440   15.9540 N.pl3     1 NAD401      0.0000 
     19 N1A       -18.7290  141.6190   14.1490 N.ar      1 NAD401      0.0000 
     20 C2A       -19.0550  142.0300   12.9160 C.ar      1 NAD401      0.0000 
     21 N3A       -20.0420  141.6140   12.1280 N.ar      1 NAD401      0.0000 
     22 C4A       -20.7730  140.6610   12.7300 C.ar      1 NAD401      0.0000 
     23 O3        -29.2350  141.6120   10.3060 O.3       1 NAD401      0.0000 
     24 PN        -29.9320  143.0080    9.8920 P.3       1 NAD401      0.0000 
     25 O1N       -31.3150  142.7160    9.4030 O.co2     1 NAD401      0.0000 
     26 O2N       -29.0050  143.7880    9.0130 O.co2     1 NAD401      0.0000 
     27 O5D       -30.0520  143.7490   11.3100 O.3       1 NAD401      0.0000 
     28 C5D       -28.9240  144.4540   11.8810 C.3       1 NAD401      0.0000 
     29 C4D       -29.3970  145.2450   13.0780 C.3       1 NAD401      0.0000 
     30 O4D       -30.3490  146.2360   12.6230 O.3       1 NAD401      0.0000 
     31 C3D       -30.1140  144.4470   14.1790 C.3       1 NAD401      0.0000 
     32 O3D       -29.8180  145.0020   15.4520 O.3       1 NAD401      0.0000 
     33 C2D       -31.5910  144.6740   13.8340 C.3       1 NAD401      0.0000 
     34 O2D       -32.4970  144.4780   14.9120 O.3       1 NAD401      0.0000 
     35 C1D       -31.5730  146.1200   13.3510 C.3       1 NAD401      0.0000 
     36 N1N       -32.7070  146.4220   12.4280 N.pl3     1 NAD401      0.0000 
     37 C2N       -33.0180  145.5480   11.4160 C.ar      1 NAD401      0.0000 
     38 C3N       -34.1210  145.7770   10.6030 C.ar      1 NAD401      0.0000 
     39 C7N       -34.4170  144.7890    9.5010 C.2       1 NAD401      0.0000 
     40 O7N       -35.5540  144.7220    9.0380 O.2       1 NAD401      0.0000 
     41 N7N       -33.4230  144.0170    9.0870 N.am      1 NAD401      0.0000 
     42 C4N       -34.9080  146.8980   10.8340 C.ar      1 NAD401      0.0000 
     43 C5N       -34.5250  147.8180   11.7810 C.ar      1 NAD401      0.0000 
     44 C6N       -33.4590  147.5360   12.6060 C.ar      1 NAD401      0.0000 
@<TRIPOS>BOND
     1    1    2 ar   
     2    1    3 ar   
     3    1    4 1    
     4    1   23 1    
     5    4    5 1    
     6    5    6 1    
     7    6    7 1    
     8    6    8 1    
     9    7   12 1    
    10    8    9 1    
    11    8   10 1    
    12   10   11 1    
    13   10   12 1    
    14   12   13 1    
    15   13   14 1    
    16   13   22 1    
    17   14   15 2    
    18   15   16 1    
    19   16   17 ar   
    20   16   22 ar   
    21   17   18 1    
    22   17   19 ar   
    23   19   20 ar   
    24   20   21 ar   
    25   21   22 ar   
    26   23   24 1    
    27   24   25 ar   
    28   24   26 ar   
    29   24   27 1    
    30   27   28 1    
    31   28   29 1    
    32   29   30 1    
    33   29   31 1    
    34   30   35 1    
    35   31   32 1    
    36   31   33 1    
    37   33   34 1    
    38   33   35 1    
    39   35   36 1    
    40   36   37 ar   
    41   36   44 ar   
    42   37   38 ar   
    43   38   39 1    
    44   38   42 ar   
    45   39   40 2    
    46   39   41 am   
    47   42   43 ar   
    48   43   44 ar   
@<TRIPOS>SUBSTRUCTURE
     1 NAD401      1 GROUP   
@<TRIPOS>SET
ATOM$ORANGE STATIC     ATOMS   COLORGROUP SYSTEM 
42 5 5 6 6 8 8 10 10 12 12 14 14 16 16 17 17 20 \
20 22 22 28 28 29 29 31 31 33 33 35 35 37 37 38 38 39 \
39 42 42 43 43 44 44 

