#    Name: 6px2_7_NAD
#    Modification time : Fri May 22 19:37:39 2020

@<TRIPOS>MOLECULE
6px2_7_NAD
   44    48     1     0     1
SMALL
NO_CHARGES


@<TRIPOS>ATOM
      1 PA        -55.6560   89.2910  -48.8350 P.3       1 NAD401      0.0000 
      2 O1A       -56.6130   88.5950  -49.7860 O.co2     1 NAD401      0.0000 
      3 O2A       -54.1830   89.2700  -49.1250 O.co2     1 NAD401      0.0000 
      4 O5B       -55.8870   88.6750  -47.3650 O.3       1 NAD401      0.0000 
      5 C5B       -57.1850   88.6080  -46.7650 C.3       1 NAD401      0.0000 
      6 C4B       -57.1440   87.5960  -45.6250 C.3       1 NAD401      0.0000 
      7 O4B       -58.3840   87.5750  -44.9060 O.3       1 NAD401      0.0000 
      8 C3B       -56.8820   86.1830  -46.1410 C.3       1 NAD401      0.0000 
      9 O3B       -55.7210   85.6080  -45.5390 O.3       1 NAD401      0.0000 
     10 C2B       -58.1030   85.3880  -45.7480 C.3       1 NAD401      0.0000 
     11 O2B       -57.7450   84.0690  -45.3350 O.3       1 NAD401      0.0000 
     12 C1B       -58.7420   86.2160  -44.6330 C.3       1 NAD401      0.0000 
     13 N9A       -60.2180   86.0210  -44.5000 N.pl3     1 NAD401      0.0000 
     14 C8A       -61.1140   85.7380  -45.4760 C.2       1 NAD401      0.0000 
     15 N7A       -62.3720   85.6230  -44.9660 N.2       1 NAD401      0.0000 
     16 C5A       -62.2980   85.8220  -43.6390 C.ar      1 NAD401      0.0000 
     17 C6A       -63.2570   85.8440  -42.5010 C.ar      1 NAD401      0.0000 
     18 N6A       -64.5830   85.6140  -42.6880 N.pl3     1 NAD401      0.0000 
     19 N1A       -62.7570   86.1030  -41.2670 N.ar      1 NAD401      0.0000 
     20 C2A       -61.4380   86.3330  -41.0640 C.ar      1 NAD401      0.0000 
     21 N3A       -60.5150   86.3250  -42.0570 N.ar      1 NAD401      0.0000 
     22 C4A       -60.8730   86.0830  -43.3410 C.ar      1 NAD401      0.0000 
     23 O3        -56.2150   90.7930  -48.6560 O.3       1 NAD401      0.0000 
     24 PN        -55.2930   92.0890  -48.4700 P.3       1 NAD401      0.0000 
     25 O1N       -54.5170   92.3290  -49.7450 O.co2     1 NAD401      0.0000 
     26 O2N       -54.6110   91.9330  -47.1310 O.co2     1 NAD401      0.0000 
     27 O5D       -56.3410   93.3010  -48.3390 O.3       1 NAD401      0.0000 
     28 C5D       -57.2690   93.3560  -47.2630 C.3       1 NAD401      0.0000 
     29 C4D       -58.0980   94.6260  -47.4000 C.3       1 NAD401      0.0000 
     30 O4D       -57.2250   95.7570  -47.5040 O.3       1 NAD401      0.0000 
     31 C3D       -58.9390   94.6010  -48.6670 C.3       1 NAD401      0.0000 
     32 O3D       -60.2570   95.0590  -48.3740 O.3       1 NAD401      0.0000 
     33 C2D       -58.2470   95.5500  -49.6260 C.3       1 NAD401      0.0000 
     34 O2D       -59.1820   96.2420  -50.4520 O.3       1 NAD401      0.0000 
     35 C1D       -57.5200   96.5120  -48.6930 C.3       1 NAD401      0.0000 
     36 N1N       -56.3050   97.1460  -49.2410 N.pl3     1 NAD401      0.0000 
     37 C2N       -55.3400   96.4380  -49.8650 C.ar      1 NAD401      0.0000 
     38 C3N       -54.1980   97.0790  -50.3580 C.ar      1 NAD401      0.0000 
     39 C7N       -53.1100   96.3180  -51.0750 C.2       1 NAD401      0.0000 
     40 O7N       -52.5960   96.8000  -52.0830 O.2       1 NAD401      0.0000 
     41 N7N       -52.7340   95.1300  -50.6060 N.am      1 NAD401      0.0000 
     42 C4N       -54.0670   98.4510  -50.2070 C.ar      1 NAD401      0.0000 
     43 C5N       -55.0690   99.1610  -49.5660 C.ar      1 NAD401      0.0000 
     44 C6N       -56.1830   98.4810  -49.0850 C.ar      1 NAD401      0.0000 
@<TRIPOS>BOND
     1    1    2 ar   
     2    1    3 ar   
     3    1    4 1    
     4    1   23 1    
     5    4    5 1    
     6    5    6 1    
     7    6    7 1    
     8    6    8 1    
     9    7   12 1    
    10    8    9 1    
    11    8   10 1    
    12   10   11 1    
    13   10   12 1    
    14   12   13 1    
    15   13   14 1    
    16   13   22 1    
    17   14   15 2    
    18   15   16 1    
    19   16   17 ar   
    20   16   22 ar   
    21   17   18 1    
    22   17   19 ar   
    23   19   20 ar   
    24   20   21 ar   
    25   21   22 ar   
    26   23   24 1    
    27   24   25 ar   
    28   24   26 ar   
    29   24   27 1    
    30   27   28 1    
    31   28   29 1    
    32   29   30 1    
    33   29   31 1    
    34   30   35 1    
    35   31   32 1    
    36   31   33 1    
    37   33   34 1    
    38   33   35 1    
    39   35   36 1    
    40   36   37 ar   
    41   36   44 ar   
    42   37   38 ar   
    43   38   39 1    
    44   38   42 ar   
    45   39   40 2    
    46   39   41 am   
    47   42   43 ar   
    48   43   44 ar   
@<TRIPOS>SUBSTRUCTURE
     1 NAD401      1 GROUP   
@<TRIPOS>SET
ATOM$ORANGE STATIC     ATOMS   COLORGROUP SYSTEM 
42 5 5 6 6 8 8 10 10 12 12 14 14 16 16 17 17 20 \
20 22 22 28 28 29 29 31 31 33 33 35 35 37 37 38 38 39 \
39 42 42 43 43 44 44 

