#    Name: 6px2_8_NAD
#    Modification time : Fri May 22 19:37:46 2020

@<TRIPOS>MOLECULE
6px2_8_NAD
   44    48     1     0     1
SMALL
NO_CHARGES


@<TRIPOS>ATOM
      1 PA        -34.0120   96.4450  -82.3360 P.3       1 NAD401      0.0000 
      2 O1A       -32.8480   96.5540  -81.3780 O.co2     1 NAD401      0.0000 
      3 O2A       -34.9290   95.2640  -82.2790 O.co2     1 NAD401      0.0000 
      4 O5B       -33.4560   96.4490  -83.8450 O.3       1 NAD401      0.0000 
      5 C5B       -32.3430   97.2220  -84.2930 C.3       1 NAD401      0.0000 
      6 C4B       -31.6930   96.4530  -85.4460 C.3       1 NAD401      0.0000 
      7 O4B       -30.6750   97.2360  -86.0440 O.3       1 NAD401      0.0000 
      8 C3B       -31.0020   95.1710  -85.0050 C.3       1 NAD401      0.0000 
      9 O3B       -31.5120   94.1130  -85.8240 O.3       1 NAD401      0.0000 
     10 C2B       -29.5050   95.4020  -85.2020 C.3       1 NAD401      0.0000 
     11 O2B       -28.8200   94.1800  -85.5270 O.3       1 NAD401      0.0000 
     12 C1B       -29.5300   96.4150  -86.3330 C.3       1 NAD401      0.0000 
     13 N9A       -28.4080   97.3700  -86.5440 N.pl3     1 NAD401      0.0000 
     14 C8A       -27.7970   98.1480  -85.6300 C.2       1 NAD401      0.0000 
     15 N7A       -26.8560   98.9390  -86.2210 N.2       1 NAD401      0.0000 
     16 C5A       -26.8870   98.6830  -87.5430 C.ar      1 NAD401      0.0000 
     17 C6A       -26.1700   99.1560  -88.7540 C.ar      1 NAD401      0.0000 
     18 N6A       -25.2000  100.0920  -88.6620 N.pl3     1 NAD401      0.0000 
     19 N1A       -26.5180   98.6200  -89.9540 N.ar      1 NAD401      0.0000 
     20 C2A       -27.4840   97.6860  -90.0740 C.ar      1 NAD401      0.0000 
     21 N3A       -28.1600   97.2080  -89.0080 N.ar      1 NAD401      0.0000 
     22 C4A       -27.9170   97.6570  -87.7480 C.ar      1 NAD401      0.0000 
     23 O3        -34.8470   97.8160  -82.2260 O.3       1 NAD401      0.0000 
     24 PN        -36.4000   97.9770  -82.6690 P.3       1 NAD401      0.0000 
     25 O1N       -37.2410   97.9030  -81.4080 O.co2     1 NAD401      0.0000 
     26 O2N       -36.7040   97.1140  -83.8750 O.co2     1 NAD401      0.0000 
     27 O5D       -36.4550   99.4970  -83.1860 O.3       1 NAD401      0.0000 
     28 C5D       -35.9590   99.8900  -84.4680 C.3       1 NAD401      0.0000 
     29 C4D       -36.3640  101.3400  -84.6940 C.3       1 NAD401      0.0000 
     30 O4D       -37.7890  101.4150  -84.7640 O.3       1 NAD401      0.0000 
     31 C3D       -35.9340  102.2040  -83.5190 C.3       1 NAD401      0.0000 
     32 O3D       -35.4170  103.4470  -83.9850 O.3       1 NAD401      0.0000 
     33 C2D       -37.1890  102.4000  -82.6880 C.3       1 NAD401      0.0000 
     34 O2D       -37.2300  103.6880  -82.0680 O.3       1 NAD401      0.0000 
     35 C1D       -38.3050  102.2500  -83.7100 C.3       1 NAD401      0.0000 
     36 N1N       -39.5960  101.7780  -83.1550 N.pl3     1 NAD401      0.0000 
     37 C2N       -39.7020  100.7020  -82.3380 C.ar      1 NAD401      0.0000 
     38 C3N       -40.9530  100.3040  -81.8420 C.ar      1 NAD401      0.0000 
     39 C7N       -41.1170   99.1160  -80.9360 C.2       1 NAD401      0.0000 
     40 O7N       -41.8990   99.1620  -79.9920 O.2       1 NAD401      0.0000 
     41 N7N       -40.4090   98.0200  -81.1880 N.am      1 NAD401      0.0000 
     42 C4N       -42.0820  101.0230  -82.1940 C.ar      1 NAD401      0.0000 
     43 C5N       -41.9540  102.1180  -83.0300 C.ar      1 NAD401      0.0000 
     44 C6N       -40.6970  102.4740  -83.5020 C.ar      1 NAD401      0.0000 
@<TRIPOS>BOND
     1    1    2 ar   
     2    1    3 ar   
     3    1    4 1    
     4    1   23 1    
     5    4    5 1    
     6    5    6 1    
     7    6    7 1    
     8    6    8 1    
     9    7   12 1    
    10    8    9 1    
    11    8   10 1    
    12   10   11 1    
    13   10   12 1    
    14   12   13 1    
    15   13   14 1    
    16   13   22 1    
    17   14   15 2    
    18   15   16 1    
    19   16   17 ar   
    20   16   22 ar   
    21   17   18 1    
    22   17   19 ar   
    23   19   20 ar   
    24   20   21 ar   
    25   21   22 ar   
    26   23   24 1    
    27   24   25 ar   
    28   24   26 ar   
    29   24   27 1    
    30   27   28 1    
    31   28   29 1    
    32   29   30 1    
    33   29   31 1    
    34   30   35 1    
    35   31   32 1    
    36   31   33 1    
    37   33   34 1    
    38   33   35 1    
    39   35   36 1    
    40   36   37 ar   
    41   36   44 ar   
    42   37   38 ar   
    43   38   39 1    
    44   38   42 ar   
    45   39   40 2    
    46   39   41 am   
    47   42   43 ar   
    48   43   44 ar   
@<TRIPOS>SUBSTRUCTURE
     1 NAD401      1 GROUP   
@<TRIPOS>SET
ATOM$ORANGE STATIC     ATOMS   COLORGROUP SYSTEM 
42 5 5 6 6 8 8 10 10 12 12 14 14 16 16 17 17 20 \
20 22 22 28 28 29 29 31 31 33 33 35 35 37 37 38 38 39 \
39 42 42 43 43 44 44 

