#    Name: 6px2_6_NAD
#    Modification time : Fri May 22 19:37:32 2020

@<TRIPOS>MOLECULE
6px2_6_NAD
   44    48     1     0     1
SMALL
NO_CHARGES


@<TRIPOS>ATOM
      1 PA        -59.2670   75.6080  -63.8250 P.3       1 NAD401      0.0000 
      2 O1A       -59.2910   76.1760  -62.4250 O.co2     1 NAD401      0.0000 
      3 O2A       -58.7750   76.4520  -64.9780 O.co2     1 NAD401      0.0000 
      4 O5B       -60.7630   75.0970  -64.1160 O.3       1 NAD401      0.0000 
      5 C5B       -61.6750   74.8290  -63.0490 C.3       1 NAD401      0.0000 
      6 C4B       -62.9940   75.5170  -63.3730 C.3       1 NAD401      0.0000 
      7 O4B       -64.0430   74.5760  -63.1630 O.3       1 NAD401      0.0000 
      8 C3B       -63.3230   76.7560  -62.5360 C.3       1 NAD401      0.0000 
      9 O3B       -63.0090   77.9810  -63.2040 O.3       1 NAD401      0.0000 
     10 C2B       -64.8190   76.6830  -62.2980 C.3       1 NAD401      0.0000 
     11 O2B       -65.4700   77.7470  -63.0210 O.3       1 NAD401      0.0000 
     12 C1B       -65.2150   75.2640  -62.7390 C.3       1 NAD401      0.0000 
     13 N9A       -65.7600   74.4570  -61.6350 N.pl3     1 NAD401      0.0000 
     14 C8A       -65.1990   74.3130  -60.4190 C.2       1 NAD401      0.0000 
     15 N7A       -65.9620   73.5070  -59.6390 N.2       1 NAD401      0.0000 
     16 C5A       -67.0230   73.1110  -60.3750 C.ar      1 NAD401      0.0000 
     17 C6A       -68.2120   72.2410  -60.1800 C.ar      1 NAD401      0.0000 
     18 N6A       -68.4310   71.6170  -58.9980 N.pl3     1 NAD401      0.0000 
     19 N1A       -69.0740   72.0920  -61.2170 N.ar      1 NAD401      0.0000 
     20 C2A       -68.8760   72.7010  -62.4050 C.ar      1 NAD401      0.0000 
     21 N3A       -67.8170   73.5050  -62.6450 N.ar      1 NAD401      0.0000 
     22 C4A       -66.8780   73.7410  -61.6950 C.ar      1 NAD401      0.0000 
     23 O3        -58.4800   74.2010  -63.8520 O.3       1 NAD401      0.0000 
     24 PN        -57.6430   73.6850  -65.1350 P.3       1 NAD401      0.0000 
     25 O1N       -56.2790   74.3500  -65.1480 O.co2     1 NAD401      0.0000 
     26 O2N       -58.5330   73.7450  -66.3580 O.co2     1 NAD401      0.0000 
     27 O5D       -57.3780   72.1370  -64.7750 O.3       1 NAD401      0.0000 
     28 C5D       -58.4350   71.2120  -64.5430 C.3       1 NAD401      0.0000 
     29 C4D       -57.8200   69.8740  -64.1510 C.3       1 NAD401      0.0000 
     30 O4D       -56.9120   69.4540  -65.1720 O.3       1 NAD401      0.0000 
     31 C3D       -57.0240   69.9570  -62.8540 C.3       1 NAD401      0.0000 
     32 O3D       -57.4840   68.9490  -61.9470 O.3       1 NAD401      0.0000 
     33 C2D       -55.5640   69.7550  -63.2360 C.3       1 NAD401      0.0000 
     34 O2D       -54.8740   68.8740  -62.3410 O.3       1 NAD401      0.0000 
     35 C1D       -55.6120   69.1590  -64.6410 C.3       1 NAD401      0.0000 
     36 N1N       -54.5770   69.6530  -65.5710 N.pl3     1 NAD401      0.0000 
     37 C2N       -54.3190   70.9740  -65.7230 C.ar      1 NAD401      0.0000 
     38 C3N       -53.3450   71.4210  -66.6200 C.ar      1 NAD401      0.0000 
     39 C7N       -53.0410   72.8910  -66.7890 C.2       1 NAD401      0.0000 
     40 O7N       -51.8820   73.2560  -66.9640 O.2       1 NAD401      0.0000 
     41 N7N       -54.0420   73.7750  -66.7460 N.am      1 NAD401      0.0000 
     42 C4N       -52.6470   70.4810  -67.3650 C.ar      1 NAD401      0.0000 
     43 C5N       -52.9310   69.1340  -67.1970 C.ar      1 NAD401      0.0000 
     44 C6N       -53.9060   68.7400  -66.2940 C.ar      1 NAD401      0.0000 
@<TRIPOS>BOND
     1    1    2 ar   
     2    1    3 ar   
     3    1    4 1    
     4    1   23 1    
     5    4    5 1    
     6    5    6 1    
     7    6    7 1    
     8    6    8 1    
     9    7   12 1    
    10    8    9 1    
    11    8   10 1    
    12   10   11 1    
    13   10   12 1    
    14   12   13 1    
    15   13   14 1    
    16   13   22 1    
    17   14   15 2    
    18   15   16 1    
    19   16   17 ar   
    20   16   22 ar   
    21   17   18 1    
    22   17   19 ar   
    23   19   20 ar   
    24   20   21 ar   
    25   21   22 ar   
    26   23   24 1    
    27   24   25 ar   
    28   24   26 ar   
    29   24   27 1    
    30   27   28 1    
    31   28   29 1    
    32   29   30 1    
    33   29   31 1    
    34   30   35 1    
    35   31   32 1    
    36   31   33 1    
    37   33   34 1    
    38   33   35 1    
    39   35   36 1    
    40   36   37 ar   
    41   36   44 ar   
    42   37   38 ar   
    43   38   39 1    
    44   38   42 ar   
    45   39   40 2    
    46   39   41 am   
    47   42   43 ar   
    48   43   44 ar   
@<TRIPOS>SUBSTRUCTURE
     1 NAD401      1 GROUP   
@<TRIPOS>SET
ATOM$ORANGE STATIC     ATOMS   COLORGROUP SYSTEM 
42 5 5 6 6 8 8 10 10 12 12 14 14 16 16 17 17 20 \
20 22 22 28 28 29 29 31 31 33 33 35 35 37 37 38 38 39 \
39 42 42 43 43 44 44 

