#    Name: 6h6l_2_CHO_CAVITY_N1_4
#    Modification time : Fri May 22 19:24:04 2020

@<TRIPOS>MOLECULE
6h6l_2_CHO_CAVITY_N1_4
   67     0     6     0     0
SMALL
NO_CHARGES


@<TRIPOS>ATOM
      1 OG         36.8300    3.1500  -31.3700 O.3       1 SER1        0.0000 
      2 OG         37.8400    2.0500  -31.3100 O.3       1 SER1        0.0000 
      3 OG         38.8600    0.9500  -31.2500 O.3       1 SER1        0.0000 
      4 N          31.5400    2.0700  -36.3600 N.am      2 ALA2        0.0000 
      5 N          32.9700    1.2700  -37.7000 N.am      2 ALA2        0.0000 
      6 N          36.2100   -1.6700  -34.1900 N.am      2 ALA2        0.0000 
      7 N          35.6100   -0.2600  -35.6600 N.am      2 ALA2        0.0000 
      8 N          36.6200   -1.3600  -35.6000 N.am      2 ALA2        0.0000 
      9 N          37.2300   -0.6900  -33.6800 N.am      2 ALA2        0.0000 
     10 N          38.2500   -1.8000  -33.6100 N.am      2 ALA2        0.0000 
     11 N          34.6000    2.9200  -35.2700 N.am      2 ALA2        0.0000 
     12 N          34.0000    4.3200  -36.7500 N.am      2 ALA2        0.0000 
     13 N          35.0100    3.2200  -36.6800 N.am      2 ALA2        0.0000 
     14 N          35.4300    3.5200  -38.0900 N.am      2 ALA2        0.0000 
     15 N          37.8400   -0.0200  -31.7600 N.am      2 ALA2        0.0000 
     16 N          38.8500   -1.1300  -31.7000 N.am      2 ALA2        0.0000 
     17 N          38.2500    0.2800  -33.1700 N.am      2 ALA2        0.0000 
     18 N          39.2700   -0.8200  -33.1000 N.am      2 ALA2        0.0000 
     19 N          35.6200    3.8900  -34.7600 N.am      2 ALA2        0.0000 
     20 N          36.6400    2.7800  -34.7000 N.am      2 ALA2        0.0000 
     21 O          37.6500    1.6800  -34.6400 O.2       2 ALA2        0.0000 
     22 N          37.0500    3.0900  -36.1100 N.am      2 ALA2        0.0000 
     23 N          37.4700    3.3900  -37.5200 N.am      2 ALA2        0.0000 
     24 O          37.2400    3.4500  -32.7800 O.2       2 ALA2        0.0000 
     25 N          36.6400    4.8600  -34.2500 N.am      2 ALA2        0.0000 
     26 O          37.6600    3.7600  -34.1900 O.2       2 ALA2        0.0000 
     27 N          40.1100    1.8500  -35.4800 N.am      2 ALA2        0.0000 
     28 OD1        40.2800   -1.9300  -33.0400 O.co2     3 ASP3        0.0000 
     29 CZ         34.3700    0.9100  -30.9800 C.ar      4 PHE5        0.0000 
     30 CZ         36.8200    1.0800  -31.8200 C.ar      4 PHE5        0.0000 
     31 CA         32.5500    0.9700  -36.2900 C.3       5 GLY6        0.0000 
     32 CA         33.3800    1.5800  -39.1100 C.3       5 GLY6        0.0000 
     33 CA         33.7600    0.2400  -32.9000 C.3       5 GLY6        0.0000 
     34 CA         33.1600    1.6400  -34.3800 C.3       5 GLY6        0.0000 
     35 CA         34.1800    0.5400  -34.3100 C.3       5 GLY6        0.0000 
     36 CA         35.1900   -0.5600  -34.2500 C.3       5 GLY6        0.0000 
     37 CA         33.9900    2.2500  -37.1900 C.3       5 GLY6        0.0000 
     38 CA         35.0100    1.1400  -37.1300 C.3       5 GLY6        0.0000 
     39 CA         34.4100    2.5500  -38.6000 C.3       5 GLY6        0.0000 
     40 CA         34.7800    1.2100  -32.3900 C.3       5 GLY6        0.0000 
     41 CA         35.8000    0.1100  -32.3300 C.3       5 GLY6        0.0000 
     42 CA         36.6300    0.7100  -35.1500 C.3       5 GLY6        0.0000 
     43 CA         37.6400   -0.3900  -35.0900 C.3       5 GLY6        0.0000 
     44 CA         38.6600   -1.4900  -35.0200 C.3       5 GLY6        0.0000 
     45 CA         36.0300    2.1200  -36.6200 C.3       5 GLY6        0.0000 
     46 CA         39.6800   -0.5200  -34.5100 C.3       5 GLY6        0.0000 
     47 CA         38.0700    1.9900  -36.0500 C.3       5 GLY6        0.0000 
     48 CA         39.0800    0.8800  -35.9900 C.3       5 GLY6        0.0000 
     49 CA         40.1000   -0.2200  -35.9200 C.3       5 GLY6        0.0000 
     50 CA         38.2600    2.3500  -32.7200 C.3       5 GLY6        0.0000 
     51 CA         39.2700    1.2500  -32.6600 C.3       5 GLY6        0.0000 
     52 CA         40.2900    0.1500  -32.5900 C.3       5 GLY6        0.0000 
     53 CA         39.6900    1.5500  -34.0700 C.3       5 GLY6        0.0000 
     54 CA         40.7100    0.4500  -34.0000 C.3       5 GLY6        0.0000 
     55 DU         32.5600    3.0500  -35.8500 H         6 CUB7        0.0000 
     56 DU         33.5800    1.9400  -35.7800 H         6 CUB7        0.0000 
     57 DU         34.5900    0.8400  -35.7200 H         6 CUB7        0.0000 
     58 DU         32.9700    3.3500  -37.2600 H         6 CUB7        0.0000 
     59 DU         34.1800    2.6100  -33.8700 H         6 CUB7        0.0000 
     60 DU         35.2000    1.5100  -33.8000 H         6 CUB7        0.0000 
     61 DU         36.2100    0.4100  -33.7400 H         6 CUB7        0.0000 
     62 DU         35.6100    1.8100  -35.2100 H         6 CUB7        0.0000 
     63 DU         35.8100    2.1800  -31.8800 H         6 CUB7        0.0000 
     64 DU         35.2100    3.5800  -33.3600 H         6 CUB7        0.0000 
     65 DU         36.2200    2.4800  -33.2900 H         6 CUB7        0.0000 
     66 DU         37.2400    1.3800  -33.2300 H         6 CUB7        0.0000 
     67 DU         38.6700    0.5800  -34.5800 H         6 CUB7        0.0000 
@<TRIPOS>BOND
@<TRIPOS>SUBSTRUCTURE
     1 SER1        1 GROUP   
     2 ALA2        4 GROUP   
     3 ASP3       28 GROUP   
     4 PHE5       29 GROUP   
     5 GLY6       31 GROUP   
     6 CUB7       55 GROUP   
@<TRIPOS>SET

