#    Name: 6h6l_3_CHO
#    Modification time : Fri May 22 19:24:08 2020

@<TRIPOS>MOLECULE
6h6l_3_CHO
   32    35     1     0     0
SMALL
NO_CHARGES


@<TRIPOS>ATOM
      1 C1         -5.7040  -58.2430  -28.8960 C.3       1 CHO603      0.0000 
      2 C2         -6.5880  -59.4370  -29.2580 C.3       1 CHO603      0.0000 
      3 C3         -6.8810  -60.2600  -28.0190 C.3       1 CHO603      0.0000 
      4 O3         -7.6780  -61.3860  -28.3980 O.3       1 CHO603      0.0000 
      5 C4         -5.5940  -60.7280  -27.3820 C.3       1 CHO603      0.0000 
      6 C5         -4.6070  -59.5940  -27.0840 C.3       1 CHO603      0.0000 
      7 C6         -3.3050  -60.1330  -26.4860 C.3       1 CHO603      0.0000 
      8 C7         -2.3310  -60.7630  -27.4770 C.3       1 CHO603      0.0000 
      9 O7         -2.7520  -62.0910  -27.8050 O.3       1 CHO603      0.0000 
     10 C8         -2.1560  -59.9330  -28.7620 C.3       1 CHO603      0.0000 
     11 C9         -3.4870  -59.4270  -29.3420 C.3       1 CHO603      0.0000 
     12 C10        -4.3480  -58.6580  -28.2930 C.3       1 CHO603      0.0000 
     13 C11        -3.2710  -58.6350  -30.6390 C.3       1 CHO603      0.0000 
     14 C12        -2.3940  -59.3610  -31.6540 C.3       1 CHO603      0.0000 
     15 C13        -1.0490  -59.8150  -31.0570 C.3       1 CHO603      0.0000 
     16 C14        -1.3880  -60.6850  -29.8580 C.3       1 CHO603      0.0000 
     17 C15        -0.0610  -61.3910  -29.5180 C.3       1 CHO603      0.0000 
     18 C16         0.6760  -61.5060  -30.8670 C.3       1 CHO603      0.0000 
     19 C17        -0.2120  -60.8010  -31.9120 C.3       1 CHO603      0.0000 
     20 C18        -0.1970  -58.5970  -30.6490 C.3       1 CHO603      0.0000 
     21 C19        -3.6410  -57.3740  -27.8220 C.3       1 CHO603      0.0000 
     22 C20         0.5560  -60.2630  -33.1430 C.3       1 CHO603      0.0000 
     23 C21         0.2740  -61.0690  -34.4030 C.3       1 CHO603      0.0000 
     24 C22         2.0800  -60.1570  -32.9130 C.3       1 CHO603      0.0000 
     25 C23         2.7780  -59.1440  -33.8140 C.3       1 CHO603      0.0000 
     26 C24         2.4720  -57.7160  -33.4170 C.2       1 CHO603      0.0000 
     27 O24         1.6350  -57.0520  -34.0260 O.2       1 CHO603      0.0000 
     28 N25         3.1490  -57.2140  -32.3890 N.am      1 CHO603      0.0000 
     29 C26         2.9190  -55.8590  -31.9190 C.3       1 CHO603      0.0000 
     30 C27         4.1350  -54.9670  -32.0440 C.2       1 CHO603      0.0000 
     31 OT1         4.0740  -53.8160  -31.5520 O.co2     1 CHO603      0.0000 
     32 OT2         5.1510  -55.3960  -32.6350 O.co2     1 CHO603      0.0000 
@<TRIPOS>BOND
     1    1    2 1    
     2    1   12 1    
     3    2    3 1    
     4    3    4 1    
     5    3    5 1    
     6    5    6 1    
     7    6    7 1    
     8    6   12 1    
     9    7    8 1    
    10    8    9 1    
    11    8   10 1    
    12   10   11 1    
    13   10   16 1    
    14   11   12 1    
    15   11   13 1    
    16   12   21 1    
    17   13   14 1    
    18   14   15 1    
    19   15   16 1    
    20   15   19 1    
    21   15   20 1    
    22   16   17 1    
    23   17   18 1    
    24   18   19 1    
    25   19   22 1    
    26   22   23 1    
    27   22   24 1    
    28   24   25 1    
    29   25   26 1    
    30   26   27 2    
    31   26   28 am   
    32   28   29 1    
    33   29   30 1    
    34   30   31 ar   
    35   30   32 ar   
@<TRIPOS>SUBSTRUCTURE
     1 CHO603      1 GROUP   
@<TRIPOS>SET

