#    Name: 6h6l_4_CHO
#    Modification time : Fri May 22 19:24:14 2020

@<TRIPOS>MOLECULE
6h6l_4_CHO
   32    35     1     0     0
SMALL
NO_CHARGES


@<TRIPOS>ATOM
      1 C1         18.3030  -36.2630  -33.4310 C.3       1 CHO601      0.0000 
      2 C2         19.0800  -35.1400  -34.1180 C.3       1 CHO601      0.0000 
      3 C3         19.5560  -34.1390  -33.0860 C.3       1 CHO601      0.0000 
      4 O3         20.2470  -33.0880  -33.7650 O.3       1 CHO601      0.0000 
      5 C4         18.3780  -33.5760  -32.3270 C.3       1 CHO601      0.0000 
      6 C5         17.4930  -34.6490  -31.6840 C.3       1 CHO601      0.0000 
      7 C6         16.3030  -34.0220  -30.9530 C.3       1 CHO601      0.0000 
      8 C7         15.1470  -33.5760  -31.8400 C.3       1 CHO601      0.0000 
      9 O7         15.4690  -32.3510  -32.5040 O.3       1 CHO601      0.0000 
     10 C8         14.7650  -34.6400  -32.8810 C.3       1 CHO601      0.0000 
     11 C9         15.9820  -35.1950  -33.6360 C.3       1 CHO601      0.0000 
     12 C10        17.0600  -35.7700  -32.6660 C.3       1 CHO601      0.0000 
     13 C11        15.5630  -36.1980  -34.7170 C.3       1 CHO601      0.0000 
     14 C12        14.4450  -35.6920  -35.6200 C.3       1 CHO601      0.0000 
     15 C13        13.2210  -35.1980  -34.8290 C.3       1 CHO601      0.0000 
     16 C14        13.7210  -34.1280  -33.8800 C.3       1 CHO601      0.0000 
     17 C15        12.4280  -33.4800  -33.3480 C.3       1 CHO601      0.0000 
     18 C16        11.4260  -33.6110  -34.5120 C.3       1 CHO601      0.0000 
     19 C17        12.1680  -34.3820  -35.6210 C.3       1 CHO601      0.0000 
     20 C18        12.5610  -36.3620  -34.0680 C.3       1 CHO601      0.0000 
     21 C19        16.5090  -36.9770  -31.8880 C.3       1 CHO601      0.0000 
     22 C20        11.2440  -35.1040  -36.6300 C.3       1 CHO601      0.0000 
     23 C21        11.2810  -34.4610  -38.0080 C.3       1 CHO601      0.0000 
     24 C22         9.7850  -35.1900  -36.1390 C.3       1 CHO601      0.0000 
     25 C23         9.0010  -36.3780  -36.6810 C.3       1 CHO601      0.0000 
     26 C24         9.4170  -37.6890  -36.0500 C.2       1 CHO601      0.0000 
     27 O24        10.1590  -38.4850  -36.6240 O.2       1 CHO601      0.0000 
     28 N25         8.9390  -37.9110  -34.8310 N.am      1 CHO601      0.0000 
     29 C26         9.2410  -39.1080  -34.0740 C.3       1 CHO601      0.0000 
     30 C27         7.9900  -39.9070  -33.7840 C.2       1 CHO601      0.0000 
     31 OT1         8.0830  -40.9030  -33.0300 O.co2     1 CHO601      0.0000 
     32 OT2         6.9100  -39.5560  -34.3110 O.co2     1 CHO601      0.0000 
@<TRIPOS>BOND
     1    1    2 1    
     2    1   12 1    
     3    2    3 1    
     4    3    4 1    
     5    3    5 1    
     6    5    6 1    
     7    6    7 1    
     8    6   12 1    
     9    7    8 1    
    10    8    9 1    
    11    8   10 1    
    12   10   11 1    
    13   10   16 1    
    14   11   12 1    
    15   11   13 1    
    16   12   21 1    
    17   13   14 1    
    18   14   15 1    
    19   15   16 1    
    20   15   19 1    
    21   15   20 1    
    22   16   17 1    
    23   17   18 1    
    24   18   19 1    
    25   19   22 1    
    26   22   23 1    
    27   22   24 1    
    28   24   25 1    
    29   25   26 1    
    30   26   27 2    
    31   26   28 am   
    32   28   29 1    
    33   29   30 1    
    34   30   31 ar   
    35   30   32 ar   
@<TRIPOS>SUBSTRUCTURE
     1 CHO601      1 GROUP   
@<TRIPOS>SET

