#    Name: 6h6l_4_CHO_CAVITY_N1_4
#    Modification time : Fri May 22 19:24:15 2020

@<TRIPOS>MOLECULE
6h6l_4_CHO_CAVITY_N1_4
   62     0     5     0     0
SMALL
NO_CHARGES


@<TRIPOS>ATOM
      1 OG         10.5300  -37.5400  -33.4900 O.3       1 SER1        0.0000 
      2 OG         11.9700  -36.2600  -34.3900 O.3       1 SER1        0.0000 
      3 OG         14.0100  -36.3900  -33.8200 O.3       1 SER1        0.0000 
      4 N           8.9100  -37.1000  -35.4700 N.am      2 ALA2        0.0000 
      5 N           9.9300  -36.1300  -34.9600 N.am      2 ALA2        0.0000 
      6 O          12.3800  -38.0300  -36.2500 O.2       2 ALA2        0.0000 
      7 O          13.4000  -37.0600  -35.7400 O.2       2 ALA2        0.0000 
      8 N          12.8000  -35.6600  -37.2100 N.am      2 ALA2        0.0000 
      9 N          12.2000  -34.2500  -38.6800 N.am      2 ALA2        0.0000 
     10 N          10.5900  -31.7400  -40.2200 N.am      2 ALA2        0.0000 
     11 N          12.6200  -33.9500  -40.0900 N.am      2 ALA2        0.0000 
     12 N          13.0300  -33.6500  -41.5000 N.am      2 ALA2        0.0000 
     13 N          13.8300  -34.6800  -36.7000 N.am      2 ALA2        0.0000 
     14 N          14.8400  -35.7900  -36.6400 N.am      2 ALA2        0.0000 
     15 N          13.2300  -33.2800  -38.1700 N.am      2 ALA2        0.0000 
     16 N          13.6400  -32.9800  -39.5800 N.am      2 ALA2        0.0000 
     17 CZ         10.5400  -35.4600  -33.0400 C.ar      3 PHE5        0.0000 
     18 CZ         11.5600  -36.5600  -32.9800 C.ar      3 PHE5        0.0000 
     19 CZ         10.9600  -33.0900  -34.0100 C.ar      3 PHE5        0.0000 
     20 CZ         12.9900  -35.2900  -33.8800 C.ar      3 PHE5        0.0000 
     21 CZ         11.9900  -32.1100  -33.5000 C.ar      3 PHE5        0.0000 
     22 CA          9.9300  -38.2000  -35.4100 C.3       4 GLY6        0.0000 
     23 CA          9.3300  -36.8000  -36.8800 C.3       4 GLY6        0.0000 
     24 CA         10.3400  -37.9000  -36.8200 C.3       4 GLY6        0.0000 
     25 CA          8.9200  -35.0300  -35.0300 C.3       4 GLY6        0.0000 
     26 CA         10.9500  -37.2300  -34.9000 C.3       4 GLY6        0.0000 
     27 CA          9.3300  -34.7300  -36.4400 C.3       4 GLY6        0.0000 
     28 CA         10.7600  -35.5300  -37.7800 C.3       4 GLY6        0.0000 
     29 CA         11.7800  -36.6300  -37.7200 C.3       4 GLY6        0.0000 
     30 CA         11.1800  -35.2200  -39.1900 C.3       4 GLY6        0.0000 
     31 CA         12.2000  -36.3200  -39.1300 C.3       4 GLY6        0.0000 
     32 CA         10.5800  -33.8200  -40.6600 C.3       4 GLY6        0.0000 
     33 CA         11.6000  -34.9200  -40.6000 C.3       4 GLY6        0.0000 
     34 CA         10.9600  -35.1600  -34.4500 C.3       4 GLY6        0.0000 
     35 CA         12.9900  -37.3600  -34.3300 C.3       4 GLY6        0.0000 
     36 CA         10.3600  -33.7500  -35.9300 C.3       4 GLY6        0.0000 
     37 CA          9.7600  -32.3500  -37.4000 C.3       4 GLY6        0.0000 
     38 CA         10.7700  -33.4500  -37.3400 C.3       4 GLY6        0.0000 
     39 CA         13.8200  -36.7600  -37.1500 C.3       4 GLY6        0.0000 
     40 CA         15.0300  -37.4900  -33.7600 C.3       4 GLY6        0.0000 
     41 CA         11.3800  -32.7800  -35.4200 C.3       4 GLY6        0.0000 
     42 CA         14.4300  -36.0900  -35.2300 C.3       4 GLY6        0.0000 
     43 CA         10.7800  -31.3800  -36.8900 C.3       4 GLY6        0.0000 
     44 CA         11.7900  -32.4800  -36.8200 C.3       4 GLY6        0.0000 
     45 CA         11.1900  -31.0800  -38.3000 C.3       4 GLY6        0.0000 
     46 CA         15.4500  -35.1200  -34.7200 C.3       4 GLY6        0.0000 
     47 DU         10.3500  -35.8300  -36.3700 H         5 CUB7        0.0000 
     48 DU         11.3600  -36.9300  -36.3100 H         5 CUB7        0.0000 
     49 DU         11.3700  -34.8600  -35.8600 H         5 CUB7        0.0000 
     50 DU         12.3900  -35.9600  -35.8000 H         5 CUB7        0.0000 
     51 DU         11.7900  -34.5500  -37.2700 H         5 CUB7        0.0000 
     52 DU         11.1900  -33.1500  -38.7400 H         5 CUB7        0.0000 
     53 DU         11.6000  -32.8500  -40.1500 H         5 CUB7        0.0000 
     54 DU         11.9800  -34.1900  -33.9400 H         5 CUB7        0.0000 
     55 DU         12.3900  -33.8800  -35.3500 H         5 CUB7        0.0000 
     56 DU         13.4100  -34.9900  -35.2900 H         5 CUB7        0.0000 
     57 DU         12.8100  -33.5800  -36.7600 H         5 CUB7        0.0000 
     58 DU         12.2100  -32.1800  -38.2300 H         5 CUB7        0.0000 
     59 DU         12.6200  -31.8700  -39.6400 H         5 CUB7        0.0000 
     60 DU         13.0000  -33.2200  -33.4300 H         5 CUB7        0.0000 
     61 DU         14.0200  -34.3200  -33.3700 H         5 CUB7        0.0000 
     62 DU         14.4300  -34.0200  -34.7800 H         5 CUB7        0.0000 
@<TRIPOS>BOND
@<TRIPOS>SUBSTRUCTURE
     1 SER1        1 GROUP   
     2 ALA2        4 GROUP   
     3 PHE5       17 GROUP   
     4 GLY6       22 GROUP   
     5 CUB7       47 GROUP   
@<TRIPOS>SET

