#    Name: 6h6l_1_CHO
#    Modification time : Fri May 22 19:23:57 2020

@<TRIPOS>MOLECULE
6h6l_1_CHO
   32    35     1     0     0
SMALL
NO_CHARGES


@<TRIPOS>ATOM
      1 C1         58.5770  -17.8090  -30.7650 C.3       1 CHO603      0.0000 
      2 C2         59.7070  -18.7090  -31.2690 C.3       1 CHO603      0.0000 
      3 C3         60.5840  -19.1270  -30.1060 C.3       1 CHO603      0.0000 
      4 O3         61.6380  -19.9590  -30.5990 O.3       1 CHO603      0.0000 
      5 C4         61.1570  -17.9060  -29.4250 C.3       1 CHO603      0.0000 
      6 C5         60.0860  -16.9100  -28.9660 C.3       1 CHO603      0.0000 
      7 C6         60.7130  -15.6880  -28.2880 C.3       1 CHO603      0.0000 
      8 C7         61.2880  -14.6370  -29.2280 C.3       1 CHO603      0.0000 
      9 O7         62.5500  -15.0710  -29.7410 O.3       1 CHO603      0.0000 
     10 C8         60.3460  -14.3080  -30.3970 C.3       1 CHO603      0.0000 
     11 C9         59.7890  -15.5620  -31.0880 C.3       1 CHO603      0.0000 
     12 C10        59.0750  -16.5200  -30.0790 C.3       1 CHO603      0.0000 
     13 C11        58.9270  -15.1940  -32.3040 C.3       1 CHO603      0.0000 
     14 C12        59.5920  -14.2020  -33.2540 C.3       1 CHO603      0.0000 
     15 C13        60.0850  -12.9350  -32.5330 C.3       1 CHO603      0.0000 
     16 C14        61.0210  -13.4110  -31.4370 C.3       1 CHO603      0.0000 
     17 C15        61.7420  -12.1330  -30.9680 C.3       1 CHO603      0.0000 
     18 C16        61.7920  -11.2400  -32.2240 C.3       1 CHO603      0.0000 
     19 C17        61.0380  -12.0050  -33.3300 C.3       1 CHO603      0.0000 
     20 C18        58.8930  -12.1490  -31.9520 C.3       1 CHO603      0.0000 
     21 C19        57.8430  -15.8440  -29.4500 C.3       1 CHO603      0.0000 
     22 C20        60.4670  -11.0960  -34.4440 C.3       1 CHO603      0.0000 
     23 C21        61.1930  -11.2710  -35.7700 C.3       1 CHO603      0.0000 
     24 C22        60.4640   -9.6080  -34.0370 C.3       1 CHO603      0.0000 
     25 C23        59.4130   -8.7500  -34.7340 C.3       1 CHO603      0.0000 
     26 C24        58.0080   -9.0120  -34.2360 C.2       1 CHO603      0.0000 
     27 O24        57.2230   -9.7140  -34.8700 O.2       1 CHO603      0.0000 
     28 N25        57.6730   -8.4440  -33.0830 N.am      1 CHO603      0.0000 
     29 C26        56.3630   -8.6220  -32.4850 C.3       1 CHO603      0.0000 
     30 C27        55.6050   -7.3170  -32.3680 C.2       1 CHO603      0.0000 
     31 OT1        54.5120   -7.3210  -31.7580 O.co2     1 CHO603      0.0000 
     32 OT2        56.0840   -6.2840  -32.8860 O.co2     1 CHO603      0.0000 
@<TRIPOS>BOND
     1    1    2 1    
     2    1   12 1    
     3    2    3 1    
     4    3    4 1    
     5    3    5 1    
     6    5    6 1    
     7    6    7 1    
     8    6   12 1    
     9    7    8 1    
    10    8    9 1    
    11    8   10 1    
    12   10   11 1    
    13   10   16 1    
    14   11   12 1    
    15   11   13 1    
    16   12   21 1    
    17   13   14 1    
    18   14   15 1    
    19   15   16 1    
    20   15   19 1    
    21   15   20 1    
    22   16   17 1    
    23   17   18 1    
    24   18   19 1    
    25   19   22 1    
    26   22   23 1    
    27   22   24 1    
    28   24   25 1    
    29   25   26 1    
    30   26   27 2    
    31   26   28 am   
    32   28   29 1    
    33   29   30 1    
    34   30   31 ar   
    35   30   32 ar   
@<TRIPOS>SUBSTRUCTURE
     1 CHO603      1 GROUP   
@<TRIPOS>SET

