#    Name: 6h6l_2_CHO
#    Modification time : Fri May 22 19:24:03 2020

@<TRIPOS>MOLECULE
6h6l_2_CHO
   32    35     1     0     0
SMALL
NO_CHARGES


@<TRIPOS>ATOM
      1 C1         37.7390    7.7610  -30.2990 C.3       1 CHO601      0.0000 
      2 C2         36.6430    8.6900  -30.8180 C.3       1 CHO601      0.0000 
      3 C3         35.7470    9.0970  -29.6670 C.3       1 CHO601      0.0000 
      4 O3         34.7390    9.9810  -30.1600 O.3       1 CHO601      0.0000 
      5 C4         35.1170    7.8740  -29.0430 C.3       1 CHO601      0.0000 
      6 C5         36.1460    6.8380  -28.5750 C.3       1 CHO601      0.0000 
      7 C6         35.4660    5.6060  -27.9710 C.3       1 CHO601      0.0000 
      8 C7         34.8900    4.6230  -28.9810 C.3       1 CHO601      0.0000 
      9 O7         33.6640    5.1260  -29.5180 O.3       1 CHO601      0.0000 
     10 C8         35.8690    4.3150  -30.1270 C.3       1 CHO601      0.0000 
     11 C9         36.5000    5.5760  -30.7340 C.3       1 CHO601      0.0000 
     12 C10        37.1920    6.4690  -29.6610 C.3       1 CHO601      0.0000 
     13 C11        37.4340    5.2310  -31.9000 C.3       1 CHO601      0.0000 
     14 C12        36.8030    4.3100  -32.9360 C.3       1 CHO601      0.0000 
     15 C13        36.2140    3.0370  -32.3060 C.3       1 CHO601      0.0000 
     16 C14        35.2240    3.4920  -31.2480 C.3       1 CHO601      0.0000 
     17 C15        34.4370    2.2170  -30.8940 C.3       1 CHO601      0.0000 
     18 C16        34.4390    1.3930  -32.1970 C.3       1 CHO601      0.0000 
     19 C17        35.2850    2.1880  -33.2100 C.3       1 CHO601      0.0000 
     20 C18        37.3380    2.1750  -31.6990 C.3       1 CHO601      0.0000 
     21 C19        38.3890    5.7370  -29.0250 C.3       1 CHO601      0.0000 
     22 C20        35.9170    1.3270  -34.3270 C.3       1 CHO601      0.0000 
     23 C21        35.3080    1.5910  -35.6970 C.3       1 CHO601      0.0000 
     24 C22        35.8730   -0.1820  -34.0100 C.3       1 CHO601      0.0000 
     25 C23        36.9210   -0.9820  -34.7720 C.3       1 CHO601      0.0000 
     26 C24        38.3120   -0.7360  -34.2320 C.2       1 CHO601      0.0000 
     27 O24        39.0910    0.0290  -34.7940 O.2       1 CHO601      0.0000 
     28 N25        38.6490   -1.3890  -33.1260 N.am      1 CHO601      0.0000 
     29 C26        39.9530   -1.2180  -32.5170 C.3       1 CHO601      0.0000 
     30 C27        40.7510   -2.5020  -32.5120 C.2       1 CHO601      0.0000 
     31 OT1        41.8450   -2.5130  -31.9020 O.co2     1 CHO601      0.0000 
     32 OT2        40.3050   -3.5000  -33.1210 O.co2     1 CHO601      0.0000 
@<TRIPOS>BOND
     1    1    2 1    
     2    1   12 1    
     3    2    3 1    
     4    3    4 1    
     5    3    5 1    
     6    5    6 1    
     7    6    7 1    
     8    6   12 1    
     9    7    8 1    
    10    8    9 1    
    11    8   10 1    
    12   10   11 1    
    13   10   16 1    
    14   11   12 1    
    15   11   13 1    
    16   12   21 1    
    17   13   14 1    
    18   14   15 1    
    19   15   16 1    
    20   15   19 1    
    21   15   20 1    
    22   16   17 1    
    23   17   18 1    
    24   18   19 1    
    25   19   22 1    
    26   22   23 1    
    27   22   24 1    
    28   24   25 1    
    29   25   26 1    
    30   26   27 2    
    31   26   28 am   
    32   28   29 1    
    33   29   30 1    
    34   30   31 ar   
    35   30   32 ar   
@<TRIPOS>SUBSTRUCTURE
     1 CHO601      1 GROUP   
@<TRIPOS>SET

