#    Name: 6h6l_2_CHO_CAVITY_N1_ALL
#    Modification time : Fri May 22 19:24:04 2020

@<TRIPOS>MOLECULE
6h6l_2_CHO_CAVITY_N1_ALL
   91     0     7     0     0
SMALL
NO_CHARGES


@<TRIPOS>ATOM
      1 OG         36.8300    3.1500  -31.3700 O.3       1 SER1        0.0000 
      2 OG         37.8400    2.0500  -31.3100 O.3       1 SER1        0.0000 
      3 OG         38.8600    0.9500  -31.2500 O.3       1 SER1        0.0000 
      4 N          30.3300    2.8100  -39.7500 N.am      2 ALA2        0.0000 
      5 N          31.5400    2.0700  -36.3600 N.am      2 ALA2        0.0000 
      6 N          31.9500    2.3800  -37.7700 N.am      2 ALA2        0.0000 
      7 N          32.9700    1.2700  -37.7000 N.am      2 ALA2        0.0000 
      8 N          32.3700    2.6800  -39.1800 N.am      2 ALA2        0.0000 
      9 N          36.2100   -1.6700  -34.1900 N.am      2 ALA2        0.0000 
     10 N          35.6100   -0.2600  -35.6600 N.am      2 ALA2        0.0000 
     11 N          36.6200   -1.3600  -35.6000 N.am      2 ALA2        0.0000 
     12 N          37.2300   -0.6900  -33.6800 N.am      2 ALA2        0.0000 
     13 N          38.2500   -1.8000  -33.6100 N.am      2 ALA2        0.0000 
     14 N          34.6000    2.9200  -35.2700 N.am      2 ALA2        0.0000 
     15 N          34.0000    4.3200  -36.7500 N.am      2 ALA2        0.0000 
     16 N          35.0100    3.2200  -36.6800 N.am      2 ALA2        0.0000 
     17 N          33.4000    5.7200  -38.2200 N.am      2 ALA2        0.0000 
     18 N          34.4100    4.6200  -38.1600 N.am      2 ALA2        0.0000 
     19 N          35.4300    3.5200  -38.0900 N.am      2 ALA2        0.0000 
     20 N          32.8000    7.1300  -39.6900 N.am      2 ALA2        0.0000 
     21 N          34.8300    4.9300  -39.5600 N.am      2 ALA2        0.0000 
     22 N          35.8400    3.8200  -39.5000 N.am      2 ALA2        0.0000 
     23 N          34.2300    6.3300  -41.0400 N.am      2 ALA2        0.0000 
     24 O          35.2400    5.2300  -40.9700 O.2       2 ALA2        0.0000 
     25 N          36.2600    4.1300  -40.9100 N.am      2 ALA2        0.0000 
     26 N          37.8400   -0.0200  -31.7600 N.am      2 ALA2        0.0000 
     27 N          38.8500   -1.1300  -31.7000 N.am      2 ALA2        0.0000 
     28 N          38.2500    0.2800  -33.1700 N.am      2 ALA2        0.0000 
     29 N          39.2700   -0.8200  -33.1000 N.am      2 ALA2        0.0000 
     30 N          35.6200    3.8900  -34.7600 N.am      2 ALA2        0.0000 
     31 N          36.6400    2.7800  -34.7000 N.am      2 ALA2        0.0000 
     32 O          37.6500    1.6800  -34.6400 O.2       2 ALA2        0.0000 
     33 N          37.0500    3.0900  -36.1100 N.am      2 ALA2        0.0000 
     34 N          37.4700    3.3900  -37.5200 N.am      2 ALA2        0.0000 
     35 N          35.8500    5.9000  -39.0500 N.am      2 ALA2        0.0000 
     36 N          36.8700    4.7900  -38.9900 N.am      2 ALA2        0.0000 
     37 N          36.2700    6.2000  -40.4600 N.am      2 ALA2        0.0000 
     38 O          37.2400    3.4500  -32.7800 O.2       2 ALA2        0.0000 
     39 N          36.6400    4.8600  -34.2500 N.am      2 ALA2        0.0000 
     40 O          37.6600    3.7600  -34.1900 O.2       2 ALA2        0.0000 
     41 N          40.1100    1.8500  -35.4800 N.am      2 ALA2        0.0000 
     42 OD1        40.2800   -1.9300  -33.0400 O.co2     3 ASP3        0.0000 
     43 NZ         31.3500    3.7800  -39.2400 N.4       4 LYS4        0.0000 
     44 NZ         32.7800    2.9800  -40.5900 N.4       4 LYS4        0.0000 
     45 NZ         32.7900    5.0600  -40.1400 N.4       4 LYS4        0.0000 
     46 NZ         32.1900    6.4600  -41.6100 N.4       4 LYS4        0.0000 
     47 NZ         33.2100    5.3600  -41.5500 N.4       4 LYS4        0.0000 
     48 CZ         34.3700    0.9100  -30.9800 C.ar      5 PHE5        0.0000 
     49 CZ         36.8200    1.0800  -31.8200 C.ar      5 PHE5        0.0000 
     50 CA         32.5500    0.9700  -36.2900 C.3       6 GLY6        0.0000 
     51 CA         33.3800    1.5800  -39.1100 C.3       6 GLY6        0.0000 
     52 CA         33.7600    0.2400  -32.9000 C.3       6 GLY6        0.0000 
     53 CA         33.1600    1.6400  -34.3800 C.3       6 GLY6        0.0000 
     54 CA         34.1800    0.5400  -34.3100 C.3       6 GLY6        0.0000 
     55 CA         35.1900   -0.5600  -34.2500 C.3       6 GLY6        0.0000 
     56 CA         33.9900    2.2500  -37.1900 C.3       6 GLY6        0.0000 
     57 CA         35.0100    1.1400  -37.1300 C.3       6 GLY6        0.0000 
     58 CA         34.4100    2.5500  -38.6000 C.3       6 GLY6        0.0000 
     59 CA         33.8100    3.9500  -40.0800 C.3       6 GLY6        0.0000 
     60 CA         34.8200    2.8500  -40.0100 C.3       6 GLY6        0.0000 
     61 CA         34.7800    1.2100  -32.3900 C.3       6 GLY6        0.0000 
     62 CA         35.8000    0.1100  -32.3300 C.3       6 GLY6        0.0000 
     63 CA         36.6300    0.7100  -35.1500 C.3       6 GLY6        0.0000 
     64 CA         37.6400   -0.3900  -35.0900 C.3       6 GLY6        0.0000 
     65 CA         38.6600   -1.4900  -35.0200 C.3       6 GLY6        0.0000 
     66 CA         36.0300    2.1200  -36.6200 C.3       6 GLY6        0.0000 
     67 CA         33.8100    6.0300  -39.6300 C.3       6 GLY6        0.0000 
     68 CA         39.6800   -0.5200  -34.5100 C.3       6 GLY6        0.0000 
     69 CA         38.0700    1.9900  -36.0500 C.3       6 GLY6        0.0000 
     70 CA         39.0800    0.8800  -35.9900 C.3       6 GLY6        0.0000 
     71 CA         40.1000   -0.2200  -35.9200 C.3       6 GLY6        0.0000 
     72 CA         38.2600    2.3500  -32.7200 C.3       6 GLY6        0.0000 
     73 CA         39.2700    1.2500  -32.6600 C.3       6 GLY6        0.0000 
     74 CA         40.2900    0.1500  -32.5900 C.3       6 GLY6        0.0000 
     75 CA         39.6900    1.5500  -34.0700 C.3       6 GLY6        0.0000 
     76 CA         40.7100    0.4500  -34.0000 C.3       6 GLY6        0.0000 
     77 DU         32.5600    3.0500  -35.8500 H         7 CUB7        0.0000 
     78 DU         33.5800    1.9400  -35.7800 H         7 CUB7        0.0000 
     79 DU         34.5900    0.8400  -35.7200 H         7 CUB7        0.0000 
     80 DU         32.9700    3.3500  -37.2600 H         7 CUB7        0.0000 
     81 DU         32.3700    4.7500  -38.7300 H         7 CUB7        0.0000 
     82 DU         33.3900    3.6500  -38.6700 H         7 CUB7        0.0000 
     83 DU         34.1800    2.6100  -33.8700 H         7 CUB7        0.0000 
     84 DU         35.2000    1.5100  -33.8000 H         7 CUB7        0.0000 
     85 DU         36.2100    0.4100  -33.7400 H         7 CUB7        0.0000 
     86 DU         35.6100    1.8100  -35.2100 H         7 CUB7        0.0000 
     87 DU         35.8100    2.1800  -31.8800 H         7 CUB7        0.0000 
     88 DU         35.2100    3.5800  -33.3600 H         7 CUB7        0.0000 
     89 DU         36.2200    2.4800  -33.2900 H         7 CUB7        0.0000 
     90 DU         37.2400    1.3800  -33.2300 H         7 CUB7        0.0000 
     91 DU         38.6700    0.5800  -34.5800 H         7 CUB7        0.0000 
@<TRIPOS>BOND
@<TRIPOS>SUBSTRUCTURE
     1 SER1        1 GROUP   
     2 ALA2        4 GROUP   
     3 ASP3       42 GROUP   
     4 LYS4       43 GROUP   
     5 PHE5       48 GROUP   
     6 GLY6       50 GROUP   
     7 CUB7       77 GROUP   
@<TRIPOS>SET

