#    Name: 5zgb_16_ZEX
#    Modification time : Fri May 22 19:30:26 2020

@<TRIPOS>MOLECULE
5zgb_16_ZEX
   42    43     1     0     0
SMALL
NO_CHARGES


@<TRIPOS>ATOM
      1 C6        179.7180  124.7650   80.7470 C.2       1 ZEX612      0.0000 
      2 C17       180.5180  125.7180   78.5370 C.3       1 ZEX612      0.0000 
      3 C4        180.9530  126.6080   82.0990 C.3       1 ZEX612      0.0000 
      4 C3        180.7760  127.5580   80.9110 C.3       1 ZEX612      0.0000 
      5 O3        180.7520  128.8910   81.3830 O.3       1 ZEX612      0.0000 
      6 C2        179.4850  127.2740   80.1800 C.3       1 ZEX612      0.0000 
      7 C1        179.4470  125.8570   79.6550 C.3       1 ZEX612      0.0000 
      8 C5        180.8700  125.1420   81.7080 C.2       1 ZEX612      0.0000 
      9 C18       180.7870  124.3540   83.0030 C.3       1 ZEX612      0.0000 
     10 C16       178.0810  125.6500   79.0030 C.3       1 ZEX612      0.0000 
     11 O23       159.6350  113.8870   76.1760 O.3       1 ZEX612      0.0000 
     12 C26       161.4720  115.0810   79.2160 C.2       1 ZEX612      0.0000 
     13 C7        178.3990  124.2520   81.4710 C.2       1 ZEX612      0.0000 
     14 C8        178.0030  122.9080   81.2960 C.2       1 ZEX612      0.0000 
     15 C9        176.7540  122.3320   81.9480 C.2       1 ZEX612      0.0000 
     16 C19       177.1560  121.1390   82.7530 C.3       1 ZEX612      0.0000 
     17 C10       175.7910  121.9310   80.8280 C.2       1 ZEX612      0.0000 
     18 C11       174.9090  120.7110   81.1000 C.2       1 ZEX612      0.0000 
     19 C12       174.9510  119.6530   80.2310 C.2       1 ZEX612      0.0000 
     20 C13       174.0780  118.4480   80.4710 C.2       1 ZEX612      0.0000 
     21 C20       174.5340  117.7220   81.6940 C.3       1 ZEX612      0.0000 
     22 C14       172.6390  118.9650   80.6670 C.2       1 ZEX612      0.0000 
     23 C15       171.5350  118.1260   80.0300 C.2       1 ZEX612      0.0000 
     24 C35       170.4400  118.8260   79.5720 C.2       1 ZEX612      0.0000 
     25 C34       169.1900  118.1890   78.9300 C.2       1 ZEX612      0.0000 
     26 C33       168.1110  119.2380   78.7210 C.2       1 ZEX612      0.0000 
     27 C40       167.9760  120.1440   79.9320 C.3       1 ZEX612      0.0000 
     28 C32       166.7600  118.5950   78.4870 C.2       1 ZEX612      0.0000 
     29 C31       165.7430  119.4030   78.0460 C.2       1 ZEX612      0.0000 
     30 C30       164.3480  118.8270   77.7930 C.2       1 ZEX612      0.0000 
     31 C29       163.7440  118.2980   79.0780 C.2       1 ZEX612      0.0000 
     32 C39       162.6850  119.2410   79.5490 C.3       1 ZEX612      0.0000 
     33 C28       163.1260  116.9300   78.7810 C.2       1 ZEX612      0.0000 
     34 C27       162.0740  116.4340   79.5310 C.2       1 ZEX612      0.0000 
     35 C21       159.9370  115.2010   79.1320 C.3       1 ZEX612      0.0000 
     36 C36       159.5270  116.4190   78.3160 C.3       1 ZEX612      0.0000 
     37 C37       159.4030  115.3880   80.5640 C.3       1 ZEX612      0.0000 
     38 C22       159.2530  113.9640   78.5470 C.3       1 ZEX612      0.0000 
     39 C23       159.9420  113.2470   77.4060 C.3       1 ZEX612      0.0000 
     40 C24       161.4480  113.1670   77.5760 C.3       1 ZEX612      0.0000 
     41 C25       162.0550  114.5220   77.9250 C.2       1 ZEX612      0.0000 
     42 C38       162.0620  112.6790   76.2830 C.3       1 ZEX612      0.0000 
@<TRIPOS>BOND
     1    1    7 1    
     2    1    8 2    
     3    1   13 1    
     4    2    7 1    
     5    3    4 1    
     6    3    8 1    
     7    4    5 1    
     8    4    6 1    
     9    6    7 1    
    10    7   10 1    
    11    8    9 1    
    12   11   39 1    
    13   12   34 1    
    14   12   35 1    
    15   12   41 2    
    16   13   14 2    
    17   14   15 1    
    18   15   16 1    
    19   15   17 2    
    20   17   18 1    
    21   18   19 2    
    22   19   20 1    
    23   20   21 1    
    24   20   22 2    
    25   22   23 1    
    26   23   24 2    
    27   24   25 1    
    28   25   26 2    
    29   26   27 1    
    30   26   28 1    
    31   28   29 2    
    32   29   30 1    
    33   30   31 2    
    34   31   32 1    
    35   31   33 1    
    36   33   34 2    
    37   35   36 1    
    38   35   37 1    
    39   35   38 1    
    40   38   39 1    
    41   39   40 1    
    42   40   41 1    
    43   40   42 1    
@<TRIPOS>SUBSTRUCTURE
     1 ZEX612      1 GROUP   
@<TRIPOS>SET

