#    Name: 6r10_2_ADP_CAVITY_N1_4
#    Modification time : Fri May 22 19:26:07 2020

@<TRIPOS>MOLECULE
6r10_2_ADP_CAVITY_N1_4
   64     0     6     0     0
SMALL
NO_CHARGES


@<TRIPOS>ATOM
      1 OG         79.3200   73.7500  211.2100 O.3       1 SER1        0.0000 
      2 N          77.1800   77.6500  207.7900 N.am      2 ALA2        0.0000 
      3 N          75.3800   78.2200  209.5700 N.am      2 ALA2        0.0000 
      4 N          78.6000   78.7900  208.8600 N.am      2 ALA2        0.0000 
      5 N          77.4500   77.9100  209.2400 N.am      2 ALA2        0.0000 
      6 N          74.7300   79.6700  210.9700 N.am      2 ALA2        0.0000 
      7 N          79.1100   81.1300  209.8800 N.am      2 ALA2        0.0000 
      8 N          75.6500   78.4900  211.0200 N.am      2 ALA2        0.0000 
      9 N          78.8800   79.0600  210.3100 N.am      2 ALA2        0.0000 
     10 N          77.7200   78.1800  210.6900 N.am      2 ALA2        0.0000 
     11 OD1        79.2500   77.3400  207.4500 O.co2     3 ASP3        0.0000 
     12 OD1        79.0200   75.2800  207.8800 O.co2     3 ASP3        0.0000 
     13 OD1        80.4400   76.4200  208.9500 O.co2     3 ASP3        0.0000 
     14 OD1        73.5700   78.7900  211.3500 O.co2     3 ASP3        0.0000 
     15 OD1        74.4900   77.6100  211.4000 O.co2     3 ASP3        0.0000 
     16 OD1        75.4100   76.4200  211.4400 O.co2     3 ASP3        0.0000 
     17 OD1        73.8500   79.0600  212.8000 O.co2     3 ASP3        0.0000 
     18 OD1        72.6900   78.1800  213.1800 O.co2     3 ASP3        0.0000 
     19 OD1        74.7600   77.8700  212.8500 O.co2     3 ASP3        0.0000 
     20 OD1        73.6100   76.9900  213.2200 O.co2     3 ASP3        0.0000 
     21 OD1        74.5300   75.8100  213.2700 O.co2     3 ASP3        0.0000 
     22 OD1        75.9500   76.9600  214.3400 O.co2     3 ASP3        0.0000 
     23 NZ         77.8300   76.1900  206.3800 N.4       4 LYS4        0.0000 
     24 NZ         78.1000   76.4600  207.8300 N.4       4 LYS4        0.0000 
     25 NZ         76.9400   75.5800  208.2100 N.4       4 LYS4        0.0000 
     26 NZ         77.8600   74.4000  208.2600 N.4       4 LYS4        0.0000 
     27 NZ         79.2900   75.5400  209.3300 N.4       4 LYS4        0.0000 
     28 NZ         78.6400   77.0000  210.7300 N.4       4 LYS4        0.0000 
     29 NZ         79.5600   75.8100  210.7800 N.4       4 LYS4        0.0000 
     30 NZ         78.4000   74.9300  211.1600 N.4       4 LYS4        0.0000 
     31 NZ         80.0600   78.1500  211.8100 N.4       4 LYS4        0.0000 
     32 NZ         78.6700   75.2000  212.6100 N.4       4 LYS4        0.0000 
     33 CA         79.7600   79.6700  208.4800 C.3       5 GLY6        0.0000 
     34 CA         76.3000   77.0300  209.6100 C.3       5 GLY6        0.0000 
     35 CA         80.6800   78.4900  208.5300 C.3       5 GLY6        0.0000 
     36 CA         79.5200   77.6100  208.9100 C.3       5 GLY6        0.0000 
     37 CA         77.2100   75.8500  209.6600 C.3       5 GLY6        0.0000 
     38 CA         76.0600   74.9700  210.0400 C.3       5 GLY6        0.0000 
     39 CA         80.0300   79.9400  209.9300 C.3       5 GLY6        0.0000 
     40 CA         79.7900   77.8800  210.3600 C.3       5 GLY6        0.0000 
     41 CA         76.1500   80.8200  212.0400 C.3       5 GLY6        0.0000 
     42 CA         75.0000   79.9400  212.4200 C.3       5 GLY6        0.0000 
     43 CA         79.3800   81.4000  211.3300 C.3       5 GLY6        0.0000 
     44 CA         78.2300   80.5100  211.7100 C.3       5 GLY6        0.0000 
     45 CA         77.0700   79.6300  212.0900 C.3       5 GLY6        0.0000 
     46 CA         75.9200   78.7500  212.4700 C.3       5 GLY6        0.0000 
     47 CA         80.3000   80.2100  211.3800 C.3       5 GLY6        0.0000 
     48 CA         79.1500   79.3300  211.7600 C.3       5 GLY6        0.0000 
     49 CA         77.9900   78.4500  212.1400 C.3       5 GLY6        0.0000 
     50 CA         76.8400   77.5700  212.5200 C.3       5 GLY6        0.0000 
     51 CA         78.9100   77.2700  212.1900 C.3       5 GLY6        0.0000 
     52 CA         77.7600   76.3900  212.5600 C.3       5 GLY6        0.0000 
     53 CA         76.6000   75.5100  212.9400 C.3       5 GLY6        0.0000 
     54 CA         75.0400   78.1400  214.3000 C.3       5 GLY6        0.0000 
     55 CA         79.4200   79.6000  213.2100 C.3       5 GLY6        0.0000 
     56 DU         78.3700   76.7300  209.2800 H         6 CUB7        0.0000 
     57 DU         78.1300   74.6600  209.7100 H         6 CUB7        0.0000 
     58 DU         76.9800   73.7800  210.0900 H         6 CUB7        0.0000 
     59 DU         76.5700   77.3000  211.0700 H         6 CUB7        0.0000 
     60 DU         77.4900   76.1200  211.1100 H         6 CUB7        0.0000 
     61 DU         76.3300   75.2400  211.4900 H         6 CUB7        0.0000 
     62 DU         77.2500   74.0500  211.5400 H         6 CUB7        0.0000 
     63 DU         75.6800   76.6900  212.8900 H         6 CUB7        0.0000 
     64 DU         74.8000   76.0800  214.7200 H         6 CUB7        0.0000 
@<TRIPOS>BOND
@<TRIPOS>SUBSTRUCTURE
     1 SER1        1 GROUP   
     2 ALA2        2 GROUP   
     3 ASP3       11 GROUP   
     4 LYS4       23 GROUP   
     5 GLY6       33 GROUP   
     6 CUB7       56 GROUP   
@<TRIPOS>SET

