#    Name: 6r10_1_ADP
#    Modification time : Fri May 22 19:25:57 2020

@<TRIPOS>MOLECULE
6r10_1_ADP
   27    29     1     0     1
SMALL
NO_CHARGES


@<TRIPOS>ATOM
      1 PB         82.5770   94.9660  180.1920 P.3       1 ADP602      0.0000 
      2 O1B        81.3420   95.2280  179.3720 O.co2     1 ADP602      0.0000 
      3 O2B        82.9860   93.5210  180.3280 O.co2     1 ADP602      0.0000 
      4 O3B        82.6410   95.7440  181.4800 O.co2     1 ADP602      0.0000 
      5 PA         84.6610   96.7630  179.8310 P.3       1 ADP602      0.0000 
      6 O1A        83.8130   97.9910  180.0800 O.co2     1 ADP602      0.0000 
      7 O2A        85.4490   96.1380  180.9560 O.co2     1 ADP602      0.0000 
      8 O3A        83.7050   95.6100  179.2550 O.3       1 ADP602      0.0000 
      9 O5'        85.6490   97.0280  178.5870 O.3       1 ADP602      0.0000 
     10 C5'        85.3940   96.3850  177.3400 C.3       1 ADP602      0.0000 
     11 C4'        86.3840   96.8240  176.2730 C.3       1 ADP602      0.0000 
     12 O4'        85.7020   97.5330  175.2450 O.3       1 ADP602      0.0000 
     13 C3'        87.4500   97.7550  176.8140 C.3       1 ADP602      0.0000 
     14 O3'        88.7050   97.0860  176.8110 O.3       1 ADP602      0.0000 
     15 C2'        87.5320   98.9050  175.8400 C.3       1 ADP602      0.0000 
     16 O2'        88.8580   98.9790  175.3130 O.3       1 ADP602      0.0000 
     17 C1'        86.5280   98.5810  174.7510 C.3       1 ADP602      0.0000 
     18 N9         85.6620   99.7460  174.4670 N.pl3     1 ADP602      0.0000 
     19 C8         84.4940   99.9980  175.0770 C.2       1 ADP602      0.0000 
     20 N7         83.9370  101.1400  174.6040 N.2       1 ADP602      0.0000 
     21 C5         84.7680  101.6380  173.6750 C.ar      1 ADP602      0.0000 
     22 C6         84.7910  102.8210  172.7900 C.ar      1 ADP602      0.0000 
     23 N6         83.7770  103.7190  172.8070 N.pl3     1 ADP602      0.0000 
     24 N1         85.8450  102.9640  171.9600 N.ar      1 ADP602      0.0000 
     25 C2         86.8540  102.0750  171.9320 C.ar      1 ADP602      0.0000 
     26 N3         86.8980  100.9820  172.7090 N.ar      1 ADP602      0.0000 
     27 C4         85.9020  100.7120  173.5830 C.ar      1 ADP602      0.0000 
@<TRIPOS>BOND
     1    1    2 ar   
     2    1    3 ar   
     3    1    4 ar   
     4    1    8 1    
     5    5    6 ar   
     6    5    7 ar   
     7    5    8 1    
     8    5    9 1    
     9    9   10 1    
    10   10   11 1    
    11   11   12 1    
    12   11   13 1    
    13   12   17 1    
    14   13   14 1    
    15   13   15 1    
    16   15   16 1    
    17   15   17 1    
    18   17   18 1    
    19   18   19 1    
    20   18   27 1    
    21   19   20 2    
    22   20   21 1    
    23   21   22 ar   
    24   21   27 ar   
    25   22   23 1    
    26   22   24 ar   
    27   24   25 ar   
    28   25   26 ar   
    29   26   27 ar   
@<TRIPOS>SUBSTRUCTURE
     1 ADP602      1 GROUP   
@<TRIPOS>SET
ATOM$ORANGE STATIC     ATOMS   COLORGROUP SYSTEM 
20 10 10 11 11 13 13 15 15 17 17 19 19 21 21 22 22 25 \
25 27 27 

