#    Name: 6r10_2_ADP
#    Modification time : Fri May 22 19:26:06 2020

@<TRIPOS>MOLECULE
6r10_2_ADP
   27    29     1     0     1
SMALL
NO_CHARGES


@<TRIPOS>ATOM
      1 PB         79.1750   79.2170  211.6170 P.3       1 ADP501      0.0000 
      2 O1B        79.2640   79.9720  210.3180 O.co2     1 ADP501      0.0000 
      3 O2B        80.0690   78.0100  211.6800 O.co2     1 ADP501      0.0000 
      4 O3B        79.2690   80.1060  212.8250 O.co2     1 ADP501      0.0000 
      5 PA         77.2130   77.1760  211.1710 P.3       1 ADP501      0.0000 
      6 O1A        75.7050   77.1540  211.1170 O.co2     1 ADP501      0.0000 
      7 O2A        77.9160   76.1320  212.0010 O.co2     1 ADP501      0.0000 
      8 O3A        77.6600   78.6630  211.6160 O.3       1 ADP501      0.0000 
      9 O5'        77.7340   77.0510  209.6550 O.3       1 ADP501      0.0000 
     10 C5'        78.7970   76.1710  209.3090 C.3       1 ADP501      0.0000 
     11 C4'        79.2360   76.4430  207.8800 C.3       1 ADP501      0.0000 
     12 O4'        80.1420   75.4140  207.4940 O.3       1 ADP501      0.0000 
     13 C3'        78.0580   76.4160  206.9290 C.3       1 ADP501      0.0000 
     14 O3'        78.0340   77.6210  206.1760 O.3       1 ADP501      0.0000 
     15 C2'        78.3150   75.2810  205.9710 C.3       1 ADP501      0.0000 
     16 O2'        78.3530   75.7630  204.6270 O.3       1 ADP501      0.0000 
     17 C1'        79.6510   74.6890  206.3720 C.3       1 ADP501      0.0000 
     18 N9         79.3920   73.2810  206.7530 N.pl3     1 ADP501      0.0000 
     19 C8         78.3610   72.5300  206.3260 C.2       1 ADP501      0.0000 
     20 N7         78.3950   71.2840  206.8500 N.2       1 ADP501      0.0000 
     21 C5         79.4710   71.2260  207.6440 C.ar      1 ADP501      0.0000 
     22 C6         80.0870   70.1960  208.4970 C.ar      1 ADP501      0.0000 
     23 N6         79.5370   68.9630  208.6060 N.pl3     1 ADP501      0.0000 
     24 N1         81.2090   70.5330  209.1610 N.ar      1 ADP501      0.0000 
     25 C2         81.7560   71.7570  209.0560 C.ar      1 ADP501      0.0000 
     26 N3         81.2520   72.7410  208.2950 N.ar      1 ADP501      0.0000 
     27 C4         80.1310   72.5380  207.5720 C.ar      1 ADP501      0.0000 
@<TRIPOS>BOND
     1    1    2 ar   
     2    1    3 ar   
     3    1    4 ar   
     4    1    8 1    
     5    5    6 ar   
     6    5    7 ar   
     7    5    8 1    
     8    5    9 1    
     9    9   10 1    
    10   10   11 1    
    11   11   12 1    
    12   11   13 1    
    13   12   17 1    
    14   13   14 1    
    15   13   15 1    
    16   15   16 1    
    17   15   17 1    
    18   17   18 1    
    19   18   19 1    
    20   18   27 1    
    21   19   20 2    
    22   20   21 1    
    23   21   22 ar   
    24   21   27 ar   
    25   22   23 1    
    26   22   24 ar   
    27   24   25 ar   
    28   25   26 ar   
    29   26   27 ar   
@<TRIPOS>SUBSTRUCTURE
     1 ADP501      1 GROUP   
@<TRIPOS>SET
ATOM$ORANGE STATIC     ATOMS   COLORGROUP SYSTEM 
20 10 10 11 11 13 13 15 15 17 17 19 19 21 21 22 22 25 \
25 27 27 

