#    Name: 6n4n_2_TSV
#    Modification time : Fri May 22 19:27:17 2020

@<TRIPOS>MOLECULE
6n4n_2_TSV
   51    56     1     0     0
SMALL
NO_CHARGES


@<TRIPOS>ATOM
      1 C1         -3.0730   18.2340    8.4050 C.3       1 TSV1202     0.0000 
      2 F1        -10.4720   13.5610   10.2570 F         1 TSV1202     0.0000 
      3 N1         -6.8890   14.1900    4.1050 N.am      1 TSV1202     0.0000 
      4 O1         -9.2610   13.9440    4.3890 O.3       1 TSV1202     0.0000 
      5 S1          1.2190   16.0730    9.4560 S.o2      1 TSV1202     0.0000 
      6 C2         -2.3070   16.9630    8.0820 C.3       1 TSV1202     0.0000 
      7 N2         -3.0980   15.7620    8.2290 N.am      1 TSV1202     0.0000 
      8 O2         -7.7330   12.4800    5.3370 O.2       1 TSV1202     0.0000 
      9 C3         -2.9680   17.7790    6.9460 C.3       1 TSV1202     0.0000 
     10 N3         -0.2530   16.0510    9.0520 N.am      1 TSV1202     0.0000 
     11 O3         -5.1760   15.4120    6.0030 O.2       1 TSV1202     0.0000 
     12 C4         -0.8300   17.0770    8.4290 C.2       1 TSV1202     0.0000 
     13 N4         -7.1350   10.7200   10.2140 N.am      1 TSV1202     0.0000 
     14 O4          1.5090   17.2200   10.3400 O.2       1 TSV1202     0.0000 
     15 C5         -2.0040   18.5570    6.0570 C.2       1 TSV1202     0.0000 
     16 N5         -4.6340   13.2910    6.5710 N.am      1 TSV1202     0.0000 
     17 O5         -5.1930    9.6120    9.7880 O.2       1 TSV1202     0.0000 
     18 C6        -10.4930   13.3960    6.4710 C.3       1 TSV1202     0.0000 
     19 O6          2.0830   16.1510    8.2710 O.2       1 TSV1202     0.0000 
     20 C7        -11.5990   14.3040    4.4510 C.3       1 TSV1202     0.0000 
     21 O7         -1.9690   14.4400    6.7860 O.2       1 TSV1202     0.0000 
     22 C8        -10.6970   11.9870    4.4040 C.3       1 TSV1202     0.0000 
     23 O8         -5.6930   11.4320    8.4850 O.3       1 TSV1202     0.0000 
     24 C9        -10.4730   13.4030    4.9420 C.3       1 TSV1202     0.0000 
     25 O9         -0.1960   18.0900    8.1820 O.2       1 TSV1202     0.0000 
     26 C10        -1.8040   18.3040    4.7570 C.2       1 TSV1202     0.0000 
     27 C11        -2.8850   14.6310    7.5700 C.2       1 TSV1202     0.0000 
     28 C12        -7.6100    9.8920   11.3470 C.2       1 TSV1202     0.0000 
     29 C13        -2.5120   17.2160    3.9470 C.3       1 TSV1202     0.0000 
     30 C14       -10.8710   11.1100   12.9680 C.ar      1 TSV1202     0.0000 
     31 C15        -3.9490   13.6130    7.8320 C.3       1 TSV1202     0.0000 
     32 C16        -9.7450   10.2860   12.8100 C.ar      1 TSV1202     0.0000 
     33 C17       -11.1210   12.2050   12.1170 C.ar      1 TSV1202     0.0000 
     34 C18        -1.5650   16.1420    3.3970 C.3       1 TSV1202     0.0000 
     35 C19        -2.2910   15.1020    2.5120 C.3       1 TSV1202     0.0000 
     36 C20        -7.8980   13.4860    4.6450 C.2       1 TSV1202     0.0000 
     37 C21       -10.2450   12.5150   11.0700 C.ar      1 TSV1202     0.0000 
     38 C22        -3.1760   14.0760    3.2380 C.3       1 TSV1202     0.0000 
     39 C23         1.5840   14.6120   10.2240 C.3       1 TSV1202     0.0000 
     40 C24        -8.8760   10.5800   11.7610 C.ar      1 TSV1202     0.0000 
     41 C25        -4.6550   14.4770    3.2010 C.3       1 TSV1202     0.0000 
     42 C26        -9.1280   11.7170   10.8850 C.ar      1 TSV1202     0.0000 
     43 C27        -3.4650   12.2640    8.3430 C.3       1 TSV1202     0.0000 
     44 C28        -5.4910   13.8260    4.3150 C.3       1 TSV1202     0.0000 
     45 C29         2.8750   14.6700   11.0370 C.3       1 TSV1202     0.0000 
     46 C30        -4.4690   11.2880    7.7760 C.3       1 TSV1202     0.0000 
     47 C31        -8.0450   11.8270    9.8490 C.2       1 TSV1202     0.0000 
     48 C32         1.5320   14.7180   11.7480 C.3       1 TSV1202     0.0000 
     49 C33        -5.0780   14.2390    5.7150 C.2       1 TSV1202     0.0000 
     50 C34        -4.7320   11.8350    6.3950 C.3       1 TSV1202     0.0000 
     51 C35        -5.9880   10.5100    9.5550 C.2       1 TSV1202     0.0000 
@<TRIPOS>BOND
     1    1    6 1    
     2    1    9 1    
     3    2   37 1    
     4    3   36 am   
     5    3   44 1    
     6    4   24 1    
     7    4   36 1    
     8    5   10 1    
     9    5   14 2    
    10    5   19 2    
    11    5   39 1    
    12    6    7 1    
    13    6    9 1    
    14    6   12 1    
    15    7   27 am   
    16    8   36 2    
    17    9   15 1    
    18   10   12 am   
    19   11   49 2    
    20   12   25 2    
    21   13   28 1    
    22   13   47 1    
    23   13   51 am   
    24   15   26 2    
    25   16   31 1    
    26   16   49 am   
    27   16   50 1    
    28   17   51 2    
    29   18   24 1    
    30   20   24 1    
    31   21   27 2    
    32   22   24 1    
    33   23   46 1    
    34   23   51 1    
    35   26   29 1    
    36   27   31 1    
    37   28   40 2    
    38   29   34 1    
    39   30   32 ar   
    40   30   33 ar   
    41   31   43 1    
    42   32   40 ar   
    43   33   37 ar   
    44   34   35 1    
    45   35   38 1    
    46   37   42 ar   
    47   38   41 1    
    48   39   45 1    
    49   39   48 1    
    50   40   42 ar   
    51   41   44 1    
    52   42   47 2    
    53   43   46 1    
    54   44   49 1    
    55   45   48 1    
    56   46   50 1    
@<TRIPOS>SUBSTRUCTURE
     1 TSV1202     1 GROUP   
@<TRIPOS>SET

