#    Name: 6n4n_1_TSV
#    Modification time : Fri May 22 19:27:09 2020

@<TRIPOS>MOLECULE
6n4n_1_TSV
   51    56     1     0     0
SMALL
NO_CHARGES


@<TRIPOS>ATOM
      1 C1        -13.3910   -6.8300   38.4590 C.3       1 TSV1202     0.0000 
      2 F1        -17.8850   -2.0180   32.3780 F         1 TSV1202     0.0000 
      3 N1        -18.8890   -2.6950   39.4890 N.am      1 TSV1202     0.0000 
      4 O1        -20.5700   -2.4350   37.7940 O.3       1 TSV1202     0.0000 
      5 S1         -9.2060   -4.6830   40.2130 S.o2      1 TSV1202     0.0000 
      6 C2        -12.9020   -5.5640   39.1490 C.3       1 TSV1202     0.0000 
      7 N2        -13.4100   -4.3570   38.5300 N.am      1 TSV1202     0.0000 
      8 O2        -18.8160   -0.9460   38.0370 O.2       1 TSV1202     0.0000 
      9 C3        -14.1240   -6.3310   39.7030 C.3       1 TSV1202     0.0000 
     10 N3        -10.6530   -4.6710   39.6630 N.am      1 TSV1202     0.0000 
     11 O3        -16.3640   -3.9530   39.0960 O.2       1 TSV1202     0.0000 
     12 C4        -11.4950   -5.7110   39.7410 C.2       1 TSV1202     0.0000 
     13 N4        -15.3280    0.7620   34.5540 N.am      1 TSV1202     0.0000 
     14 O4         -8.4560   -5.8510   39.7230 O.2       1 TSV1202     0.0000 
     15 C5        -13.9010   -7.1300   40.9780 C.2       1 TSV1202     0.0000 
     16 N5        -15.6130   -1.8290   38.9680 N.am      1 TSV1202     0.0000 
     17 O5        -13.9920    1.7700   36.0790 O.2       1 TSV1202     0.0000 
     18 C6        -20.2660   -1.8950   35.3970 C.3       1 TSV1202     0.0000 
     19 O6         -9.3070   -4.7010   41.6720 O.2       1 TSV1202     0.0000 
     20 C7        -22.3980   -2.7480   36.3460 C.3       1 TSV1202     0.0000 
     21 O7        -13.4790   -3.0940   40.3830 O.2       1 TSV1202     0.0000 
     22 C8        -21.6490   -0.4450   36.9040 C.3       1 TSV1202     0.0000 
     23 O8        -15.2930    0.0180   36.8060 O.3       1 TSV1202     0.0000 
     24 C9        -21.1790   -1.8750   36.6230 C.3       1 TSV1202     0.0000 
     25 O9        -11.1430   -6.7740   40.2350 O.2       1 TSV1202     0.0000 
     26 C10       -14.5350   -6.8960   42.1420 C.2       1 TSV1202     0.0000 
     27 C11       -13.6700   -3.2370   39.1930 C.2       1 TSV1202     0.0000 
     28 C12       -15.0100    1.6470   33.4100 C.2       1 TSV1202     0.0000 
     29 C13       -15.5780   -5.8110   42.3920 C.3       1 TSV1202     0.0000 
     30 C14       -16.5490    0.5200   30.0610 C.ar      1 TSV1202     0.0000 
     31 C15       -14.3170   -2.1670   38.3590 C.3       1 TSV1202     0.0000 
     32 C16       -15.7670    1.3280   30.9090 C.ar      1 TSV1202     0.0000 
     33 C17       -17.2600   -0.6000   30.5430 C.ar      1 TSV1202     0.0000 
     34 C18       -15.0680   -4.6680   43.2750 C.3       1 TSV1202     0.0000 
     35 C19       -16.1610   -3.6180   43.5680 C.3       1 TSV1202     0.0000 
     36 C20       -19.3540   -1.9720   38.4540 C.2       1 TSV1202     0.0000 
     37 C21       -17.2220   -0.9490   31.9040 C.ar      1 TSV1202     0.0000 
     38 C22       -16.4230   -2.6200   42.4240 C.3       1 TSV1202     0.0000 
     39 C23        -8.4690   -3.2480   39.7720 C.3       1 TSV1202     0.0000 
     40 C24       -15.7270    0.9830   32.2670 C.ar      1 TSV1202     0.0000 
     41 C25       -17.6760   -2.9980   41.6000 C.3       1 TSV1202     0.0000 
     42 C26       -16.4650   -0.1740   32.7650 C.ar      1 TSV1202     0.0000 
     43 C27       -13.6090   -0.8280   38.2820 C.3       1 TSV1202     0.0000 
     44 C28       -17.6690   -2.3500   40.2060 C.3       1 TSV1202     0.0000 
     45 C29        -6.9540   -3.3150   39.9210 C.3       1 TSV1202     0.0000 
     46 C30       -14.7460    0.1570   38.1210 C.3       1 TSV1202     0.0000 
     47 C31       -16.2600   -0.3370   34.2450 C.2       1 TSV1202     0.0000 
     48 C32        -7.5950   -3.4120   38.5360 C.3       1 TSV1202     0.0000 
     49 C33       -16.4880   -2.7740   39.3680 C.2       1 TSV1202     0.0000 
     50 C34       -15.7860   -0.3820   39.0750 C.3       1 TSV1202     0.0000 
     51 C35       -14.8190    0.9210   35.7800 C.2       1 TSV1202     0.0000 
@<TRIPOS>BOND
     1    1    6 1    
     2    1    9 1    
     3    2   37 1    
     4    3   36 am   
     5    3   44 1    
     6    4   24 1    
     7    4   36 1    
     8    5   10 1    
     9    5   14 2    
    10    5   19 2    
    11    5   39 1    
    12    6    7 1    
    13    6    9 1    
    14    6   12 1    
    15    7   27 am   
    16    8   36 2    
    17    9   15 1    
    18   10   12 am   
    19   11   49 2    
    20   12   25 2    
    21   13   28 1    
    22   13   47 1    
    23   13   51 am   
    24   15   26 2    
    25   16   31 1    
    26   16   49 am   
    27   16   50 1    
    28   17   51 2    
    29   18   24 1    
    30   20   24 1    
    31   21   27 2    
    32   22   24 1    
    33   23   46 1    
    34   23   51 1    
    35   26   29 1    
    36   27   31 1    
    37   28   40 2    
    38   29   34 1    
    39   30   32 ar   
    40   30   33 ar   
    41   31   43 1    
    42   32   40 ar   
    43   33   37 ar   
    44   34   35 1    
    45   35   38 1    
    46   37   42 ar   
    47   38   41 1    
    48   39   45 1    
    49   39   48 1    
    50   40   42 ar   
    51   41   44 1    
    52   42   47 2    
    53   43   46 1    
    54   44   49 1    
    55   45   48 1    
    56   46   50 1    
@<TRIPOS>SUBSTRUCTURE
     1 TSV1202     1 GROUP   
@<TRIPOS>SET

