#    Name: 6cip_1_HTL
#    Modification time : Fri May 22 19:38:58 2020

@<TRIPOS>MOLECULE
6cip_1_HTL
   29    30     1     0     0
SMALL
NO_CHARGES


@<TRIPOS>ATOM
      1 N1'       -29.0450  -50.0600   53.2970 N.ar      1 HTL1204     0.0000 
      2 C2'       -28.1550  -50.3420   52.3600 C.ar      1 HTL1204     0.0000 
      3 C2A       -26.6810  -50.5110   52.7590 C.3       1 HTL1204     0.0000 
      4 N3'       -28.4940  -50.4840   51.0840 N.ar      1 HTL1204     0.0000 
      5 C4'       -29.7730  -50.3410   50.6820 C.ar      1 HTL1204     0.0000 
      6 N4'       -30.1020  -50.5050   49.3010 N.pl3     1 HTL1204     0.0000 
      7 C5'       -30.7640  -50.0480   51.6330 C.ar      1 HTL1204     0.0000 
      8 C6'       -30.3340  -49.9100   52.9870 C.ar      1 HTL1204     0.0000 
      9 C35       -32.2890  -49.8750   51.2400 C.3       1 HTL1204     0.0000 
     10 N3        -32.5430  -48.7650   50.3830 N.pl3     1 HTL1204     0.0000 
     11 C2        -32.7860  -48.8060   49.0500 C.2       1 HTL1204     0.0000 
     12 S1        -33.0630  -47.1640   48.4350 S.3       1 HTL1204     0.0000 
     13 C5        -32.8480  -46.4770   50.0880 C.2       1 HTL1204     0.0000 
     14 C4        -32.5880  -47.4770   50.9690 C.2       1 HTL1204     0.0000 
     15 C4A       -32.3650  -47.2560   52.4310 C.3       1 HTL1204     0.0000 
     16 C5A       -32.9550  -44.9890   50.3730 C.3       1 HTL1204     0.0000 
     17 C5B       -33.0590  -44.0900   49.1080 C.3       1 HTL1204     0.0000 
     18 O5G       -33.3140  -42.7640   49.5930 O.3       1 HTL1204     0.0000 
     19 P1        -32.4800  -41.5880   48.9650 P.3       1 HTL1204     0.0000 
     20 O11       -32.6930  -41.6170   47.3880 O.3       1 HTL1204     0.0000 
     21 O12       -31.0220  -41.7800   49.2950 O.co2     1 HTL1204     0.0000 
     22 O13       -32.9480  -40.2790   49.5170 O.co2     1 HTL1204     0.0000 
     23 P2        -34.1240  -41.4660   46.7010 P.3       1 HTL1204     0.0000 
     24 O21       -33.9670  -40.8380   45.3440 O.co2     1 HTL1204     0.0000 
     25 O22       -34.7550  -42.8340   46.5510 O.co2     1 HTL1204     0.0000 
     26 O23       -35.0040  -40.6140   47.5770 O.co2     1 HTL1204     0.0000 
     27 C1'       -32.8310  -49.9720   48.0910 C.2       1 HTL1204     0.0000 
     28 O2'       -32.6410  -51.1350   48.4730 O.2       1 HTL1204     0.0000 
     29 C3'       -33.1130  -49.6830   46.6440 C.3       1 HTL1204     0.0000 
@<TRIPOS>BOND
     1    1    2 ar   
     2    1    8 ar   
     3    2    3 1    
     4    2    4 ar   
     5    4    5 ar   
     6    5    6 1    
     7    5    7 ar   
     8    7    8 ar   
     9    7    9 1    
    10    9   10 1    
    11   10   11 2    
    12   10   14 1    
    13   11   12 1    
    14   11   27 1    
    15   12   13 1    
    16   13   14 2    
    17   13   16 1    
    18   14   15 1    
    19   16   17 1    
    20   17   18 1    
    21   18   19 1    
    22   19   20 1    
    23   19   21 ar   
    24   19   22 ar   
    25   20   23 1    
    26   23   24 ar   
    27   23   25 ar   
    28   23   26 ar   
    29   27   28 2    
    30   27   29 1    
@<TRIPOS>SUBSTRUCTURE
     1 HTL1204     1 GROUP   
@<TRIPOS>SET

