#    Name: 6cip_4_HTL
#    Modification time : Fri May 22 19:39:38 2020

@<TRIPOS>MOLECULE
6cip_4_HTL
   29    30     1     0     0
SMALL
NO_CHARGES


@<TRIPOS>ATOM
      1 N1'      -103.3700  -80.8610   89.8140 N.ar      1 HTL1204     0.0000 
      2 C2'      -102.4140  -79.9660   89.6460 C.ar      1 HTL1204     0.0000 
      3 C2A      -100.9970  -80.4460   89.2980 C.3       1 HTL1204     0.0000 
      4 N3'      -102.6440  -78.6670   89.7720 N.ar      1 HTL1204     0.0000 
      5 C4'      -103.8740  -78.2010   90.0820 C.ar      1 HTL1204     0.0000 
      6 N4'      -104.0910  -76.7930   90.2070 N.pl3     1 HTL1204     0.0000 
      7 C5'      -104.9290  -79.1090   90.2660 C.ar      1 HTL1204     0.0000 
      8 C6'      -104.6160  -80.4900   90.1160 C.ar      1 HTL1204     0.0000 
      9 C35      -106.3970  -78.6410   90.6320 C.3       1 HTL1204     0.0000 
     10 N3       -106.4700  -77.9990   91.9070 N.pl3     1 HTL1204     0.0000 
     11 C2       -106.5900  -76.6670   92.1330 C.2       1 HTL1204     0.0000 
     12 S1       -106.6500  -76.3480   93.8760 S.3       1 HTL1204     0.0000 
     13 C5       -106.5220  -78.1120   94.2430 C.2       1 HTL1204     0.0000 
     14 C4       -106.4360  -78.8070   93.0750 C.2       1 HTL1204     0.0000 
     15 C4A      -106.3220  -80.2970   93.0170 C.3       1 HTL1204     0.0000 
     16 C5A      -106.4960  -78.6620   95.6650 C.3       1 HTL1204     0.0000 
     17 C5B      -106.3560  -77.6090   96.8100 C.3       1 HTL1204     0.0000 
     18 O5G      -106.5210  -78.3240   98.0480 O.3       1 HTL1204     0.0000 
     19 P1       -105.6240  -77.9490   99.2930 P.3       1 HTL1204     0.0000 
     20 O11      -105.7730  -76.4070   99.6500 O.3       1 HTL1204     0.0000 
     21 O12      -104.1860  -78.2370   98.9530 O.co2     1 HTL1204     0.0000 
     22 O13      -106.0270  -78.7770  100.4720 O.co2     1 HTL1204     0.0000 
     23 P2       -107.1670  -75.6960   99.9620 P.3       1 HTL1204     0.0000 
     24 O21      -107.7690  -75.1430   98.6820 O.co2     1 HTL1204     0.0000 
     25 O22      -106.9290  -74.5570  100.9120 O.co2     1 HTL1204     0.0000 
     26 O23      -108.1070  -76.7150  100.5500 O.co2     1 HTL1204     0.0000 
     27 C1'      -106.6680  -75.4990   91.1780 C.2       1 HTL1204     0.0000 
     28 O2'      -106.6300  -75.6520   89.9490 O.2       1 HTL1204     0.0000 
     29 C3'      -106.7960  -74.1260   91.7710 C.3       1 HTL1204     0.0000 
@<TRIPOS>BOND
     1    1    2 ar   
     2    1    8 ar   
     3    2    3 1    
     4    2    4 ar   
     5    4    5 ar   
     6    5    6 1    
     7    5    7 ar   
     8    7    8 ar   
     9    7    9 1    
    10    9   10 1    
    11   10   11 2    
    12   10   14 1    
    13   11   12 1    
    14   11   27 1    
    15   12   13 1    
    16   13   14 2    
    17   13   16 1    
    18   14   15 1    
    19   16   17 1    
    20   17   18 1    
    21   18   19 1    
    22   19   20 1    
    23   19   21 ar   
    24   19   22 ar   
    25   20   23 1    
    26   23   24 ar   
    27   23   25 ar   
    28   23   26 ar   
    29   27   28 2    
    30   27   29 1    
@<TRIPOS>SUBSTRUCTURE
     1 HTL1204     1 GROUP   
@<TRIPOS>SET

