#    Name: 6cip_3_HTL_CAVITY_N1_8
#    Modification time : Fri May 22 19:39:26 2020

@<TRIPOS>MOLECULE
6cip_3_HTL_CAVITY_N1_8
   37     0     3     0     0
SMALL
NO_CHARGES


@<TRIPOS>ATOM
      1 OG        -77.8000  -96.0600   83.0000 O.3       1 SER1        0.0000 
      2 OG        -76.5200  -95.5100   83.5700 O.3       1 SER1        0.0000 
      3 O         -79.0700  -96.6100   82.4300 O.2       2 ALA2        0.0000 
      4 N         -76.0500 -101.6200   84.4300 N.am      2 ALA2        0.0000 
      5 N         -75.8300 -100.3700   82.7300 N.am      2 ALA2        0.0000 
      6 N         -76.2700  -98.9800   82.3700 N.am      2 ALA2        0.0000 
      7 O         -77.3600  -97.4500   83.3600 O.2       2 ALA2        0.0000 
      8 N         -75.4400 -100.9300   86.3400 N.am      2 ALA2        0.0000 
      9 N         -74.7800 -101.0700   85.0000 N.am      2 ALA2        0.0000 
     10 N         -75.2100  -99.6800   84.6400 N.am      2 ALA2        0.0000 
     11 N         -74.9900  -98.4300   82.9400 N.am      2 ALA2        0.0000 
     12 N         -76.0900  -96.9000   83.9300 N.am      2 ALA2        0.0000 
     13 N         -75.4300  -97.0400   82.5900 N.am      2 ALA2        0.0000 
     14 N         -73.9400 -103.0300   88.9600 N.am      2 ALA2        0.0000 
     15 N         -74.3800 -101.6400   88.6000 N.am      2 ALA2        0.0000 
     16 N         -74.8200 -100.2500   88.2500 N.am      2 ALA2        0.0000 
     17 N         -74.1600 -100.3900   86.9100 N.am      2 ALA2        0.0000 
     18 N         -74.1500  -96.4900   83.1600 N.am      2 ALA2        0.0000 
     19 N         -75.2500  -94.9600   84.1400 N.am      2 ALA2        0.0000 
     20 N         -72.8900  -99.8400   87.4800 N.am      2 ALA2        0.0000 
     21 N         -73.3200  -98.4500   87.1200 N.am      2 ALA2        0.0000 
     22 N         -74.4100  -93.0300   84.3500 N.am      2 ALA2        0.0000 
     23 N         -72.2700  -99.1600   89.3900 N.am      2 ALA2        0.0000 
     24 CA        -77.1000 -100.9100   82.1600 C.3       3 GLY6        0.0000 
     25 CA        -76.8800  -99.6600   80.4600 C.3       3 GLY6        0.0000 
     26 CA        -77.9800  -98.1300   81.4400 C.3       3 GLY6        0.0000 
     27 CA        -75.6100  -99.1100   81.0300 C.3       3 GLY6        0.0000 
     28 CA        -76.7000  -97.5900   82.0100 C.3       3 GLY6        0.0000 
     29 CA        -76.0500  -97.7200   80.6700 C.3       3 GLY6        0.0000 
     30 CA        -77.1400  -96.2000   81.6600 C.3       3 GLY6        0.0000 
     31 CA        -75.0000 -102.3200   86.6900 C.3       3 GLY6        0.0000 
     32 CA        -74.7700  -97.1800   81.2400 C.3       3 GLY6        0.0000 
     33 CA        -75.8700  -95.6500   82.2300 C.3       3 GLY6        0.0000 
     34 CA        -75.2100  -95.7900   80.8900 C.3       3 GLY6        0.0000 
     35 CA        -73.7200 -101.7800   87.2600 C.3       3 GLY6        0.0000 
     36 CA        -74.5900  -95.1000   82.8000 C.3       3 GLY6        0.0000 
     37 CA        -73.1100 -101.0900   89.1700 C.3       3 GLY6        0.0000 
@<TRIPOS>BOND
@<TRIPOS>SUBSTRUCTURE
     1 SER1        1 GROUP   
     2 ALA2        3 GROUP   
     3 GLY6       24 GROUP   
@<TRIPOS>SET

