#    Name: 6cip_2_HTL
#    Modification time : Fri May 22 19:39:12 2020

@<TRIPOS>MOLECULE
6cip_2_HTL
   29    30     1     0     0
SMALL
NO_CHARGES


@<TRIPOS>ATOM
      1 N1'       -10.6120  -50.3050   61.7800 N.ar      1 HTL1204     0.0000 
      2 C2'       -11.4900  -50.6720   62.6970 C.ar      1 HTL1204     0.0000 
      3 C2A       -12.9650  -50.8640   62.3020 C.3       1 HTL1204     0.0000 
      4 N3'       -11.1310  -50.8780   63.9530 N.ar      1 HTL1204     0.0000 
      5 C4'        -9.8530  -50.7280   64.3550 C.ar      1 HTL1204     0.0000 
      6 N4'        -9.5180  -50.9630   65.7250 N.pl3     1 HTL1204     0.0000 
      7 C5'        -8.8800  -50.3310   63.4240 C.ar      1 HTL1204     0.0000 
      8 C6'        -9.3230  -50.1320   62.0870 C.ar      1 HTL1204     0.0000 
      9 C35        -7.3540  -50.1470   63.8060 C.3       1 HTL1204     0.0000 
     10 N3         -7.1210  -49.1310   64.7730 N.pl3     1 HTL1204     0.0000 
     11 C2         -6.8490  -49.3370   66.0840 C.2       1 HTL1204     0.0000 
     12 S1         -6.6200  -47.7850   66.9160 S.3       1 HTL1204     0.0000 
     13 C5         -6.9070  -46.8980   65.3710 C.2       1 HTL1204     0.0000 
     14 C4         -7.1430  -47.7780   64.3610 C.2       1 HTL1204     0.0000 
     15 C4A        -7.4140  -47.3820   62.9450 C.3       1 HTL1204     0.0000 
     16 C5A        -6.8440  -45.3850   65.3110 C.3       1 HTL1204     0.0000 
     17 C5B        -6.7020  -44.6980   66.6990 C.3       1 HTL1204     0.0000 
     18 O5G        -6.4660  -43.3240   66.3760 O.3       1 HTL1204     0.0000 
     19 P1         -7.2950  -42.2290   67.1320 P.3       1 HTL1204     0.0000 
     20 O11        -7.0480  -42.3990   68.6890 O.3       1 HTL1204     0.0000 
     21 O12        -6.8340  -40.8780   66.6850 O.co2     1 HTL1204     0.0000 
     22 O13        -8.7570  -42.4040   66.8050 O.co2     1 HTL1204     0.0000 
     23 P2         -5.5960  -42.3870   69.3450 P.3       1 HTL1204     0.0000 
     24 O21        -4.6750  -41.5200   68.5260 O.co2     1 HTL1204     0.0000 
     25 O22        -5.7110  -41.8480   70.7470 O.co2     1 HTL1204     0.0000 
     26 O23        -5.0390  -43.7960   69.3880 O.co2     1 HTL1204     0.0000 
     27 C1'        -6.7390  -50.6240   66.8680 C.2       1 HTL1204     0.0000 
     28 O2'        -6.8960  -51.7290   66.3280 O.2       1 HTL1204     0.0000 
     29 C3'        -6.4390  -50.5320   68.3380 C.3       1 HTL1204     0.0000 
@<TRIPOS>BOND
     1    1    2 ar   
     2    1    8 ar   
     3    2    3 1    
     4    2    4 ar   
     5    4    5 ar   
     6    5    6 1    
     7    5    7 ar   
     8    7    8 ar   
     9    7    9 1    
    10    9   10 1    
    11   10   11 2    
    12   10   14 1    
    13   11   12 1    
    14   11   27 1    
    15   12   13 1    
    16   13   14 2    
    17   13   16 1    
    18   14   15 1    
    19   16   17 1    
    20   17   18 1    
    21   18   19 1    
    22   19   20 1    
    23   19   21 ar   
    24   19   22 ar   
    25   20   23 1    
    26   23   24 ar   
    27   23   25 ar   
    28   23   26 ar   
    29   27   28 2    
    30   27   29 1    
@<TRIPOS>SUBSTRUCTURE
     1 HTL1204     1 GROUP   
@<TRIPOS>SET

