#    Name: 6cip_6_HTL_CAVITY_N1_6
#    Modification time : Fri May 22 19:40:05 2020

@<TRIPOS>MOLECULE
6cip_6_HTL_CAVITY_N1_6
   22     0     4     0     0
SMALL
NO_CHARGES


@<TRIPOS>ATOM
      1 OG        -99.4700  -19.6200   22.6000 O.3       1 SER1        0.0000 
      2 OG        -98.8100  -19.7600   21.2600 O.3       1 SER1        0.0000 
      3 N         -98.7200  -17.5000   11.0000 N.am      2 ALA2        0.0000 
      4 N         -99.8100  -15.9700   11.9900 N.am      2 ALA2        0.0000 
      5 N         -99.1600  -16.1100   10.6500 N.am      2 ALA2        0.0000 
      6 N        -100.2500  -14.5800   11.6300 N.am      2 ALA2        0.0000 
      7 O        -101.1800  -18.7800   21.6700 O.2       2 ALA2        0.0000 
      8 N         -97.6600  -18.2100   13.2700 N.am      2 ALA2        0.0000 
      9 O         -99.2500  -18.3700   20.9000 O.2       2 ALA2        0.0000 
     10 O        -100.3400  -16.8400   21.8900 O.2       2 ALA2        0.0000 
     11 N         -99.6800  -16.9800   20.5500 N.am      2 ALA2        0.0000 
     12 N        -100.1200  -15.5900   20.1900 N.am      2 ALA2        0.0000 
     13 CZ       -100.9100  -14.4500   12.9700 C.ar      3 PHE5        0.0000 
     14 CA       -102.2700  -17.2500   22.6600 C.3       4 GLY6        0.0000 
     15 CA        -99.9000  -18.2300   22.2400 C.3       4 GLY6        0.0000 
     16 CA       -101.0000  -16.7000   23.2300 C.3       4 GLY6        0.0000 
     17 CA       -102.1000  -15.1800   24.2100 C.3       4 GLY6        0.0000 
     18 CA       -101.4400  -15.3100   22.8700 C.3       4 GLY6        0.0000 
     19 CA       -100.7800  -15.4500   21.5300 C.3       4 GLY6        0.0000 
     20 CA       -101.8700  -13.9200   22.5100 C.3       4 GLY6        0.0000 
     21 CA        -98.6300  -17.6800   22.8100 C.3       4 GLY6        0.0000 
     22 CA        -99.0700  -16.2900   22.4600 C.3       4 GLY6        0.0000 
@<TRIPOS>BOND
@<TRIPOS>SUBSTRUCTURE
     1 SER1        1 GROUP   
     2 ALA2        3 GROUP   
     3 PHE5       13 GROUP   
     4 GLY6       14 GROUP   
@<TRIPOS>SET

