#    Name: 6cip_3_HTL_CAVITY_N1_4
#    Modification time : Fri May 22 19:39:26 2020

@<TRIPOS>MOLECULE
6cip_3_HTL_CAVITY_N1_4
    1     0     1     0     0
SMALL
NO_CHARGES


@<TRIPOS>ATOM
      1 O         -79.0700  -96.6100   82.4300 O.2       1 ALA2        0.0000 
@<TRIPOS>BOND
@<TRIPOS>SUBSTRUCTURE
     1 ALA2        1 GROUP   
@<TRIPOS>SET

