#    Name: 6cip_3_HTL
#    Modification time : Fri May 22 19:39:24 2020

@<TRIPOS>MOLECULE
6cip_3_HTL
   29    30     1     0     0
SMALL
NO_CHARGES


@<TRIPOS>ATOM
      1 N1'       -85.5620  -89.7840   86.3400 N.ar      1 HTL1204     0.0000 
      2 C2'       -86.5130  -90.5290   85.8050 C.ar      1 HTL1204     0.0000 
      3 C2A       -87.9700  -90.0390   85.8340 C.3       1 HTL1204     0.0000 
      4 N3'       -86.2520  -91.6950   85.2420 N.ar      1 HTL1204     0.0000 
      5 C4'       -84.9970  -92.1780   85.1850 C.ar      1 HTL1204     0.0000 
      6 N4'       -84.7620  -93.4440   84.5670 N.pl3     1 HTL1204     0.0000 
      7 C5'       -83.9460  -91.4350   85.7470 C.ar      1 HTL1204     0.0000 
      8 C6'       -84.2870  -90.1830   86.3290 C.ar      1 HTL1204     0.0000 
      9 C35       -82.4400  -91.9250   85.6980 C.3       1 HTL1204     0.0000 
     10 N3        -82.1730  -93.1440   86.3810 N.pl3     1 HTL1204     0.0000 
     11 C2        -81.9870  -94.3560   85.7940 C.2       1 HTL1204     0.0000 
     12 S1        -81.6620  -95.5760   87.0440 S.3       1 HTL1204     0.0000 
     13 C5        -81.7770  -94.3240   88.3400 C.2       1 HTL1204     0.0000 
     14 C4        -82.0410  -93.1080   87.7890 C.2       1 HTL1204     0.0000 
     15 C4A       -82.1990  -91.8390   88.5650 C.3       1 HTL1204     0.0000 
     16 C5A       -81.5730  -94.6720   89.8030 C.3       1 HTL1204     0.0000 
     17 C5B       -81.4470  -96.1900   90.1370 C.3       1 HTL1204     0.0000 
     18 O5G       -81.0720  -96.1790   91.5220 O.3       1 HTL1204     0.0000 
     19 P1        -81.8770  -96.9930   92.5990 P.3       1 HTL1204     0.0000 
     20 O11       -81.8790  -98.5410   92.2280 O.3       1 HTL1204     0.0000 
     21 O12       -83.2890  -96.4650   92.6700 O.co2     1 HTL1204     0.0000 
     22 O13       -81.1940  -96.7600   93.9120 O.co2     1 HTL1204     0.0000 
     23 P2        -80.5640  -99.3980   91.9200 P.3       1 HTL1204     0.0000 
     24 O21       -80.2540  -99.3270   90.4350 O.co2     1 HTL1204     0.0000 
     25 O22       -80.8150 -100.8310   92.3150 O.co2     1 HTL1204     0.0000 
     26 O23       -79.3860  -98.8430   92.6890 O.co2     1 HTL1204     0.0000 
     27 C1'       -82.0380  -94.7660   84.3320 C.2       1 HTL1204     0.0000 
     28 O2'       -82.2670  -93.9510   83.4230 O.2       1 HTL1204     0.0000 
     29 C3'       -81.8100  -96.2110   83.9870 C.3       1 HTL1204     0.0000 
@<TRIPOS>BOND
     1    1    2 ar   
     2    1    8 ar   
     3    2    3 1    
     4    2    4 ar   
     5    4    5 ar   
     6    5    6 1    
     7    5    7 ar   
     8    7    8 ar   
     9    7    9 1    
    10    9   10 1    
    11   10   11 2    
    12   10   14 1    
    13   11   12 1    
    14   11   27 1    
    15   12   13 1    
    16   13   14 2    
    17   13   16 1    
    18   14   15 1    
    19   16   17 1    
    20   17   18 1    
    21   18   19 1    
    22   19   20 1    
    23   19   21 ar   
    24   19   22 ar   
    25   20   23 1    
    26   23   24 ar   
    27   23   25 ar   
    28   23   26 ar   
    29   27   28 2    
    30   27   29 1    
@<TRIPOS>SUBSTRUCTURE
     1 HTL1204     1 GROUP   
@<TRIPOS>SET

