#    Name: 6cip_6_HTL
#    Modification time : Fri May 22 19:40:04 2020

@<TRIPOS>MOLECULE
6cip_6_HTL
   29    30     1     0     0
SMALL
NO_CHARGES


@<TRIPOS>ATOM
      1 N1'      -107.7400  -25.8800   22.7710 N.ar      1 HTL1204     0.0000 
      2 C2'      -108.6950  -24.9920   22.9710 C.ar      1 HTL1204     0.0000 
      3 C2A      -110.1180  -25.4840   23.2800 C.3       1 HTL1204     0.0000 
      4 N3'      -108.4540  -23.6910   22.9120 N.ar      1 HTL1204     0.0000 
      5 C4'      -107.2190  -23.2130   22.6440 C.ar      1 HTL1204     0.0000 
      6 N4'      -107.0110  -21.7980   22.5900 N.pl3     1 HTL1204     0.0000 
      7 C5'      -106.1620  -24.1160   22.4230 C.ar      1 HTL1204     0.0000 
      8 C6'      -106.4890  -25.5000   22.5030 C.ar      1 HTL1204     0.0000 
      9 C35      -104.6770  -23.6540   22.1010 C.3       1 HTL1204     0.0000 
     10 N3       -104.5990  -22.9330   20.8710 N.pl3     1 HTL1204     0.0000 
     11 C2       -104.4580  -21.5930   20.7410 C.2       1 HTL1204     0.0000 
     12 S1       -104.4240  -21.1450   19.0250 S.3       1 HTL1204     0.0000 
     13 C5       -104.5980  -22.8750   18.5370 C.2       1 HTL1204     0.0000 
     14 C4       -104.6800  -23.6510   19.6530 C.2       1 HTL1204     0.0000 
     15 C4A      -104.8310  -25.1380   19.6030 C.3       1 HTL1204     0.0000 
     16 C5A      -104.6650  -23.3360   17.0840 C.3       1 HTL1204     0.0000 
     17 C5B      -104.8100  -22.2260   15.9970 C.3       1 HTL1204     0.0000 
     18 O5G      -104.6770  -22.9050   14.7350 O.3       1 HTL1204     0.0000 
     19 P1       -105.5210  -22.4560   13.4720 P.3       1 HTL1204     0.0000 
     20 O11      -105.2770  -20.9110   13.1920 O.3       1 HTL1204     0.0000 
     21 O12      -105.0880  -23.2690   12.2920 O.co2     1 HTL1204     0.0000 
     22 O13      -106.9930  -22.6630   13.7160 O.co2     1 HTL1204     0.0000 
     23 P2       -103.8290  -20.2650   13.0050 P.3       1 HTL1204     0.0000 
     24 O21      -103.9640  -19.0790   12.0900 O.co2     1 HTL1204     0.0000 
     25 O22      -103.2980  -19.7970   14.3510 O.co2     1 HTL1204     0.0000 
     26 O23      -102.9010  -21.3070   12.4310 O.co2     1 HTL1204     0.0000 
     27 C1'      -104.3350  -20.5090   21.7860 C.2       1 HTL1204     0.0000 
     28 O2'      -104.3560  -20.7580   23.0020 O.2       1 HTL1204     0.0000 
     29 C3'      -104.1890  -19.0940   21.3010 C.3       1 HTL1204     0.0000 
@<TRIPOS>BOND
     1    1    2 ar   
     2    1    8 ar   
     3    2    3 1    
     4    2    4 ar   
     5    4    5 ar   
     6    5    6 1    
     7    5    7 ar   
     8    7    8 ar   
     9    7    9 1    
    10    9   10 1    
    11   10   11 2    
    12   10   14 1    
    13   11   12 1    
    14   11   27 1    
    15   12   13 1    
    16   13   14 2    
    17   13   16 1    
    18   14   15 1    
    19   16   17 1    
    20   17   18 1    
    21   18   19 1    
    22   19   20 1    
    23   19   21 ar   
    24   19   22 ar   
    25   20   23 1    
    26   23   24 ar   
    27   23   25 ar   
    28   23   26 ar   
    29   27   28 2    
    30   27   29 1    
@<TRIPOS>SUBSTRUCTURE
     1 HTL1204     1 GROUP   
@<TRIPOS>SET

