#    Name: 6cip_3_HTL_CAVITY_N1_6
#    Modification time : Fri May 22 19:39:26 2020

@<TRIPOS>MOLECULE
6cip_3_HTL_CAVITY_N1_6
    9     0     3     0     0
SMALL
NO_CHARGES


@<TRIPOS>ATOM
      1 OG        -77.8000  -96.0600   83.0000 O.3       1 SER1        0.0000 
      2 OG        -76.5200  -95.5100   83.5700 O.3       1 SER1        0.0000 
      3 O         -79.0700  -96.6100   82.4300 O.2       2 ALA2        0.0000 
      4 O         -77.3600  -97.4500   83.3600 O.2       2 ALA2        0.0000 
      5 N         -76.0900  -96.9000   83.9300 N.am      2 ALA2        0.0000 
      6 N         -74.8200 -100.2500   88.2500 N.am      2 ALA2        0.0000 
      7 CA        -77.9800  -98.1300   81.4400 C.3       3 GLY6        0.0000 
      8 CA        -76.7000  -97.5900   82.0100 C.3       3 GLY6        0.0000 
      9 CA        -77.1400  -96.2000   81.6600 C.3       3 GLY6        0.0000 
@<TRIPOS>BOND
@<TRIPOS>SUBSTRUCTURE
     1 SER1        1 GROUP   
     2 ALA2        3 GROUP   
     3 GLY6        7 GROUP   
@<TRIPOS>SET

