#    Name: 6cip_5_HTL
#    Modification time : Fri May 22 19:39:51 2020

@<TRIPOS>MOLECULE
6cip_5_HTL
   29    30     1     0     0
SMALL
NO_CHARGES


@<TRIPOS>ATOM
      1 N1'      -125.9380  -34.7740   26.0380 N.ar      1 HTL1204     0.0000 
      2 C2'      -124.9520  -35.5360   26.4590 C.ar      1 HTL1204     0.0000 
      3 C2A      -123.5210  -34.9780   26.3900 C.3       1 HTL1204     0.0000 
      4 N3'      -125.1630  -36.7600   26.9320 N.ar      1 HTL1204     0.0000 
      5 C4'      -126.4050  -37.2830   27.0030 C.ar      1 HTL1204     0.0000 
      6 N4'      -126.5830  -38.6070   27.5210 N.pl3     1 HTL1204     0.0000 
      7 C5'      -127.4940  -36.5030   26.5690 C.ar      1 HTL1204     0.0000 
      8 C6'      -127.1970  -35.2020   26.0780 C.ar      1 HTL1204     0.0000 
      9 C35      -128.9970  -37.0030   26.6160 C.3       1 HTL1204     0.0000 
     10 N3       -129.2780  -38.1260   25.7800 N.pl3     1 HTL1204     0.0000 
     11 C2       -129.4400  -39.4120   26.1880 C.2       1 HTL1204     0.0000 
     12 S1       -129.7970  -40.4390   24.7830 S.3       1 HTL1204     0.0000 
     13 C5       -129.7210  -39.0160   23.6730 C.2       1 HTL1204     0.0000 
     14 C4       -129.4450  -37.8960   24.3920 C.2       1 HTL1204     0.0000 
     15 C4A      -129.3190  -36.5310   23.7910 C.3       1 HTL1204     0.0000 
     16 C5A      -129.9500  -39.1200   22.1710 C.3       1 HTL1204     0.0000 
     17 C5B      -130.0600  -40.5550   21.5680 C.3       1 HTL1204     0.0000 
     18 O5G      -130.4600  -40.3720   20.1950 O.3       1 HTL1204     0.0000 
     19 P1       -129.7340  -41.1510   19.0250 P.3       1 HTL1204     0.0000 
     20 O11      -129.8170  -42.6970   19.3380 O.3       1 HTL1204     0.0000 
     21 O12      -130.4470  -40.8730   17.7400 O.co2     1 HTL1204     0.0000 
     22 O13      -128.2800  -40.7580   18.8950 O.co2     1 HTL1204     0.0000 
     23 P2       -131.2220  -43.4280   19.4540 P.3       1 HTL1204     0.0000 
     24 O21      -132.2380  -42.7350   18.5800 O.co2     1 HTL1204     0.0000 
     25 O22      -131.0750  -44.8690   19.0510 O.co2     1 HTL1204     0.0000 
     26 O23      -131.6720  -43.3590   20.8970 O.co2     1 HTL1204     0.0000 
     27 C1'      -129.3480  -40.0280   27.5700 C.2       1 HTL1204     0.0000 
     28 O2'      -129.1010  -39.3490   28.5780 O.2       1 HTL1204     0.0000 
     29 C3'      -129.5650  -41.5070   27.7040 C.3       1 HTL1204     0.0000 
@<TRIPOS>BOND
     1    1    2 ar   
     2    1    8 ar   
     3    2    3 1    
     4    2    4 ar   
     5    4    5 ar   
     6    5    6 1    
     7    5    7 ar   
     8    7    8 ar   
     9    7    9 1    
    10    9   10 1    
    11   10   11 2    
    12   10   14 1    
    13   11   12 1    
    14   11   27 1    
    15   12   13 1    
    16   13   14 2    
    17   13   16 1    
    18   14   15 1    
    19   16   17 1    
    20   17   18 1    
    21   18   19 1    
    22   19   20 1    
    23   19   21 ar   
    24   19   22 ar   
    25   20   23 1    
    26   23   24 ar   
    27   23   25 ar   
    28   23   26 ar   
    29   27   28 2    
    30   27   29 1    
@<TRIPOS>SUBSTRUCTURE
     1 HTL1204     1 GROUP   
@<TRIPOS>SET

