#    Name: 6njm_3_ZK1
#    Modification time : Fri May 22 19:38:24 2020

@<TRIPOS>MOLECULE
6njm_3_ZK1
   27    29     1     0     0
SMALL
NO_CHARGES


@<TRIPOS>ATOM
      1 OAA       266.5660  248.8800  225.2910 O.2       1 ZK1901      0.0000 
      2 OAB       264.7170  250.7560  224.4020 O.2       1 ZK1901      0.0000 
      3 OAC       263.9990  253.3650  220.6290 O.co2     1 ZK1901      0.0000 
      4 OAD       266.1800  252.3200  221.1180 O.co2     1 ZK1901      0.0000 
      5 OAE       264.7830  253.1810  222.9570 O.co2     1 ZK1901      0.0000 
      6 FAF       268.1170  246.6860  217.8420 F         1 ZK1901      0.0000 
      7 FAG       267.8430  245.1780  219.4420 F         1 ZK1901      0.0000 
      8 FAH       266.2740  245.4230  217.9040 F         1 ZK1901      0.0000 
      9 CAI       265.0690  248.9830  219.9980 C.ar      1 ZK1901      0.0000 
     10 CAJ       266.9090  247.1190  220.9030 C.ar      1 ZK1901      0.0000 
     11 CAK       265.1030  249.6220  215.7280 C.3       1 ZK1901      0.0000 
     12 CAL       263.1920  248.3300  216.2430 C.3       1 ZK1901      0.0000 
     13 CAM       265.9710  248.8860  216.7500 C.3       1 ZK1901      0.0000 
     14 CAN       263.9280  247.5310  217.3220 C.3       1 ZK1901      0.0000 
     15 CAO       263.9360  250.8490  221.7700 C.3       1 ZK1901      0.0000 
     16 NAP       266.7140  248.0280  223.0960 N.am      1 ZK1901      0.0000 
     17 OAQ       264.0610  248.8070  215.2390 O.3       1 ZK1901      0.0000 
     18 CAR       265.6150  248.0710  219.1030 C.ar      1 ZK1901      0.0000 
     19 CAS       266.5440  247.1260  219.5620 C.ar      1 ZK1901      0.0000 
     20 CAT       266.1910  248.9000  223.9430 C.2       1 ZK1901      0.0000 
     21 CAU       265.2660  249.8390  223.4980 C.2       1 ZK1901      0.0000 
     22 CAV       266.3530  248.0480  221.8020 C.ar      1 ZK1901      0.0000 
     23 CAW       265.4420  248.9740  221.3580 C.ar      1 ZK1901      0.0000 
     24 NAX       265.1780  248.1510  217.7160 N.3       1 ZK1901      0.0000 
     25 NAY       264.9050  249.8630  222.2210 N.am      1 ZK1901      0.0000 
     26 CAZ       267.2000  246.0840  218.6540 C.3       1 ZK1901      0.0000 
     27 PBA       264.7650  252.5070  221.6080 P.3       1 ZK1901      0.0000 
@<TRIPOS>BOND
     1    1   20 2    
     2    2   21 2    
     3    3   27 ar   
     4    4   27 ar   
     5    5   27 ar   
     6    6   26 1    
     7    7   26 1    
     8    8   26 1    
     9    9   18 ar   
    10    9   23 ar   
    11   10   19 ar   
    12   10   22 ar   
    13   11   13 1    
    14   11   17 1    
    15   12   14 1    
    16   12   17 1    
    17   13   24 1    
    18   14   24 1    
    19   15   25 1    
    20   15   27 1    
    21   16   20 am   
    22   16   22 1    
    23   18   19 ar   
    24   18   24 1    
    25   19   26 1    
    26   20   21 1    
    27   21   25 am   
    28   22   23 ar   
    29   23   25 1    
@<TRIPOS>SUBSTRUCTURE
     1 ZK1901      1 GROUP   
@<TRIPOS>SET

