#    Name: 6njm_1_ZK1
#    Modification time : Fri May 22 19:38:12 2020

@<TRIPOS>MOLECULE
6njm_1_ZK1
   27    29     1     0     0
SMALL
NO_CHARGES


@<TRIPOS>ATOM
      1 OAA       283.8570  301.5400  225.3610 O.2       1 ZK1901      0.0000 
      2 OAB       285.7230  299.6710  224.4920 O.2       1 ZK1901      0.0000 
      3 OAC       286.4610  297.0750  220.6930 O.co2     1 ZK1901      0.0000 
      4 OAD       284.2800  298.1160  221.1970 O.co2     1 ZK1901      0.0000 
      5 OAE       285.6780  297.2270  223.0230 O.co2     1 ZK1901      0.0000 
      6 FAF       282.3590  303.7020  217.8890 F         1 ZK1901      0.0000 
      7 FAG       282.6060  305.2150  219.4880 F         1 ZK1901      0.0000 
      8 FAH       284.1920  304.9780  217.9650 F         1 ZK1901      0.0000 
      9 CAI       285.3990  301.4300  220.0790 C.ar      1 ZK1901      0.0000 
     10 CAJ       283.5410  303.2860  220.9630 C.ar      1 ZK1901      0.0000 
     11 CAK       285.4050  300.7810  215.8090 C.3       1 ZK1901      0.0000 
     12 CAL       287.3020  302.0850  216.3370 C.3       1 ZK1901      0.0000 
     13 CAM       284.5240  301.5110  216.8240 C.3       1 ZK1901      0.0000 
     14 CAN       286.5530  302.8800  217.4090 C.3       1 ZK1901      0.0000 
     15 CAO       286.5260  299.5750  221.8680 C.3       1 ZK1901      0.0000 
     16 NAP       283.7220  302.3860  223.1620 N.am      1 ZK1901      0.0000 
     17 OAQ       286.4450  301.6010  215.3270 O.3       1 ZK1901      0.0000 
     18 CAR       284.8550  302.3360  219.1770 C.ar      1 ZK1901      0.0000 
     19 CAS       283.9170  303.2760  219.6260 C.ar      1 ZK1901      0.0000 
     20 CAT       284.2430  301.5170  224.0160 C.2       1 ZK1901      0.0000 
     21 CAU       285.1760  300.5840  223.5800 C.2       1 ZK1901      0.0000 
     22 CAV       284.0940  302.3630  221.8710 C.ar      1 ZK1901      0.0000 
     23 CAW       285.0140  301.4410  221.4370 C.ar      1 ZK1901      0.0000 
     24 NAX       285.3050  302.2540  217.7950 N.3       1 ZK1901      0.0000 
     25 NAY       285.5480  300.5590  222.3070 N.am      1 ZK1901      0.0000 
     26 CAZ       283.2630  304.3120  218.7080 C.3       1 ZK1901      0.0000 
     27 PBA       285.6960  297.9190  221.6840 P.3       1 ZK1901      0.0000 
@<TRIPOS>BOND
     1    1   20 2    
     2    2   21 2    
     3    3   27 ar   
     4    4   27 ar   
     5    5   27 ar   
     6    6   26 1    
     7    7   26 1    
     8    8   26 1    
     9    9   18 ar   
    10    9   23 ar   
    11   10   19 ar   
    12   10   22 ar   
    13   11   13 1    
    14   11   17 1    
    15   12   14 1    
    16   12   17 1    
    17   13   24 1    
    18   14   24 1    
    19   15   25 1    
    20   15   27 1    
    21   16   20 am   
    22   16   22 1    
    23   18   19 ar   
    24   18   24 1    
    25   19   26 1    
    26   20   21 1    
    27   21   25 am   
    28   22   23 ar   
    29   23   25 1    
@<TRIPOS>SUBSTRUCTURE
     1 ZK1901      1 GROUP   
@<TRIPOS>SET

