#    Name: 6njm_2_ZK1
#    Modification time : Fri May 22 19:38:17 2020

@<TRIPOS>MOLECULE
6njm_2_ZK1
   27    29     1     0     0
SMALL
NO_CHARGES


@<TRIPOS>ATOM
      1 OAA       297.4570  249.6040  222.4600 O.2       1 ZK1901      0.0000 
      2 OAB       299.0740  248.4910  220.4810 O.2       1 ZK1901      0.0000 
      3 OAC       299.0460  248.9090  215.7260 O.co2     1 ZK1901      0.0000 
      4 OAD       297.2480  248.9660  217.4120 O.co2     1 ZK1901      0.0000 
      5 OAE       299.0670  247.3070  217.5940 O.co2     1 ZK1901      0.0000 
      6 FAF       296.0480  255.9060  217.5920 F         1 ZK1901      0.0000 
      7 FAG       296.0020  255.9600  219.8050 F         1 ZK1901      0.0000 
      8 FAH       297.7990  256.6950  218.7370 F         1 ZK1901      0.0000 
      9 CAI       298.6980  252.5040  217.9570 C.ar      1 ZK1901      0.0000 
     10 CAJ       297.0900  253.5970  219.9320 C.ar      1 ZK1901      0.0000 
     11 CAK       297.9690  255.4010  214.3420 C.3       1 ZK1901      0.0000 
     12 CAL       299.7960  256.3570  215.4580 C.3       1 ZK1901      0.0000 
     13 CAM       297.7700  254.3100  215.3940 C.3       1 ZK1901      0.0000 
     14 CAN       299.7670  255.3260  216.5870 C.3       1 ZK1901      0.0000 
     15 CAO       299.7200  249.9050  218.2140 C.3       1 ZK1901      0.0000 
     16 NAP       297.2950  251.5740  221.1780 N.am      1 ZK1901      0.0000 
     17 OAQ       298.5210  256.5710  214.8960 O.3       1 ZK1901      0.0000 
     18 CAR       298.2030  253.7920  217.8020 C.ar      1 ZK1901      0.0000 
     19 CAS       297.3910  254.3480  218.8020 C.ar      1 ZK1901      0.0000 
     20 CAT       297.7690  250.3460  221.3160 C.2       1 ZK1901      0.0000 
     21 CAU       298.5750  249.7920  220.3260 C.2       1 ZK1901      0.0000 
     22 CAV       297.5910  252.2890  220.0790 C.ar      1 ZK1901      0.0000 
     23 CAW       298.3870  251.7440  219.1030 C.ar      1 ZK1901      0.0000 
     24 NAX       298.5750  254.4980  216.5850 N.3       1 ZK1901      0.0000 
     25 NAY       298.8740  250.4930  219.2420 N.am      1 ZK1901      0.0000 
     26 CAZ       296.8040  255.7600  218.7190 C.3       1 ZK1901      0.0000 
     27 PBA       298.7200  248.7170  217.1880 P.3       1 ZK1901      0.0000 
@<TRIPOS>BOND
     1    1   20 2    
     2    2   21 2    
     3    3   27 ar   
     4    4   27 ar   
     5    5   27 ar   
     6    6   26 1    
     7    7   26 1    
     8    8   26 1    
     9    9   18 ar   
    10    9   23 ar   
    11   10   19 ar   
    12   10   22 ar   
    13   11   13 1    
    14   11   17 1    
    15   12   14 1    
    16   12   17 1    
    17   13   24 1    
    18   14   24 1    
    19   15   25 1    
    20   15   27 1    
    21   16   20 am   
    22   16   22 1    
    23   18   19 ar   
    24   18   24 1    
    25   19   26 1    
    26   20   21 1    
    27   21   25 am   
    28   22   23 ar   
    29   23   25 1    
@<TRIPOS>SUBSTRUCTURE
     1 ZK1901      1 GROUP   
@<TRIPOS>SET

