#    Name: 6njm_4_ZK1
#    Modification time : Fri May 22 19:38:29 2020

@<TRIPOS>MOLECULE
6njm_4_ZK1
   27    29     1     0     0
SMALL
NO_CHARGES


@<TRIPOS>ATOM
      1 OAA       252.7240  300.7170  222.3260 O.2       1 ZK1901      0.0000 
      2 OAB       251.0920  301.7940  220.3400 O.2       1 ZK1901      0.0000 
      3 OAC       251.1730  301.3490  215.5790 O.co2     1 ZK1901      0.0000 
      4 OAD       252.9410  301.3810  217.2960 O.co2     1 ZK1901      0.0000 
      5 OAE       251.0610  302.9780  217.4200 O.co2     1 ZK1901      0.0000 
      6 FAF       254.3200  294.4600  217.4760 F         1 ZK1901      0.0000 
      7 FAG       254.3270  294.3950  219.6880 F         1 ZK1901      0.0000 
      8 FAH       252.5690  293.6230  218.5850 F         1 ZK1901      0.0000 
      9 CAI       251.5740  297.7920  217.8160 C.ar      1 ZK1901      0.0000 
     10 CAJ       253.1970  296.7360  219.7990 C.ar      1 ZK1901      0.0000 
     11 CAK       252.4160  294.8800  214.2290 C.3       1 ZK1901      0.0000 
     12 CAL       250.5910  293.9000  215.3290 C.3       1 ZK1901      0.0000 
     13 CAM       252.5650  295.9960  215.2620 C.3       1 ZK1901      0.0000 
     14 CAN       250.5740  294.9540  216.4370 C.3       1 ZK1901      0.0000 
     15 CAO       250.4900  300.3670  218.0690 C.3       1 ZK1901      0.0000 
     16 NAP       252.9390  298.7530  221.0430 N.am      1 ZK1901      0.0000 
     17 OAQ       251.8810  293.7060  214.7960 O.3       1 ZK1901      0.0000 
     18 CAR       252.0990  296.5160  217.6650 C.ar      1 ZK1901      0.0000 
     19 CAS       252.9190  295.9800  218.6670 C.ar      1 ZK1901      0.0000 
     20 CAT       252.4350  299.9690  221.1790 C.2       1 ZK1901      0.0000 
     21 CAU       251.6210  300.5060  220.1870 C.2       1 ZK1901      0.0000 
     22 CAV       252.6660  298.0330  219.9440 C.ar      1 ZK1901      0.0000 
     23 CAW       251.8600  298.5590  218.9630 C.ar      1 ZK1901      0.0000 
     24 NAX       251.7510  295.8010  216.4470 N.3       1 ZK1901      0.0000 
     25 NAY       251.3440  299.7990  219.1000 N.am      1 ZK1901      0.0000 
     26 CAZ       253.5400  294.5820  218.5880 C.3       1 ZK1901      0.0000 
     27 PBA       251.4650  301.5750  217.0430 P.3       1 ZK1901      0.0000 
@<TRIPOS>BOND
     1    1   20 2    
     2    2   21 2    
     3    3   27 ar   
     4    4   27 ar   
     5    5   27 ar   
     6    6   26 1    
     7    7   26 1    
     8    8   26 1    
     9    9   18 ar   
    10    9   23 ar   
    11   10   19 ar   
    12   10   22 ar   
    13   11   13 1    
    14   11   17 1    
    15   12   14 1    
    16   12   17 1    
    17   13   24 1    
    18   14   24 1    
    19   15   25 1    
    20   15   27 1    
    21   16   20 am   
    22   16   22 1    
    23   18   19 ar   
    24   18   24 1    
    25   19   26 1    
    26   20   21 1    
    27   21   25 am   
    28   22   23 ar   
    29   23   25 1    
@<TRIPOS>SUBSTRUCTURE
     1 ZK1901      1 GROUP   
@<TRIPOS>SET

