#    Name: 6ccv_1_RFP
#    Modification time : Fri May 22 19:31:52 2020

@<TRIPOS>MOLECULE
6ccv_1_RFP
   59    63     1     0     0
SMALL
NO_CHARGES


@<TRIPOS>ATOM
      1 C1       -139.4720   31.1690   38.3310 C.ar      1 RFP1205     0.0000 
      2 C2       -138.1380   31.2330   38.0180 C.ar      1 RFP1205     0.0000 
      3 C3       -137.1810   30.8770   38.9480 C.ar      1 RFP1205     0.0000 
      4 C4       -137.4880   30.4370   40.2440 C.ar      1 RFP1205     0.0000 
      5 C5       -139.1660   29.8730   42.0160 C.ar      1 RFP1205     0.0000 
      6 C6       -140.5130   29.7830   42.4120 C.ar      1 RFP1205     0.0000 
      7 C7       -141.5650   30.1360   41.5060 C.ar      1 RFP1205     0.0000 
      8 C8       -141.2430   30.5780   40.2080 C.ar      1 RFP1205     0.0000 
      9 C9       -139.8820   30.6640   39.8250 C.ar      1 RFP1205     0.0000 
     10 C10      -138.8490   30.3220   40.7030 C.ar      1 RFP1205     0.0000 
     11 C11      -138.3050   29.4370   43.1950 C.2       1 RFP1205     0.0000 
     12 C12      -139.1650   29.2590   44.2900 C.3       1 RFP1205     0.0000 
     13 C13      -138.8930   27.8800   44.9340 C.3       1 RFP1205     0.0000 
     14 C14      -143.0510   30.0350   41.9390 C.3       1 RFP1205     0.0000 
     15 C15      -136.8310   31.0920   35.6530 C.2       1 RFP1205     0.0000 
     16 C16      -136.8450   31.9190   34.3150 C.2       1 RFP1205     0.0000 
     17 C17      -136.3400   33.4140   34.3270 C.2       1 RFP1205     0.0000 
     18 C18      -135.7940   34.1110   35.6400 C.2       1 RFP1205     0.0000 
     19 C19      -135.6300   35.6870   35.7180 C.2       1 RFP1205     0.0000 
     20 C20      -135.0810   36.3580   36.9970 C.3       1 RFP1205     0.0000 
     21 C21      -135.9740   36.0370   38.1930 C.3       1 RFP1205     0.0000 
     22 C22      -135.6030   37.0020   39.3280 C.3       1 RFP1205     0.0000 
     23 C23      -136.6040   36.8580   40.4840 C.3       1 RFP1205     0.0000 
     24 C24      -136.5450   35.4260   41.0430 C.3       1 RFP1205     0.0000 
     25 C25      -137.1840   35.4410   42.4410 C.3       1 RFP1205     0.0000 
     26 C26      -137.8610   34.1010   42.7660 C.3       1 RFP1205     0.0000 
     27 C27      -138.4320   34.2190   44.1780 C.3       1 RFP1205     0.0000 
     28 C28      -139.0860   32.9070   44.6780 C.2       1 RFP1205     0.0000 
     29 C29      -138.3050   31.5120   44.7720 C.2       1 RFP1205     0.0000 
     30 C30      -137.3670   31.3100   32.9870 C.3       1 RFP1205     0.0000 
     31 C31      -133.6780   35.8370   37.2860 C.3       1 RFP1205     0.0000 
     32 C32      -135.6170   38.4320   38.7920 C.3       1 RFP1205     0.0000 
     33 C33      -135.0940   34.9790   41.1600 C.3       1 RFP1205     0.0000 
     34 C34      -138.9970   33.8400   41.7690 C.3       1 RFP1205     0.0000 
     35 C35      -136.2690   37.0580   43.8970 C.2       1 RFP1205     0.0000 
     36 C36      -135.2720   37.5480   44.9780 C.3       1 RFP1205     0.0000 
     37 C37      -139.9490   35.4950   45.4700 C.3       1 RFP1205     0.0000 
     38 C38      -129.6550   30.8240   37.2620 C.3       1 RFP1205     0.0000 
     39 C39      -131.8750   31.6210   36.7540 C.3       1 RFP1205     0.0000 
     40 C40      -133.1800   32.2660   37.2600 C.3       1 RFP1205     0.0000 
     41 C41      -132.3930   32.1600   39.5190 C.3       1 RFP1205     0.0000 
     42 C42      -131.1080   31.4550   39.0480 C.3       1 RFP1205     0.0000 
     43 C43      -135.6990   30.9840   38.5120 C.2       1 RFP1205     0.0000 
     44 N1       -137.8060   31.7140   36.6150 N.am      1 RFP1205     0.0000 
     45 N2       -134.8960   31.8160   39.0810 N.2       1 RFP1205     0.0000 
     46 N3       -133.5280   31.9060   38.6350 N.pl3     1 RFP1205     0.0000 
     47 N4       -130.7390   31.7460   37.6660 N.4       1 RFP1205     0.0000 
     48 O1       -140.4500   31.5350   37.3860 O.3       1 RFP1205     0.0000 
     49 O2       -142.2450   30.9340   39.2870 O.3       1 RFP1205     0.0000 
     50 O3       -140.5410   29.2940   43.8050 O.3       1 RFP1205     0.0000 
     51 O4       -137.1280   29.2800   43.1940 O.2       1 RFP1205     0.0000 
     52 O5       -139.0030   30.3180   45.2830 O.3       1 RFP1205     0.0000 
     53 O6       -139.3890   35.2400   44.1910 O.3       1 RFP1205     0.0000 
     54 O7       -136.2000   35.7290   43.3980 O.3       1 RFP1205     0.0000 
     55 O8       -137.1000   37.7990   43.4830 O.2       1 RFP1205     0.0000 
     56 O9       -137.8870   37.1470   40.0260 O.3       1 RFP1205     0.0000 
     57 O10      -137.3160   36.2000   37.8510 O.3       1 RFP1205     0.0000 
     58 O11      -136.1340   30.1500   35.8580 O.2       1 RFP1205     0.0000 
     59 O12      -136.4240   30.1000   41.1070 O.3       1 RFP1205     0.0000 
@<TRIPOS>BOND
     1    1    2 ar   
     2    1    9 ar   
     3    1   48 1    
     4    2    3 ar   
     5    2   44 1    
     6    3    4 ar   
     7    3   43 1    
     8    4   10 ar   
     9    4   59 1    
    10    5    6 ar   
    11    5   10 ar   
    12    5   11 1    
    13    6    7 ar   
    14    6   50 1    
    15    7    8 ar   
    16    7   14 1    
    17    8    9 ar   
    18    8   49 1    
    19    9   10 ar   
    20   11   12 1    
    21   11   51 2    
    22   12   13 1    
    23   12   50 1    
    24   12   52 1    
    25   15   16 1    
    26   15   44 am   
    27   15   58 2    
    28   16   17 2    
    29   16   30 1    
    30   17   18 1    
    31   18   19 2    
    32   19   20 1    
    33   20   21 1    
    34   20   31 1    
    35   21   22 1    
    36   21   57 1    
    37   22   23 1    
    38   22   32 1    
    39   23   24 1    
    40   23   56 1    
    41   24   25 1    
    42   24   33 1    
    43   25   26 1    
    44   25   54 1    
    45   26   27 1    
    46   26   34 1    
    47   27   28 1    
    48   27   53 1    
    49   28   29 2    
    50   29   52 1    
    51   35   36 1    
    52   35   54 1    
    53   35   55 2    
    54   37   53 1    
    55   38   47 1    
    56   39   40 1    
    57   39   47 1    
    58   40   46 1    
    59   41   42 1    
    60   41   46 1    
    61   42   47 1    
    62   43   45 2    
    63   45   46 1    
@<TRIPOS>SUBSTRUCTURE
     1 RFP1205     1 GROUP   
@<TRIPOS>SET

