#    Name: 6dnt_1_NAD
#    Modification time : Fri May 22 19:23:29 2020

@<TRIPOS>MOLECULE
6dnt_1_NAD
   44    48     1     0     1
SMALL
NO_CHARGES


@<TRIPOS>ATOM
      1 PA         23.3140  -29.0210   -8.2810 P.3       1 NAD401      0.0000 
      2 O1A        23.5720  -28.8440   -6.8150 O.co2     1 NAD401      0.0000 
      3 O2A        24.4670  -29.3150   -9.1760 O.co2     1 NAD401      0.0000 
      4 O5B        22.2010  -30.1810   -8.4030 O.3       1 NAD401      0.0000 
      5 C5B        22.0840  -30.9820   -9.5770 C.3       1 NAD401      0.0000 
      6 C4B        22.0140  -32.4170   -9.0960 C.3       1 NAD401      0.0000 
      7 O4B        21.7810  -33.2580  -10.2280 O.3       1 NAD401      0.0000 
      8 C3B        23.3140  -32.8940   -8.4580 C.3       1 NAD401      0.0000 
      9 O3B        23.0120  -33.5220   -7.2200 O.3       1 NAD401      0.0000 
     10 C2B        23.9350  -33.8370   -9.4760 C.3       1 NAD401      0.0000 
     11 O2B        24.7210  -34.9120   -8.9340 O.3       1 NAD401      0.0000 
     12 C1B        22.7140  -34.3340  -10.2250 C.3       1 NAD401      0.0000 
     13 N9A        22.9070  -34.6800  -11.6400 N.pl3     1 NAD401      0.0000 
     14 C8A        23.4660  -33.9140  -12.6100 C.2       1 NAD401      0.0000 
     15 N7A        23.4050  -34.5390  -13.8120 N.2       1 NAD401      0.0000 
     16 C5A        22.7520  -35.7160  -13.6100 C.ar      1 NAD401      0.0000 
     17 C6A        22.3410  -36.8530  -14.4480 C.ar      1 NAD401      0.0000 
     18 N6A        22.6140  -36.8520  -15.7620 N.pl3     1 NAD401      0.0000 
     19 N1A        21.6860  -37.8890  -13.8370 N.ar      1 NAD401      0.0000 
     20 C2A        21.4160  -37.8870  -12.5200 C.ar      1 NAD401      0.0000 
     21 N3A        21.7610  -36.8750  -11.6890 N.ar      1 NAD401      0.0000 
     22 C4A        22.4210  -35.7920  -12.1920 C.ar      1 NAD401      0.0000 
     23 O3         22.5380  -27.7330   -8.8580 O.3       1 NAD401      0.0000 
     24 PN         21.3770  -26.8780   -8.2030 P.3       1 NAD401      0.0000 
     25 O1N        20.7060  -27.6020   -7.0740 O.co2     1 NAD401      0.0000 
     26 O2N        21.8780  -25.4760   -7.9870 O.co2     1 NAD401      0.0000 
     27 O5D        20.3860  -26.8090   -9.4590 O.3       1 NAD401      0.0000 
     28 C5D        19.1970  -27.6070   -9.4730 C.3       1 NAD401      0.0000 
     29 C4D        18.3800  -27.2120  -10.7010 C.3       1 NAD401      0.0000 
     30 O4D        18.0130  -25.8340  -10.5970 O.3       1 NAD401      0.0000 
     31 C3D        19.1480  -27.3720  -12.0080 C.3       1 NAD401      0.0000 
     32 O3D        18.2700  -27.8220  -13.0550 O.3       1 NAD401      0.0000 
     33 C2D        19.6310  -25.9710  -12.2920 C.3       1 NAD401      0.0000 
     34 O2D        19.8980  -25.7710  -13.6740 O.3       1 NAD401      0.0000 
     35 C1D        18.4750  -25.1480  -11.7700 C.3       1 NAD401      0.0000 
     36 N1N        18.8010  -23.7600  -11.4250 N.pl3     1 NAD401      0.0000 
     37 C2N        19.6100  -23.4670  -10.3920 C.ar      1 NAD401      0.0000 
     38 C3N        19.8950  -22.1450  -10.0650 C.ar      1 NAD401      0.0000 
     39 C7N        20.8060  -21.7490   -8.9260 C.2       1 NAD401      0.0000 
     40 O7N        20.9890  -20.5550   -8.7170 O.2       1 NAD401      0.0000 
     41 N7N        21.4300  -22.6570   -8.1820 N.am      1 NAD401      0.0000 
     42 C4N        19.3020  -21.1390  -10.8330 C.ar      1 NAD401      0.0000 
     43 C5N        18.4800  -21.4600  -11.9000 C.ar      1 NAD401      0.0000 
     44 C6N        18.2520  -22.7910  -12.1880 C.ar      1 NAD401      0.0000 
@<TRIPOS>BOND
     1    1    2 ar   
     2    1    3 ar   
     3    1    4 1    
     4    1   23 1    
     5    4    5 1    
     6    5    6 1    
     7    6    7 1    
     8    6    8 1    
     9    7   12 1    
    10    8    9 1    
    11    8   10 1    
    12   10   11 1    
    13   10   12 1    
    14   12   13 1    
    15   13   14 1    
    16   13   22 1    
    17   14   15 2    
    18   15   16 1    
    19   16   17 ar   
    20   16   22 ar   
    21   17   18 1    
    22   17   19 ar   
    23   19   20 ar   
    24   20   21 ar   
    25   21   22 ar   
    26   23   24 1    
    27   24   25 ar   
    28   24   26 ar   
    29   24   27 1    
    30   27   28 1    
    31   28   29 1    
    32   29   30 1    
    33   29   31 1    
    34   30   35 1    
    35   31   32 1    
    36   31   33 1    
    37   33   34 1    
    38   33   35 1    
    39   35   36 1    
    40   36   37 ar   
    41   36   44 ar   
    42   37   38 ar   
    43   38   39 1    
    44   38   42 ar   
    45   39   40 2    
    46   39   41 am   
    47   42   43 ar   
    48   43   44 ar   
@<TRIPOS>SUBSTRUCTURE
     1 NAD401      1 GROUP   
@<TRIPOS>SET
ATOM$ORANGE STATIC     ATOMS   COLORGROUP SYSTEM 
42 5 5 6 6 8 8 10 10 12 12 14 14 16 16 17 17 20 \
20 22 22 28 28 29 29 31 31 33 33 35 35 37 37 38 38 39 \
39 42 42 43 43 44 44 

