#    Name: 6fjh_2_FAD
#    Modification time : Fri May 22 19:25:31 2020

@<TRIPOS>MOLECULE
6fjh_2_FAD
   53    58     1     0     1
SMALL
NO_CHARGES


@<TRIPOS>ATOM
      1 PA         73.7080    8.0100   18.3450 P.3       1 FAD601      0.0000 
      2 O1A        73.7760    6.5360   18.2700 O.co2     1 FAD601      0.0000 
      3 O2A        74.8990    8.5650   19.1160 O.co2     1 FAD601      0.0000 
      4 O5B        72.2980    8.6040   18.9370 O.3       1 FAD601      0.0000 
      5 C5B        71.0590    7.8920   18.7410 C.3       1 FAD601      0.0000 
      6 C4B        70.3110    7.8200   20.0490 C.3       1 FAD601      0.0000 
      7 O4B        68.9850    7.2840   19.8530 O.3       1 FAD601      0.0000 
      8 C3B        70.9540    6.9760   21.1520 C.3       1 FAD601      0.0000 
      9 O3B        71.1360    7.7820   22.3110 O.3       1 FAD601      0.0000 
     10 C2B        69.9320    5.8590   21.4030 C.3       1 FAD601      0.0000 
     11 O2B        69.8650    5.3830   22.7430 O.3       1 FAD601      0.0000 
     12 C1B        68.6440    6.5550   21.0100 C.3       1 FAD601      0.0000 
     13 N9A        67.5060    5.6780   20.7320 N.pl3     1 FAD601      0.0000 
     14 C8A        67.5480    4.4040   20.2250 C.2       1 FAD601      0.0000 
     15 N7A        66.3800    3.8040   20.1970 N.2       1 FAD601      0.0000 
     16 C5A        65.5100    4.7560   20.7030 C.ar      1 FAD601      0.0000 
     17 C6A        64.1100    4.7530   20.9030 C.ar      1 FAD601      0.0000 
     18 N6A        63.3270    3.7000   20.6530 N.pl3     1 FAD601      0.0000 
     19 N1A        63.5400    5.8890   21.3760 N.ar      1 FAD601      0.0000 
     20 C2A        64.3240    6.9380   21.6470 C.ar      1 FAD601      0.0000 
     21 N3A        65.6510    7.0470   21.5170 N.ar      1 FAD601      0.0000 
     22 C4A        66.1880    5.9160   21.0310 C.ar      1 FAD601      0.0000 
     23 N1         82.6370   10.2570   15.8630 N.2       1 FAD601      0.0000 
     24 C2         83.5510   11.2770   16.0390 C.2       1 FAD601      0.0000 
     25 O2         83.3940   12.3900   15.5430 O.2       1 FAD601      0.0000 
     26 N3         84.6850   11.0620   16.7990 N.am      1 FAD601      0.0000 
     27 C4         85.0230    9.8780   17.4320 C.2       1 FAD601      0.0000 
     28 O4         86.0140    9.8390   18.1510 O.2       1 FAD601      0.0000 
     29 C4X        84.0580    8.7970   17.2490 C.2       1 FAD601      0.0000 
     30 N5         84.2620    7.6750   17.8810 N.2       1 FAD601      0.0000 
     31 C5X        83.2490    6.7240   17.8660 C.ar      1 FAD601      0.0000 
     32 C6         83.4130    5.5640   18.6290 C.ar      1 FAD601      0.0000 
     33 C7         82.4060    4.6140   18.7310 C.ar      1 FAD601      0.0000 
     34 C7M        82.6550    3.3770   19.5500 C.3       1 FAD601      0.0000 
     35 C8         81.1870    4.8240   18.0510 C.ar      1 FAD601      0.0000 
     36 C8M        80.0540    3.8370   18.1520 C.3       1 FAD601      0.0000 
     37 C9         81.0260    5.9740   17.2800 C.ar      1 FAD601      0.0000 
     38 C9A        82.0450    6.9230   17.1710 C.ar      1 FAD601      0.0000 
     39 N10        81.8970    8.1170   16.4310 N.pl3     1 FAD601      0.0000 
     40 C10        82.8690    9.0840   16.4610 C.2       1 FAD601      0.0000 
     41 C1'        80.7340    8.2620   15.5350 C.3       1 FAD601      0.0000 
     42 C2'        79.3880    8.5850   16.1730 C.3       1 FAD601      0.0000 
     43 O2'        78.3850    7.6910   15.6860 O.3       1 FAD601      0.0000 
     44 C3'        78.9800   10.0240   15.8580 C.3       1 FAD601      0.0000 
     45 O3'        80.0710   10.8800   16.1570 O.3       1 FAD601      0.0000 
     46 C4'        77.7660   10.6080   16.5770 C.3       1 FAD601      0.0000 
     47 O4'        77.9720   10.4320   17.9780 O.3       1 FAD601      0.0000 
     48 C5'        76.4600    9.9890   16.1360 C.3       1 FAD601      0.0000 
     49 O5'        75.4250   10.8010   16.7010 O.3       1 FAD601      0.0000 
     50 P          73.9450   10.2570   16.6410 P.3       1 FAD601      0.0000 
     51 O1P        73.1370   11.0060   17.6250 O.co2     1 FAD601      0.0000 
     52 O2P        73.3900   10.4540   15.2200 O.co2     1 FAD601      0.0000 
     53 O3P        73.8760    8.6950   16.9260 O.3       1 FAD601      0.0000 
@<TRIPOS>BOND
     1    1    2 ar   
     2    1    3 ar   
     3    1    4 1    
     4    1   53 1    
     5    4    5 1    
     6    5    6 1    
     7    6    7 1    
     8    6    8 1    
     9    7   12 1    
    10    8    9 1    
    11    8   10 1    
    12   10   11 1    
    13   10   12 1    
    14   12   13 1    
    15   13   14 1    
    16   13   22 1    
    17   14   15 2    
    18   15   16 1    
    19   16   17 ar   
    20   16   22 ar   
    21   17   18 1    
    22   17   19 ar   
    23   19   20 ar   
    24   20   21 ar   
    25   21   22 ar   
    26   23   24 1    
    27   23   40 2    
    28   24   25 2    
    29   24   26 am   
    30   26   27 am   
    31   27   28 2    
    32   27   29 1    
    33   29   30 2    
    34   29   40 1    
    35   30   31 1    
    36   31   32 ar   
    37   31   38 ar   
    38   32   33 ar   
    39   33   34 1    
    40   33   35 ar   
    41   35   36 1    
    42   35   37 ar   
    43   37   38 ar   
    44   38   39 1    
    45   39   40 1    
    46   39   41 1    
    47   41   42 1    
    48   42   43 1    
    49   42   44 1    
    50   44   45 1    
    51   44   46 1    
    52   46   47 1    
    53   46   48 1    
    54   48   49 1    
    55   49   50 1    
    56   50   51 ar   
    57   50   52 ar   
    58   50   53 1    
@<TRIPOS>SUBSTRUCTURE
     1 FAD601      1 GROUP   
@<TRIPOS>SET
ATOM$ORANGE STATIC     ATOMS   COLORGROUP SYSTEM 
54 5 5 6 6 8 8 10 10 12 12 14 14 16 16 17 17 20 \
20 22 22 24 24 27 27 29 29 31 31 32 32 33 33 34 34 35 \
35 36 36 37 37 38 38 40 40 41 41 42 42 44 44 46 46 48 \
48 

