#    Name: 6fjh_1_FAD
#    Modification time : Fri May 22 19:25:23 2020

@<TRIPOS>MOLECULE
6fjh_1_FAD
   53    58     1     0     1
SMALL
NO_CHARGES


@<TRIPOS>ATOM
      1 PA        120.5960   32.1510   -3.1940 P.3       1 FAD601      0.0000 
      2 O1A       121.3830   32.8310   -2.1310 O.co2     1 FAD601      0.0000 
      3 O2A       120.4980   30.6450   -2.8820 O.co2     1 FAD601      0.0000 
      4 O5B       121.1720   32.3610   -4.7190 O.3       1 FAD601      0.0000 
      5 C5B       121.8400   33.5960   -5.0870 C.3       1 FAD601      0.0000 
      6 C4B       123.1220   33.2680   -5.8090 C.3       1 FAD601      0.0000 
      7 O4B       123.7110   34.4760   -6.3310 O.3       1 FAD601      0.0000 
      8 C3B       124.2090   32.5680   -4.9840 C.3       1 FAD601      0.0000 
      9 O3B       124.5540   31.3440   -5.6180 O.3       1 FAD601      0.0000 
     10 C2B       125.3680   33.5750   -4.9850 C.3       1 FAD601      0.0000 
     11 O2B       126.6640   32.9860   -4.9690 O.3       1 FAD601      0.0000 
     12 C1B       125.1090   34.3160   -6.2890 C.3       1 FAD601      0.0000 
     13 N9A       125.7650   35.6180   -6.4310 N.pl3     1 FAD601      0.0000 
     14 C8A       126.0740   36.5110   -5.4400 C.2       1 FAD601      0.0000 
     15 N7A       126.7720   37.5420   -5.8430 N.2       1 FAD601      0.0000 
     16 C5A       126.9160   37.3290   -7.2070 C.ar      1 FAD601      0.0000 
     17 C6A       127.5380   38.0810   -8.2290 C.ar      1 FAD601      0.0000 
     18 N6A       128.2050   39.2180   -8.0170 N.pl3     1 FAD601      0.0000 
     19 N1A       127.4740   37.6000   -9.4930 N.ar      1 FAD601      0.0000 
     20 C2A       126.8450   36.4380   -9.7070 C.ar      1 FAD601      0.0000 
     21 N3A       126.2380   35.6370   -8.8240 N.ar      1 FAD601      0.0000 
     22 C4A       126.3010   36.1450   -7.5850 C.ar      1 FAD601      0.0000 
     23 N1        114.4380   27.1320    2.0300 N.2       1 FAD601      0.0000 
     24 C2        113.6690   25.9930    1.9600 C.2       1 FAD601      0.0000 
     25 O2        112.6730   25.9150    1.2280 O.2       1 FAD601      0.0000 
     26 N3        113.9790   24.8980    2.7530 N.am      1 FAD601      0.0000 
     27 C4        114.9910   24.8340    3.6850 C.2       1 FAD601      0.0000 
     28 O4        115.1180   23.8210    4.3780 O.2       1 FAD601      0.0000 
     29 C4X       115.8070   26.0660    3.7610 C.2       1 FAD601      0.0000 
     30 N5        116.8440   26.0680    4.5520 N.2       1 FAD601      0.0000 
     31 C5X       117.7140   27.1350    4.4850 C.ar      1 FAD601      0.0000 
     32 C6        118.8790   27.0990    5.2570 C.ar      1 FAD601      0.0000 
     33 C7        119.8350   28.1040    5.1800 C.ar      1 FAD601      0.0000 
     34 C7M       121.0620   28.0160    6.0370 C.3       1 FAD601      0.0000 
     35 C8        119.6330   29.1840    4.2980 C.ar      1 FAD601      0.0000 
     36 C8M       120.6710   30.2620    4.1380 C.3       1 FAD601      0.0000 
     37 C9        118.4630   29.2380    3.5410 C.ar      1 FAD601      0.0000 
     38 C9A       117.4920   28.2310    3.6310 C.ar      1 FAD601      0.0000 
     39 N10       116.3070   28.2360    2.8530 N.pl3     1 FAD601      0.0000 
     40 C10       115.4600   27.1590    2.8720 C.2       1 FAD601      0.0000 
     41 C1'       115.9480   29.4680    2.1220 C.3       1 FAD601      0.0000 
     42 C2'       116.7050   29.7530    0.8270 C.3       1 FAD601      0.0000 
     43 O2'       117.2050   31.0950    0.8180 O.3       1 FAD601      0.0000 
     44 C3'       115.8150   29.5040   -0.3880 C.3       1 FAD601      0.0000 
     45 O3'       115.1940   28.2300   -0.2650 O.3       1 FAD601      0.0000 
     46 C4'       116.4530   29.5310   -1.7790 C.3       1 FAD601      0.0000 
     47 O4'       117.5400   28.6050   -1.7910 O.3       1 FAD601      0.0000 
     48 C5'       116.8940   30.9160   -2.1870 C.3       1 FAD601      0.0000 
     49 O5'       117.2020   30.8240   -3.5840 O.3       1 FAD601      0.0000 
     50 P         117.9900   32.0570   -4.2370 P.3       1 FAD601      0.0000 
     51 O1P       118.5790   31.5620   -5.5100 O.co2     1 FAD601      0.0000 
     52 O2P       116.9550   33.1830   -4.4690 O.co2     1 FAD601      0.0000 
     53 O3P       119.1000   32.6690   -3.2760 O.3       1 FAD601      0.0000 
@<TRIPOS>BOND
     1    1    2 ar   
     2    1    3 ar   
     3    1    4 1    
     4    1   53 1    
     5    4    5 1    
     6    5    6 1    
     7    6    7 1    
     8    6    8 1    
     9    7   12 1    
    10    8    9 1    
    11    8   10 1    
    12   10   11 1    
    13   10   12 1    
    14   12   13 1    
    15   13   14 1    
    16   13   22 1    
    17   14   15 2    
    18   15   16 1    
    19   16   17 ar   
    20   16   22 ar   
    21   17   18 1    
    22   17   19 ar   
    23   19   20 ar   
    24   20   21 ar   
    25   21   22 ar   
    26   23   24 1    
    27   23   40 2    
    28   24   25 2    
    29   24   26 am   
    30   26   27 am   
    31   27   28 2    
    32   27   29 1    
    33   29   30 2    
    34   29   40 1    
    35   30   31 1    
    36   31   32 ar   
    37   31   38 ar   
    38   32   33 ar   
    39   33   34 1    
    40   33   35 ar   
    41   35   36 1    
    42   35   37 ar   
    43   37   38 ar   
    44   38   39 1    
    45   39   40 1    
    46   39   41 1    
    47   41   42 1    
    48   42   43 1    
    49   42   44 1    
    50   44   45 1    
    51   44   46 1    
    52   46   47 1    
    53   46   48 1    
    54   48   49 1    
    55   49   50 1    
    56   50   51 ar   
    57   50   52 ar   
    58   50   53 1    
@<TRIPOS>SUBSTRUCTURE
     1 FAD601      1 GROUP   
@<TRIPOS>SET
ATOM$ORANGE STATIC     ATOMS   COLORGROUP SYSTEM 
54 5 5 6 6 8 8 10 10 12 12 14 14 16 16 17 17 20 \
20 22 22 24 24 27 27 29 29 31 31 32 32 33 33 34 34 35 \
35 36 36 37 37 38 38 40 40 41 41 42 42 44 44 46 46 48 \
48 

