#    Name: 6mp5_1_FAD
#    Modification time : Fri May 22 19:25:39 2020

@<TRIPOS>MOLECULE
6mp5_1_FAD
   53    58     1     0     1
SMALL
NO_CHARGES


@<TRIPOS>ATOM
      1 PA         47.0220  -35.3450   19.8430 P.3       1 FAD501      0.0000 
      2 O1A        48.3120  -34.9520   20.4580 O.co2     1 FAD501      0.0000 
      3 O2A        46.6020  -34.4160   18.6990 O.co2     1 FAD501      0.0000 
      4 O5B        47.0450  -36.8700   19.3930 O.3       1 FAD501      0.0000 
      5 C5B        46.2800  -37.3320   18.2600 C.3       1 FAD501      0.0000 
      6 C4B        47.1670  -38.1940   17.3930 C.3       1 FAD501      0.0000 
      7 O4B        46.3770  -39.2210   16.7480 O.3       1 FAD501      0.0000 
      8 C3B        47.9140  -37.4470   16.2850 C.3       1 FAD501      0.0000 
      9 O3B        49.3020  -37.7650   16.2880 O.3       1 FAD501      0.0000 
     10 C2B        47.2190  -37.9160   15.0020 C.3       1 FAD501      0.0000 
     11 O2B        48.1250  -37.9800   13.9070 O.3       1 FAD501      0.0000 
     12 C1B        46.7700  -39.3180   15.3980 C.3       1 FAD501      0.0000 
     13 N9A        45.6510  -39.8370   14.6150 N.pl3     1 FAD501      0.0000 
     14 C8A        44.5570  -39.1420   14.1690 C.2       1 FAD501      0.0000 
     15 N7A        43.7100  -39.8650   13.4760 N.2       1 FAD501      0.0000 
     16 C5A        44.2900  -41.1250   13.4600 C.ar      1 FAD501      0.0000 
     17 C6A        43.8910  -42.3500   12.8870 C.ar      1 FAD501      0.0000 
     18 N6A        42.7640  -42.5110   12.1900 N.pl3     1 FAD501      0.0000 
     19 N1A        44.7000  -43.4180   13.0620 N.ar      1 FAD501      0.0000 
     20 C2A        45.8300  -43.2630   13.7580 C.ar      1 FAD501      0.0000 
     21 N3A        46.3100  -42.1620   14.3420 N.ar      1 FAD501      0.0000 
     22 C4A        45.4880  -41.1210   14.1560 C.ar      1 FAD501      0.0000 
     23 N1         46.7770  -27.8260   25.8020 N.2       1 FAD501      0.0000 
     24 C2         47.2320  -27.3980   27.0150 C.2       1 FAD501      0.0000 
     25 O2         47.1320  -28.0990   28.0280 O.2       1 FAD501      0.0000 
     26 N3         47.8220  -26.1520   27.1260 N.am      1 FAD501      0.0000 
     27 C4         48.0140  -25.2530   26.1070 C.2       1 FAD501      0.0000 
     28 O4         48.5550  -24.1710   26.3300 O.2       1 FAD501      0.0000 
     29 C4X        47.5290  -25.7150   24.8210 C.2       1 FAD501      0.0000 
     30 N5         47.6700  -24.9240   23.7920 N.2       1 FAD501      0.0000 
     31 C5X        47.2070  -25.3680   22.5630 C.ar      1 FAD501      0.0000 
     32 C6         47.3520  -24.5380   21.4540 C.ar      1 FAD501      0.0000 
     33 C7         46.9050  -24.9380   20.1990 C.ar      1 FAD501      0.0000 
     34 C7M        47.0760  -24.0130   19.0230 C.3       1 FAD501      0.0000 
     35 C8         46.3010  -26.1970   20.0460 C.ar      1 FAD501      0.0000 
     36 C8M        45.8090  -26.6610   18.7030 C.3       1 FAD501      0.0000 
     37 C9         46.1550  -27.0290   21.1520 C.ar      1 FAD501      0.0000 
     38 C9A        46.6020  -26.6250   22.4040 C.ar      1 FAD501      0.0000 
     39 N10        46.4810  -27.4490   23.5420 N.pl3     1 FAD501      0.0000 
     40 C10        46.9240  -27.0210   24.7690 C.2       1 FAD501      0.0000 
     41 C1'        45.8330  -28.7640   23.4500 C.3       1 FAD501      0.0000 
     42 C2'        46.8080  -29.9200   23.2700 C.3       1 FAD501      0.0000 
     43 O2'        47.6410  -29.6980   22.1320 O.3       1 FAD501      0.0000 
     44 C3'        46.0080  -31.2060   23.0610 C.3       1 FAD501      0.0000 
     45 O3'        44.8560  -31.1530   23.8950 O.3       1 FAD501      0.0000 
     46 C4'        46.7710  -32.4990   23.3500 C.3       1 FAD501      0.0000 
     47 O4'        47.7180  -32.7390   22.3080 O.3       1 FAD501      0.0000 
     48 C5'        45.8420  -33.6850   23.5040 C.3       1 FAD501      0.0000 
     49 O5'        46.5760  -34.8990   23.2450 O.3       1 FAD501      0.0000 
     50 P          45.9690  -36.0440   22.3510 P.3       1 FAD501      0.0000 
     51 O1P        46.9470  -37.2180   22.2330 O.co2     1 FAD501      0.0000 
     52 O2P        44.6130  -36.4280   22.8190 O.co2     1 FAD501      0.0000 
     53 O3P        45.8730  -35.3280   20.9350 O.3       1 FAD501      0.0000 
@<TRIPOS>BOND
     1    1    2 ar   
     2    1    3 ar   
     3    1    4 1    
     4    1   53 1    
     5    4    5 1    
     6    5    6 1    
     7    6    7 1    
     8    6    8 1    
     9    7   12 1    
    10    8    9 1    
    11    8   10 1    
    12   10   11 1    
    13   10   12 1    
    14   12   13 1    
    15   13   14 1    
    16   13   22 1    
    17   14   15 2    
    18   15   16 1    
    19   16   17 ar   
    20   16   22 ar   
    21   17   18 1    
    22   17   19 ar   
    23   19   20 ar   
    24   20   21 ar   
    25   21   22 ar   
    26   23   24 1    
    27   23   40 2    
    28   24   25 2    
    29   24   26 am   
    30   26   27 am   
    31   27   28 2    
    32   27   29 1    
    33   29   30 2    
    34   29   40 1    
    35   30   31 1    
    36   31   32 ar   
    37   31   38 ar   
    38   32   33 ar   
    39   33   34 1    
    40   33   35 ar   
    41   35   36 1    
    42   35   37 ar   
    43   37   38 ar   
    44   38   39 1    
    45   39   40 1    
    46   39   41 1    
    47   41   42 1    
    48   42   43 1    
    49   42   44 1    
    50   44   45 1    
    51   44   46 1    
    52   46   47 1    
    53   46   48 1    
    54   48   49 1    
    55   49   50 1    
    56   50   51 ar   
    57   50   52 ar   
    58   50   53 1    
@<TRIPOS>SUBSTRUCTURE
     1 FAD501      1 GROUP   
@<TRIPOS>SET
ATOM$ORANGE STATIC     ATOMS   COLORGROUP SYSTEM 
54 5 5 6 6 8 8 10 10 12 12 14 14 16 16 17 17 20 \
20 22 22 24 24 27 27 29 29 31 31 32 32 33 33 34 34 35 \
35 36 36 37 37 38 38 40 40 41 41 42 42 44 44 46 46 48 \
48 

