#    Name: 6mp5_2_FAD
#    Modification time : Fri May 22 19:25:48 2020

@<TRIPOS>MOLECULE
6mp5_2_FAD
   53    58     1     0     1
SMALL
NO_CHARGES


@<TRIPOS>ATOM
      1 PA         65.2980  -13.3400  -23.2470 P.3       1 FAD501      0.0000 
      2 O1A        65.9200  -12.0660  -23.6930 O.co2     1 FAD501      0.0000 
      3 O2A        65.9450  -13.9560  -22.0000 O.co2     1 FAD501      0.0000 
      4 O5B        63.7350  -13.1570  -23.0030 O.3       1 FAD501      0.0000 
      5 C5B        63.0590  -13.8390  -21.9240 C.3       1 FAD501      0.0000 
      6 C4B        62.1340  -12.8850  -21.2100 C.3       1 FAD501      0.0000 
      7 O4B        60.9560  -13.5900  -20.7480 O.3       1 FAD501      0.0000 
      8 C3B        62.7320  -12.1970  -19.9830 C.3       1 FAD501      0.0000 
      9 O3B        62.3580  -10.8250  -19.9660 O.3       1 FAD501      0.0000 
     10 C2B        62.1100  -12.9700  -18.8160 C.3       1 FAD501      0.0000 
     11 O2B        61.9710  -12.1740  -17.6460 O.3       1 FAD501      0.0000 
     12 C1B        60.7330  -13.2770  -19.3900 C.3       1 FAD501      0.0000 
     13 N9A        60.0410  -14.3900  -18.7460 N.pl3     1 FAD501      0.0000 
     14 C8A        60.5880  -15.5720  -18.3220 C.2       1 FAD501      0.0000 
     15 N7A        59.7260  -16.3930  -17.7710 N.2       1 FAD501      0.0000 
     16 C5A        58.5270  -15.6990  -17.8300 C.ar      1 FAD501      0.0000 
     17 C6A        57.2200  -16.0190  -17.4100 C.ar      1 FAD501      0.0000 
     18 N6A        56.8900  -17.1720  -16.8210 N.pl3     1 FAD501      0.0000 
     19 N1A        56.2490  -15.1010  -17.6200 N.ar      1 FAD501      0.0000 
     20 C2A        56.5710  -13.9470  -18.2080 C.ar      1 FAD501      0.0000 
     21 N3A        57.7640  -13.5370  -18.6470 N.ar      1 FAD501      0.0000 
     22 C4A        58.7060  -14.4620  -18.4250 C.ar      1 FAD501      0.0000 
     23 N1         73.4700  -13.5590  -27.9850 N.2       1 FAD501      0.0000 
     24 C2         74.0990  -13.1130  -29.1110 C.2       1 FAD501      0.0000 
     25 O2         73.5430  -13.1380  -30.2180 O.2       1 FAD501      0.0000 
     26 N3         75.3880  -12.6160  -29.0230 N.am      1 FAD501      0.0000 
     27 C4         76.1450  -12.5150  -27.8760 C.2       1 FAD501      0.0000 
     28 O4         77.2840  -12.0530  -27.9240 O.2       1 FAD501      0.0000 
     29 C4X        75.4670  -12.9920  -26.6850 C.2       1 FAD501      0.0000 
     30 N5         76.1080  -12.9350  -25.5480 N.2       1 FAD501      0.0000 
     31 C5X        75.4590  -13.3910  -24.4120 C.ar      1 FAD501      0.0000 
     32 C6         76.1270  -13.3410  -23.1900 C.ar      1 FAD501      0.0000 
     33 C7         75.5180  -13.7850  -22.0210 C.ar      1 FAD501      0.0000 
     34 C7M        76.2690  -13.7140  -20.7170 C.3       1 FAD501      0.0000 
     35 C8         74.2100  -14.2930  -22.0730 C.ar      1 FAD501      0.0000 
     36 C8M        73.5190  -14.7800  -20.8260 C.3       1 FAD501      0.0000 
     37 C9         73.5400  -14.3470  -23.2920 C.ar      1 FAD501      0.0000 
     38 C9A        74.1530  -13.9020  -24.4560 C.ar      1 FAD501      0.0000 
     39 N10        73.4950  -13.9320  -25.7030 N.pl3     1 FAD501      0.0000 
     40 C10        74.1280  -13.4970  -26.8410 C.2       1 FAD501      0.0000 
     41 C1'        72.1380  -14.4830  -25.8250 C.3       1 FAD501      0.0000 
     42 C2'        71.0370  -13.4380  -25.7110 C.3       1 FAD501      0.0000 
     43 O2'        71.2380  -12.6360  -24.5480 O.3       1 FAD501      0.0000 
     44 C3'        69.6920  -14.1540  -25.5920 C.3       1 FAD501      0.0000 
     45 O3'        69.7340  -15.3460  -26.3700 O.3       1 FAD501      0.0000 
     46 C4'        68.4810  -13.3220  -26.0150 C.3       1 FAD501      0.0000 
     47 O4'        67.9800  -12.6250  -24.8730 O.3       1 FAD501      0.0000 
     48 C5'        67.3980  -14.1680  -26.6520 C.3       1 FAD501      0.0000 
     49 O5'        66.1370  -13.4720  -26.5600 O.3       1 FAD501      0.0000 
     50 P          64.8770  -14.1470  -25.8970 P.3       1 FAD501      0.0000 
     51 O1P        63.7030  -13.1650  -25.8380 O.co2     1 FAD501      0.0000 
     52 O2P        64.5780  -15.4300  -26.5690 O.co2     1 FAD501      0.0000 
     53 O3P        65.3690  -14.4140  -24.4110 O.3       1 FAD501      0.0000 
@<TRIPOS>BOND
     1    1    2 ar   
     2    1    3 ar   
     3    1    4 1    
     4    1   53 1    
     5    4    5 1    
     6    5    6 1    
     7    6    7 1    
     8    6    8 1    
     9    7   12 1    
    10    8    9 1    
    11    8   10 1    
    12   10   11 1    
    13   10   12 1    
    14   12   13 1    
    15   13   14 1    
    16   13   22 1    
    17   14   15 2    
    18   15   16 1    
    19   16   17 ar   
    20   16   22 ar   
    21   17   18 1    
    22   17   19 ar   
    23   19   20 ar   
    24   20   21 ar   
    25   21   22 ar   
    26   23   24 1    
    27   23   40 2    
    28   24   25 2    
    29   24   26 am   
    30   26   27 am   
    31   27   28 2    
    32   27   29 1    
    33   29   30 2    
    34   29   40 1    
    35   30   31 1    
    36   31   32 ar   
    37   31   38 ar   
    38   32   33 ar   
    39   33   34 1    
    40   33   35 ar   
    41   35   36 1    
    42   35   37 ar   
    43   37   38 ar   
    44   38   39 1    
    45   39   40 1    
    46   39   41 1    
    47   41   42 1    
    48   42   43 1    
    49   42   44 1    
    50   44   45 1    
    51   44   46 1    
    52   46   47 1    
    53   46   48 1    
    54   48   49 1    
    55   49   50 1    
    56   50   51 ar   
    57   50   52 ar   
    58   50   53 1    
@<TRIPOS>SUBSTRUCTURE
     1 FAD501      1 GROUP   
@<TRIPOS>SET
ATOM$ORANGE STATIC     ATOMS   COLORGROUP SYSTEM 
54 5 5 6 6 8 8 10 10 12 12 14 14 16 16 17 17 20 \
20 22 22 24 24 27 27 29 29 31 31 32 32 33 33 34 34 35 \
35 36 36 37 37 38 38 40 40 41 41 42 42 44 44 46 46 48 \
48 

