#    Name: 6mp5_3_FAD
#    Modification time : Fri May 22 19:25:57 2020

@<TRIPOS>MOLECULE
6mp5_3_FAD
   53    58     1     0     1
SMALL
NO_CHARGES


@<TRIPOS>ATOM
      1 PA         -6.0840   -4.2210   19.3080 P.3       1 FAD501      0.0000 
      2 O1A        -7.2600   -4.7130   20.0670 O.co2     1 FAD501      0.0000 
      3 O2A        -5.7860   -4.9690   17.9990 O.co2     1 FAD501      0.0000 
      4 O5B        -6.2160   -2.7000   18.9790 O.3       1 FAD501      0.0000 
      5 C5B        -5.7670   -2.1660   17.7160 C.3       1 FAD501      0.0000 
      6 C4B        -6.6660   -1.0250   17.3220 C.3       1 FAD501      0.0000 
      7 O4B        -5.8640    0.1040   16.9030 O.3       1 FAD501      0.0000 
      8 C3B        -7.6340   -1.3220   16.1770 C.3       1 FAD501      0.0000 
      9 O3B        -8.9400   -0.8590   16.4980 O.3       1 FAD501      0.0000 
     10 C2B        -7.0250   -0.5610   14.9930 C.3       1 FAD501      0.0000 
     11 O2B        -8.0130   -0.1080   14.0740 O.3       1 FAD501      0.0000 
     12 C1B        -6.3940    0.6270   15.7080 C.3       1 FAD501      0.0000 
     13 N9A        -5.3200    1.2830   14.9690 N.pl3     1 FAD501      0.0000 
     14 C8A        -4.1670    0.7130   14.5000 C.2       1 FAD501      0.0000 
     15 N7A        -3.3720    1.5490   13.8750 N.2       1 FAD501      0.0000 
     16 C5A        -4.0510    2.7570   13.9380 C.ar      1 FAD501      0.0000 
     17 C6A        -3.7450    4.0470   13.4610 C.ar      1 FAD501      0.0000 
     18 N6A        -2.6280    4.3500   12.7950 N.pl3     1 FAD501      0.0000 
     19 N1A        -4.6420    5.0320   13.6960 N.ar      1 FAD501      0.0000 
     20 C2A        -5.7610    4.7380   14.3630 C.ar      1 FAD501      0.0000 
     21 N3A        -6.1540    3.5630   14.8620 N.ar      1 FAD501      0.0000 
     22 C4A        -5.2520    2.6070   14.6120 C.ar      1 FAD501      0.0000 
     23 N1         -5.2130  -12.6290   23.9380 N.2       1 FAD501      0.0000 
     24 C2         -5.5350  -13.2630   25.1030 C.2       1 FAD501      0.0000 
     25 O2         -5.2700  -12.7700   26.2030 O.2       1 FAD501      0.0000 
     26 N3         -6.1730  -14.4910   25.0600 N.am      1 FAD501      0.0000 
     27 C4         -6.5390  -15.1790   23.9200 C.2       1 FAD501      0.0000 
     28 O4         -7.1060  -16.2690   24.0050 O.2       1 FAD501      0.0000 
     29 C4X        -6.1940  -14.4950   22.6890 C.2       1 FAD501      0.0000 
     30 N5         -6.5000  -15.0740   21.5590 N.2       1 FAD501      0.0000 
     31 C5X        -6.1710  -14.4200   20.3840 C.ar      1 FAD501      0.0000 
     32 C6         -6.4940  -15.0210   19.1700 C.ar      1 FAD501      0.0000 
     33 C7         -6.1840  -14.4050   17.9610 C.ar      1 FAD501      0.0000 
     34 C7M        -6.5480  -15.0840   16.6660 C.3       1 FAD501      0.0000 
     35 C8         -5.5360  -13.1590   17.9640 C.ar      1 FAD501      0.0000 
     36 C8M        -5.1880  -12.4660   16.6750 C.3       1 FAD501      0.0000 
     37 C9         -5.2110  -12.5570   19.1750 C.ar      1 FAD501      0.0000 
     38 C9A        -5.5230  -13.1760   20.3800 C.ar      1 FAD501      0.0000 
     39 N10        -5.2150  -12.5850   21.6220 N.pl3     1 FAD501      0.0000 
     40 C10        -5.5300  -13.2220   22.8000 C.2       1 FAD501      0.0000 
     41 C1'        -4.5160  -11.2920   21.6850 C.3       1 FAD501      0.0000 
     42 C2'        -5.4410  -10.1130   21.9540 C.3       1 FAD501      0.0000 
     43 O2'        -6.5790  -10.1600   21.0940 O.3       1 FAD501      0.0000 
     44 C3'        -4.6730   -8.8140   21.7110 C.3       1 FAD501      0.0000 
     45 O3'        -3.4320   -8.8740   22.4060 O.3       1 FAD501      0.0000 
     46 C4'        -5.4230   -7.5610   22.1620 C.3       1 FAD501      0.0000 
     47 O4'        -6.3960   -7.2030   21.1780 O.3       1 FAD501      0.0000 
     48 C5'        -4.4880   -6.4060   22.4500 C.3       1 FAD501      0.0000 
     49 O5'        -5.2460   -5.1800   22.4640 O.3       1 FAD501      0.0000 
     50 P          -4.7120   -3.8830   21.7490 P.3       1 FAD501      0.0000 
     51 O1P        -5.6670   -2.7030   21.9580 O.co2     1 FAD501      0.0000 
     52 O2P        -3.2950   -3.6430   22.1530 O.co2     1 FAD501      0.0000 
     53 O3P        -4.7820   -4.2910   20.2110 O.3       1 FAD501      0.0000 
@<TRIPOS>BOND
     1    1    2 ar   
     2    1    3 ar   
     3    1    4 1    
     4    1   53 1    
     5    4    5 1    
     6    5    6 1    
     7    6    7 1    
     8    6    8 1    
     9    7   12 1    
    10    8    9 1    
    11    8   10 1    
    12   10   11 1    
    13   10   12 1    
    14   12   13 1    
    15   13   14 1    
    16   13   22 1    
    17   14   15 2    
    18   15   16 1    
    19   16   17 ar   
    20   16   22 ar   
    21   17   18 1    
    22   17   19 ar   
    23   19   20 ar   
    24   20   21 ar   
    25   21   22 ar   
    26   23   24 1    
    27   23   40 2    
    28   24   25 2    
    29   24   26 am   
    30   26   27 am   
    31   27   28 2    
    32   27   29 1    
    33   29   30 2    
    34   29   40 1    
    35   30   31 1    
    36   31   32 ar   
    37   31   38 ar   
    38   32   33 ar   
    39   33   34 1    
    40   33   35 ar   
    41   35   36 1    
    42   35   37 ar   
    43   37   38 ar   
    44   38   39 1    
    45   39   40 1    
    46   39   41 1    
    47   41   42 1    
    48   42   43 1    
    49   42   44 1    
    50   44   45 1    
    51   44   46 1    
    52   46   47 1    
    53   46   48 1    
    54   48   49 1    
    55   49   50 1    
    56   50   51 ar   
    57   50   52 ar   
    58   50   53 1    
@<TRIPOS>SUBSTRUCTURE
     1 FAD501      1 GROUP   
@<TRIPOS>SET
ATOM$ORANGE STATIC     ATOMS   COLORGROUP SYSTEM 
54 5 5 6 6 8 8 10 10 12 12 14 14 16 16 17 17 20 \
20 22 22 24 24 27 27 29 29 31 31 32 32 33 33 34 34 35 \
35 36 36 37 37 38 38 40 40 41 41 42 42 44 44 46 46 48 \
48 

