#    Name: 6mp5_4_FAD
#    Modification time : Fri May 22 19:26:05 2020

@<TRIPOS>MOLECULE
6mp5_4_FAD
   53    58     1     0     1
SMALL
NO_CHARGES


@<TRIPOS>ATOM
      1 PA         35.6030  -50.9920  -16.3930 P.3       1 FAD501      0.0000 
      2 O1A        35.2140  -52.2220  -17.1250 O.co2     1 FAD501      0.0000 
      3 O2A        34.7980  -50.7180  -15.1130 O.co2     1 FAD501      0.0000 
      4 O5B        37.1370  -51.0020  -16.0510 O.3       1 FAD501      0.0000 
      5 C5B        37.6180  -50.5730  -14.7600 C.3       1 FAD501      0.0000 
      6 C4B        38.5110  -51.6390  -14.1810 C.3       1 FAD501      0.0000 
      7 O4B        39.6380  -51.0210  -13.5170 O.3       1 FAD501      0.0000 
      8 C3B        37.8440  -52.5510  -13.1500 C.3       1 FAD501      0.0000 
      9 O3B        38.2090  -53.9090  -13.3620 O.3       1 FAD501      0.0000 
     10 C2B        38.3770  -52.0190  -11.8180 C.3       1 FAD501      0.0000 
     11 O2B        38.4380  -53.0270  -10.8150 O.3       1 FAD501      0.0000 
     12 C1B        39.7760  -51.5710  -12.2260 C.3       1 FAD501      0.0000 
     13 N9A        40.3620  -50.5670  -11.3440 N.pl3     1 FAD501      0.0000 
     14 C8A        39.7420  -49.4670  -10.8140 C.2       1 FAD501      0.0000 
     15 N7A        40.5120  -48.7420  -10.0360 N.2       1 FAD501      0.0000 
     16 C5A        41.7230  -49.4190  -10.0500 C.ar      1 FAD501      0.0000 
     17 C6A        42.9600  -49.1660   -9.4270 C.ar      1 FAD501      0.0000 
     18 N6A        43.1910  -48.1190   -8.6300 N.pl3     1 FAD501      0.0000 
     19 N1A        43.9670  -50.0410   -9.6530 N.ar      1 FAD501      0.0000 
     20 C2A        43.7430  -51.0880  -10.4490 C.ar      1 FAD501      0.0000 
     21 N3A        42.6240  -51.4240  -11.0950 N.ar      1 FAD501      0.0000 
     22 C4A        41.6440  -50.5470  -10.8500 C.ar      1 FAD501      0.0000 
     23 N1         27.6770  -49.7700  -21.8860 N.2       1 FAD501      0.0000 
     24 C2         27.1560  -50.0340  -23.1200 C.2       1 FAD501      0.0000 
     25 O2         27.7940  -49.8090  -24.1560 O.2       1 FAD501      0.0000 
     26 N3         25.8760  -50.5490  -23.2280 N.am      1 FAD501      0.0000 
     27 C4         25.0310  -50.8520  -22.1820 C.2       1 FAD501      0.0000 
     28 O4         23.9140  -51.3140  -22.4030 O.2       1 FAD501      0.0000 
     29 C4X        25.5960  -50.5750  -20.8760 C.2       1 FAD501      0.0000 
     30 N5         24.8660  -50.8310  -19.8290 N.2       1 FAD501      0.0000 
     31 C5X        25.4040  -50.5680  -18.5800 C.ar      1 FAD501      0.0000 
     32 C6         24.6350  -50.8380  -17.4490 C.ar      1 FAD501      0.0000 
     33 C7         25.1270  -50.5910  -16.1720 C.ar      1 FAD501      0.0000 
     34 C7M        24.2670  -50.8950  -14.9720 C.3       1 FAD501      0.0000 
     35 C8         26.4190  -50.0620  -16.0180 C.ar      1 FAD501      0.0000 
     36 C8M        26.9820  -49.7870  -14.6510 C.3       1 FAD501      0.0000 
     37 C9         27.1900  -49.7910  -17.1450 C.ar      1 FAD501      0.0000 
     38 C9A        26.6940  -50.0390  -18.4200 C.ar      1 FAD501      0.0000 
     39 N10        27.4560  -49.7920  -19.5820 N.pl3     1 FAD501      0.0000 
     40 C10        26.9290  -50.0330  -20.8290 C.2       1 FAD501      0.0000 
     41 C1'        28.7960  -49.1950  -19.4910 C.3       1 FAD501      0.0000 
     42 C2'        29.9320  -50.2070  -19.4650 C.3       1 FAD501      0.0000 
     43 O2'        29.7310  -51.1530  -18.4160 O.3       1 FAD501      0.0000 
     44 C3'        31.2420  -49.4550  -19.2270 C.3       1 FAD501      0.0000 
     45 O3'        31.2430  -48.2900  -20.0450 O.3       1 FAD501      0.0000 
     46 C4'        32.5210  -50.2470  -19.4930 C.3       1 FAD501      0.0000 
     47 O4'        32.8160  -51.0480  -18.3500 O.3       1 FAD501      0.0000 
     48 C5'        33.6870  -49.3390  -19.8280 C.3       1 FAD501      0.0000 
     49 O5'        34.9190  -50.0820  -19.7030 O.3       1 FAD501      0.0000 
     50 P          36.0910  -49.5720  -18.7780 P.3       1 FAD501      0.0000 
     51 O1P        37.2980  -50.5120  -18.8650 O.co2     1 FAD501      0.0000 
     52 O2P        36.3880  -48.1430  -19.0530 O.co2     1 FAD501      0.0000 
     53 O3P        35.4490  -49.7260  -17.3350 O.3       1 FAD501      0.0000 
@<TRIPOS>BOND
     1    1    2 ar   
     2    1    3 ar   
     3    1    4 1    
     4    1   53 1    
     5    4    5 1    
     6    5    6 1    
     7    6    7 1    
     8    6    8 1    
     9    7   12 1    
    10    8    9 1    
    11    8   10 1    
    12   10   11 1    
    13   10   12 1    
    14   12   13 1    
    15   13   14 1    
    16   13   22 1    
    17   14   15 2    
    18   15   16 1    
    19   16   17 ar   
    20   16   22 ar   
    21   17   18 1    
    22   17   19 ar   
    23   19   20 ar   
    24   20   21 ar   
    25   21   22 ar   
    26   23   24 1    
    27   23   40 2    
    28   24   25 2    
    29   24   26 am   
    30   26   27 am   
    31   27   28 2    
    32   27   29 1    
    33   29   30 2    
    34   29   40 1    
    35   30   31 1    
    36   31   32 ar   
    37   31   38 ar   
    38   32   33 ar   
    39   33   34 1    
    40   33   35 ar   
    41   35   36 1    
    42   35   37 ar   
    43   37   38 ar   
    44   38   39 1    
    45   39   40 1    
    46   39   41 1    
    47   41   42 1    
    48   42   43 1    
    49   42   44 1    
    50   44   45 1    
    51   44   46 1    
    52   46   47 1    
    53   46   48 1    
    54   48   49 1    
    55   49   50 1    
    56   50   51 ar   
    57   50   52 ar   
    58   50   53 1    
@<TRIPOS>SUBSTRUCTURE
     1 FAD501      1 GROUP   
@<TRIPOS>SET
ATOM$ORANGE STATIC     ATOMS   COLORGROUP SYSTEM 
54 5 5 6 6 8 8 10 10 12 12 14 14 16 16 17 17 20 \
20 22 22 24 24 27 27 29 29 31 31 32 32 33 33 34 34 35 \
35 36 36 37 37 38 38 40 40 41 41 42 42 44 44 46 46 48 \
48 

