#    Name: 5yw8_7_AGS_CAVITY_N1_4
#    Modification time : Fri May 22 19:31:05 2020

@<TRIPOS>MOLECULE
5yw8_7_AGS_CAVITY_N1_4
   82     0     5     0     0
SMALL
NO_CHARGES


@<TRIPOS>ATOM
      1 O         188.4000  153.3700  158.8800 O.2       1 ALA2        0.0000 
      2 N         191.3300  153.5400  156.6700 N.am      1 ALA2        0.0000 
      3 N         191.0900  154.2900  155.4000 N.am      1 ALA2        0.0000 
      4 N         194.2600  153.7000  154.4700 N.am      1 ALA2        0.0000 
      5 N         193.1900  154.5000  155.1400 N.am      1 ALA2        0.0000 
      6 N         192.9500  155.2500  153.8600 N.am      1 ALA2        0.0000 
      7 O         192.7100  156.0100  152.5800 O.2       1 ALA2        0.0000 
      8 N         191.8800  156.0600  154.5300 N.am      1 ALA2        0.0000 
      9 O         191.4000  157.5600  151.9800 O.2       1 ALA2        0.0000 
     10 N         189.4900  158.4200  154.6000 N.am      1 ALA2        0.0000 
     11 N         188.4200  159.2200  155.2700 N.am      1 ALA2        0.0000 
     12 N         195.2800  154.7200  154.8800 N.am      1 ALA2        0.0000 
     13 N         195.0400  155.4700  153.6000 N.am      1 ALA2        0.0000 
     14 O         194.8100  156.2200  152.3200 O.2       1 ALA2        0.0000 
     15 O         193.7300  157.0300  152.9900 O.2       1 ALA2        0.0000 
     16 O         191.3500  159.3800  153.0600 O.2       1 ALA2        0.0000 
     17 N         190.2700  160.1900  153.7300 N.am      1 ALA2        0.0000 
     18 N         190.1500  157.9900  159.5100 N.am      1 ALA2        0.0000 
     19 N         195.5900  157.9900  151.4600 N.am      1 ALA2        0.0000 
     20 OD1       189.9600  156.9200  157.1500 O.co2     2 ASP3        0.0000 
     21 OD1       189.1300  156.9700  159.1000 O.co2     2 ASP3        0.0000 
     22 OD1       194.2100  155.5200  155.5500 O.co2     2 ASP3        0.0000 
     23 OD1       193.9700  156.2800  154.2700 O.co2     2 ASP3        0.0000 
     24 OD1       192.9000  157.0800  154.9400 O.co2     2 ASP3        0.0000 
     25 OD1       191.8200  157.8800  155.6100 O.co2     2 ASP3        0.0000 
     26 OD1       190.9800  157.9400  157.5600 O.co2     2 ASP3        0.0000 
     27 OD1       190.7500  158.6900  156.2800 O.co2     2 ASP3        0.0000 
     28 OD1       189.9100  158.7400  158.2300 O.co2     2 ASP3        0.0000 
     29 OD1       189.0700  158.7900  160.1800 O.co2     2 ASP3        0.0000 
     30 OD1       194.9900  157.3000  154.6800 O.co2     2 ASP3        0.0000 
     31 OD1       193.6800  158.8500  154.0800 O.co2     2 ASP3        0.0000 
     32 OD1       191.7700  159.7100  156.6900 O.co2     2 ASP3        0.0000 
     33 OD1       190.9300  159.7600  158.6400 O.co2     2 ASP3        0.0000 
     34 CZ        187.9800  153.0500  155.2500 C.ar      3 PHE5        0.0000 
     35 CZ        187.1400  153.1000  157.1900 C.ar      3 PHE5        0.0000 
     36 CZ        188.7600  154.8200  154.3800 C.ar      3 PHE5        0.0000 
     37 CZ        189.7800  155.8400  154.7900 C.ar      3 PHE5        0.0000 
     38 CZ        188.4700  157.4000  154.1900 C.ar      3 PHE5        0.0000 
     39 CZ        191.6400  156.8100  153.2500 C.ar      3 PHE5        0.0000 
     40 CZ        190.5600  157.6100  153.9200 C.ar      3 PHE5        0.0000 
     41 CZ        190.3300  158.3600  152.6500 C.ar      3 PHE5        0.0000 
     42 CA        186.9000  153.8600  155.9200 C.3       4 GLY6        0.0000 
     43 CA        189.2300  153.3200  156.9300 C.3       4 GLY6        0.0000 
     44 CA        189.0000  154.0700  155.6600 C.3       4 GLY6        0.0000 
     45 CA        188.1600  154.1200  157.6100 C.3       4 GLY6        0.0000 
     46 CA        187.9200  154.8800  156.3300 C.3       4 GLY6        0.0000 
     47 CA        187.6900  155.6300  155.0500 C.3       4 GLY6        0.0000 
     48 CA        187.0900  154.9300  158.2800 C.3       4 GLY6        0.0000 
     49 CA        190.8600  155.0400  154.1200 C.3       4 GLY6        0.0000 
     50 CA        190.2500  154.3400  157.3400 C.3       4 GLY6        0.0000 
     51 CA        189.1800  155.1400  158.0200 C.3       4 GLY6        0.0000 
     52 CA        188.7100  156.6500  155.4600 C.3       4 GLY6        0.0000 
     53 CA        188.1100  155.9500  158.6900 C.3       4 GLY6        0.0000 
     54 CA        187.8700  156.7000  157.4100 C.3       4 GLY6        0.0000 
     55 CA        187.6300  157.4500  156.1300 C.3       4 GLY6        0.0000 
     56 CA        194.5000  152.9500  155.7400 C.3       4 GLY6        0.0000 
     57 CA        193.4200  153.7500  156.4100 C.3       4 GLY6        0.0000 
     58 CA        192.1100  155.3100  155.8100 C.3       4 GLY6        0.0000 
     59 CA        191.0400  156.1100  156.4800 C.3       4 GLY6        0.0000 
     60 CA        190.2000  156.1600  158.4300 C.3       4 GLY6        0.0000 
     61 CA        188.8900  157.7200  157.8200 C.3       4 GLY6        0.0000 
     62 CA        188.6500  158.4700  156.5400 C.3       4 GLY6        0.0000 
     63 CA        187.3400  160.0200  155.9400 C.3       4 GLY6        0.0000 
     64 CA        194.5700  156.9700  151.0500 C.3       4 GLY6        0.0000 
     65 CA        193.5000  157.7800  151.7200 C.3       4 GLY6        0.0000 
     66 CA        192.4200  158.5800  152.3900 C.3       4 GLY6        0.0000 
     67 CA        188.8400  159.5400  158.9000 C.3       4 GLY6        0.0000 
     68 CA        188.6000  160.2900  157.6300 C.3       4 GLY6        0.0000 
     69 CA        196.0600  156.4900  154.0100 C.3       4 GLY6        0.0000 
     70 CA        190.0900  159.8100  160.5900 C.3       4 GLY6        0.0000 
     71 DU        190.0200  155.0900  156.0700 H         5 CUB7        0.0000 
     72 DU        188.9400  155.9000  156.7400 H         5 CUB7        0.0000 
     73 DU        190.8000  156.8600  155.2000 H         5 CUB7        0.0000 
     74 DU        189.7300  157.6700  155.8700 H         5 CUB7        0.0000 
     75 DU        192.6600  157.8300  153.6600 H         5 CUB7        0.0000 
     76 DU        191.5800  158.6300  154.3400 H         5 CUB7        0.0000 
     77 DU        190.5100  159.4400  155.0100 H         5 CUB7        0.0000 
     78 DU        189.6700  159.4900  156.9500 H         5 CUB7        0.0000 
     79 DU        189.4400  160.2400  155.6800 H         5 CUB7        0.0000 
     80 DU        195.8300  157.2400  152.7300 H         5 CUB7        0.0000 
     81 DU        194.7500  158.0500  153.4000 H         5 CUB7        0.0000 
     82 DU        194.5200  158.8000  152.1300 H         5 CUB7        0.0000 
@<TRIPOS>BOND
@<TRIPOS>SUBSTRUCTURE
     1 ALA2        1 GROUP   
     2 ASP3       20 GROUP   
     3 PHE5       34 GROUP   
     4 GLY6       42 GROUP   
     5 CUB7       71 GROUP   
@<TRIPOS>SET

