#    Name: 5yw8_4_AGS_CAVITY_N1_ALL
#    Modification time : Fri May 22 19:29:56 2020

@<TRIPOS>MOLECULE
5yw8_4_AGS_CAVITY_N1_ALL
   87     0     6     0     0
SMALL
NO_CHARGES


@<TRIPOS>ATOM
      1 OG         90.2700  191.4800  127.1900 O.3       1 SER1        0.0000 
      2 OG         91.5300  191.7500  128.8800 O.3       1 SER1        0.0000 
      3 OG         91.2900  192.5000  127.6100 O.3       1 SER1        0.0000 
      4 OG         90.4500  192.5500  129.5500 O.3       1 SER1        0.0000 
      5 OG         90.2200  193.3000  128.2800 O.3       1 SER1        0.0000 
      6 OG         91.7100  192.8200  131.2400 O.3       1 SER1        0.0000 
      7 OG         91.4700  193.5700  129.9600 O.3       1 SER1        0.0000 
      8 OG         91.2400  194.3200  128.6900 O.3       1 SER1        0.0000 
      9 OG         90.1600  195.1200  129.3600 O.3       1 SER1        0.0000 
     10 OG         92.7300  193.8400  131.6500 O.3       1 SER1        0.0000 
     11 OG         92.4900  194.5900  130.3700 O.3       1 SER1        0.0000 
     12 O          85.8400  191.7900  126.4400 O.2       2 ALA2        0.0000 
     13 N          88.9000  194.8500  127.6700 N.am      2 ALA2        0.0000 
     14 N          89.9200  195.8700  128.0800 N.am      2 ALA2        0.0000 
     15 N          89.1900  192.9800  137.0900 N.am      2 ALA2        0.0000 
     16 N          88.9600  193.7300  135.8100 N.am      2 ALA2        0.0000 
     17 N          88.1200  193.7800  137.7600 N.am      2 ALA2        0.0000 
     18 N          87.8800  194.5300  136.4800 N.am      2 ALA2        0.0000 
     19 N          92.9600  193.0900  132.9300 N.am      2 ALA2        0.0000 
     20 N          92.1300  193.1400  134.8800 N.am      2 ALA2        0.0000 
     21 N          91.8900  193.8900  133.6000 N.am      2 ALA2        0.0000 
     22 O          90.9400  196.8900  128.4900 O.2       2 ALA2        0.0000 
     23 N          91.2900  193.1900  136.8300 N.am      2 ALA2        0.0000 
     24 N          91.0500  193.9500  135.5500 N.am      2 ALA2        0.0000 
     25 N          89.1400  194.8000  138.1700 N.am      2 ALA2        0.0000 
     26 O          88.9000  195.5500  136.8900 O.2       2 ALA2        0.0000 
     27 O          87.8300  196.3600  137.5600 O.2       2 ALA2        0.0000 
     28 N          94.8200  194.0600  131.3900 N.am      2 ALA2        0.0000 
     29 N          93.7500  194.8600  132.0600 N.am      2 ALA2        0.0000 
     30 N          93.5100  195.6100  130.7900 N.am      2 ALA2        0.0000 
     31 N          92.0700  194.9700  135.9600 N.am      2 ALA2        0.0000 
     32 N          91.2300  195.0200  137.9100 N.am      2 ALA2        0.0000 
     33 O          90.1600  195.8200  138.5800 O.2       2 ALA2        0.0000 
     34 O          89.9200  196.5700  137.3000 O.2       2 ALA2        0.0000 
     35 NZ         91.0500  193.2500  126.3300 N.4       3 LYS4        0.0000 
     36 NZ         91.8400  195.7200  134.6800 N.4       3 LYS4        0.0000 
     37 NZ         90.7600  196.5200  135.3500 N.4       3 LYS4        0.0000 
     38 CZ         86.0800  191.0400  127.7100 C.ar      4 PHE5        0.0000 
     39 CZ         85.0100  191.8500  128.3900 C.ar      4 PHE5        0.0000 
     40 CZ         86.5000  191.3700  131.3500 C.ar      4 PHE5        0.0000 
     41 CZ         86.0300  192.8700  128.8000 C.ar      4 PHE5        0.0000 
     42 CA         88.1700  191.2600  127.4500 C.3       5 GLY6        0.0000 
     43 CA         87.3400  191.3100  129.4000 C.3       5 GLY6        0.0000 
     44 CA         87.1000  192.0600  128.1300 C.3       5 GLY6        0.0000 
     45 CA         86.8600  192.8100  126.8500 C.3       5 GLY6        0.0000 
     46 CA         89.1900  192.2800  127.8700 C.3       5 GLY6        0.0000 
     47 CA         88.9600  193.0300  126.5900 C.3       5 GLY6        0.0000 
     48 CA         88.5900  191.5800  131.0900 C.3       5 GLY6        0.0000 
     49 CA         88.3600  192.3300  129.8100 C.3       5 GLY6        0.0000 
     50 CA         87.8800  193.8300  127.2600 C.3       5 GLY6        0.0000 
     51 CA         87.6500  194.5900  125.9800 C.3       5 GLY6        0.0000 
     52 CA         87.5200  192.3900  131.7600 C.3       5 GLY6        0.0000 
     53 CA         90.6900  191.8000  130.8300 C.3       5 GLY6        0.0000 
     54 CA         89.9800  194.0500  127.0000 C.3       5 GLY6        0.0000 
     55 CA         89.6100  192.6000  131.5000 C.3       5 GLY6        0.0000 
     56 CA         88.5400  193.4100  132.1700 C.3       5 GLY6        0.0000 
     57 CA         87.7000  193.4600  134.1200 C.3       5 GLY6        0.0000 
     58 CA         91.9400  192.0700  132.5200 C.3       5 GLY6        0.0000 
     59 CA         91.0000  195.0700  127.4100 C.3       5 GLY6        0.0000 
     60 CA         91.1100  192.1200  134.4700 C.3       5 GLY6        0.0000 
     61 CA         90.8700  192.8700  133.1900 C.3       5 GLY6        0.0000 
     62 CA         90.2700  192.1700  136.4100 C.3       5 GLY6        0.0000 
     63 CA         90.0300  192.9300  135.1400 C.3       5 GLY6        0.0000 
     64 CA         89.8000  193.6800  133.8600 C.3       5 GLY6        0.0000 
     65 CA         89.5600  194.4300  132.5800 C.3       5 GLY6        0.0000 
     66 CA         88.7200  194.4800  134.5300 C.3       5 GLY6        0.0000 
     67 CA         91.1800  196.1400  129.7700 C.3       5 GLY6        0.0000 
     68 CA         92.6700  195.6600  132.7300 C.3       5 GLY6        0.0000 
     69 CA         92.4400  196.4100  131.4600 C.3       5 GLY6        0.0000 
     70 CA         91.6000  196.4700  133.4100 C.3       5 GLY6        0.0000 
     71 DU         85.7900  193.6200  127.5200 H         6 CUB7        0.0000 
     72 DU         88.1200  193.0800  128.5400 H         6 CUB7        0.0000 
     73 DU         87.2800  193.1400  130.4800 H         6 CUB7        0.0000 
     74 DU         87.0500  193.8900  129.2100 H         6 CUB7        0.0000 
     75 DU         89.3800  193.3500  130.2200 H         6 CUB7        0.0000 
     76 DU         89.1400  194.1000  128.9500 H         6 CUB7        0.0000 
     77 DU         88.3000  194.1600  130.9000 H         6 CUB7        0.0000 
     78 DU         90.6300  193.6200  131.9100 H         6 CUB7        0.0000 
     79 DU         90.4000  194.3700  130.6400 H         6 CUB7        0.0000 
     80 DU         88.4900  195.2300  133.2500 H         6 CUB7        0.0000 
     81 DU         91.6500  194.6400  132.3200 H         6 CUB7        0.0000 
     82 DU         91.4200  195.3900  131.0500 H         6 CUB7        0.0000 
     83 DU         90.8200  194.7000  134.2700 H         6 CUB7        0.0000 
     84 DU         90.5800  195.4500  132.9900 H         6 CUB7        0.0000 
     85 DU         90.2100  194.0000  137.5000 H         6 CUB7        0.0000 
     86 DU         89.9800  194.7500  136.2200 H         6 CUB7        0.0000 
     87 DU         89.7400  195.5000  134.9400 H         6 CUB7        0.0000 
@<TRIPOS>BOND
@<TRIPOS>SUBSTRUCTURE
     1 SER1        1 GROUP   
     2 ALA2       12 GROUP   
     3 LYS4       35 GROUP   
     4 PHE5       38 GROUP   
     5 GLY6       42 GROUP   
     6 CUB7       71 GROUP   
@<TRIPOS>SET

