#    Name: 5yw8_5_AGS
#    Modification time : Fri May 22 19:30:20 2020

@<TRIPOS>MOLECULE
5yw8_5_AGS
   31    32     1     0     0
SMALL
NO_CHARGES


@<TRIPOS>ATOM
      1 PG        161.3170  127.3200  155.7450 P.3       1 AGS401      0.0000 
      2 S1G       162.4760  125.5430  155.7930 Du        1 AGS401      0.0000 
      3 O2G       159.7230  126.9400  155.9230 O.3       1 AGS401      0.0000 
      4 O3G       161.7450  128.1990  156.9300 O.3       1 AGS401      0.0000 
      5 PB        160.8760  127.4150  153.0590 P.3       1 AGS401      0.0000 
      6 O1B       162.0480  126.9770  152.2280 O.co2     1 AGS401      0.0000 
      7 O2B       160.1780  126.0990  153.2960 O.co2     1 AGS401      0.0000 
      8 O3B       161.4690  128.0110  154.3820 O.3       1 AGS401      0.0000 
      9 PA        159.0520  129.3810  152.9960 P.3       1 AGS401      0.0000 
     10 O1A       157.6870  129.4970  152.2360 O.co2     1 AGS401      0.0000 
     11 O2A       158.8420  128.7280  154.3980 O.co2     1 AGS401      0.0000 
     12 O3A       160.0380  128.4420  152.3040 O.3       1 AGS401      0.0000 
     13 O5'       159.7480  130.8680  153.1950 O.3       1 AGS401      0.0000 
     14 C5'       158.9310  131.9060  153.7230 C.3       1 AGS401      0.0000 
     15 C4'       159.7080  132.4830  154.8790 C.3       1 AGS401      0.0000 
     16 O4'       158.8130  133.0850  155.8110 O.3       1 AGS401      0.0000 
     17 C3'       160.4590  131.3950  155.6070 C.3       1 AGS401      0.0000 
     18 O3'       161.8420  131.7590  155.6510 O.3       1 AGS401      0.0000 
     19 C2'       159.8240  131.3170  156.9850 C.3       1 AGS401      0.0000 
     20 O2'       160.7160  131.7600  158.0030 O.3       1 AGS401      0.0000 
     21 C1'       158.6510  132.2700  156.9690 C.3       1 AGS401      0.0000 
     22 N9        157.4020  131.4910  156.8400 N.pl3     1 AGS401      0.0000 
     23 C8        157.2630  130.3370  156.1640 C.2       1 AGS401      0.0000 
     24 N7        155.9930  129.8750  156.2240 N.2       1 AGS401      0.0000 
     25 C5        155.2970  130.7490  156.9600 C.ar      1 AGS401      0.0000 
     26 C6        153.9010  130.8500  157.4010 C.ar      1 AGS401      0.0000 
     27 N6        153.0010  129.8950  157.0640 N.pl3     1 AGS401      0.0000 
     28 N1        153.5800  131.9150  158.1570 N.ar      1 AGS401      0.0000 
     29 C2        154.4800  132.8560  158.4890 C.ar      1 AGS401      0.0000 
     30 N3        155.7670  132.8270  158.1170 N.ar      1 AGS401      0.0000 
     31 C4        156.2240  131.8130  157.3630 C.ar      1 AGS401      0.0000 
@<TRIPOS>BOND
     1    1    3 1    
     2    1    4 1    
     3    1    8 1    
     4    5    6 ar   
     5    5    7 ar   
     6    5    8 1    
     7    5   12 1    
     8    9   10 ar   
     9    9   11 ar   
    10    9   12 1    
    11    9   13 1    
    12   13   14 1    
    13   14   15 1    
    14   15   16 1    
    15   15   17 1    
    16   16   21 1    
    17   17   18 1    
    18   17   19 1    
    19   19   20 1    
    20   19   21 1    
    21   21   22 1    
    22   22   23 1    
    23   22   31 1    
    24   23   24 2    
    25   24   25 1    
    26   25   26 ar   
    27   25   31 ar   
    28   26   27 1    
    29   26   28 ar   
    30   28   29 ar   
    31   29   30 ar   
    32   30   31 ar   
@<TRIPOS>SUBSTRUCTURE
     1 AGS401      1 GROUP   
@<TRIPOS>SET

