#    Name: 5yw8_6_AGS_CAVITY_N1_4
#    Modification time : Fri May 22 19:30:39 2020

@<TRIPOS>MOLECULE
5yw8_6_AGS_CAVITY_N1_4
    3     0     2     0     0
SMALL
NO_CHARGES


@<TRIPOS>ATOM
      1 CA        129.2100   87.6600  129.4500 C.3       1 GLY6        0.0000 
      2 CA        128.3200   89.5400  132.4800 C.3       1 GLY6        0.0000 
      3 DU        128.1400   88.4700  130.1200 H         2 CUB7        0.0000 
@<TRIPOS>BOND
@<TRIPOS>SUBSTRUCTURE
     1 GLY6        1 GROUP   
     2 CUB7        3 GROUP   
@<TRIPOS>SET

