#    Name: 5yw8_6_AGS
#    Modification time : Fri May 22 19:30:37 2020

@<TRIPOS>MOLECULE
5yw8_6_AGS
   31    33     1     0     0
SMALL
NO_CHARGES


@<TRIPOS>ATOM
      1 PG        125.5220   86.3890  122.5510 P.3       1 AGS2501     0.0000 
      2 S1G       125.8790   87.2850  124.3880 S.2       1 AGS2501     0.0000 
      3 O2G       125.1420   87.5150  121.4640 O.3       1 AGS2501     0.0000 
      4 O3G       124.3990   85.4330  122.6700 O.3       1 AGS2501     0.0000 
      5 PB        126.9120   84.0170  121.9930 P.3       1 AGS2501     0.0000 
      6 O1B       125.7790   83.5440  121.1110 O.co2     1 AGS2501     0.0000 
      7 O2B       128.2370   83.6040  121.4000 O.co2     1 AGS2501     0.0000 
      8 O3B       126.8570   85.6240  122.0790 O.3       1 AGS2501     0.0000 
      9 PA        127.7130   83.7770  124.6850 P.3       1 AGS2501     0.0000 
     10 O1A       129.1420   83.8290  124.2030 O.co2     1 AGS2501     0.0000 
     11 O2A       127.2940   85.1330  125.2030 O.co2     1 AGS2501     0.0000 
     12 O3A       126.7490   83.3640  123.4600 O.3       1 AGS2501     0.0000 
     13 O5'       127.5820   82.6980  125.8780 O.3       1 AGS2501     0.0000 
     14 C5'       127.9690   81.3350  125.6900 C.3       1 AGS2501     0.0000 
     15 C4'       127.7670   80.5520  126.9840 C.3       1 AGS2501     0.0000 
     16 O4'       128.5810   81.0980  128.0240 O.3       1 AGS2501     0.0000 
     17 C3'       126.3250   80.6140  127.4590 C.3       1 AGS2501     0.0000 
     18 O3'       125.7250   79.3180  127.3770 O.3       1 AGS2501     0.0000 
     19 C2'       126.3820   81.0680  128.9030 C.3       1 AGS2501     0.0000 
     20 O2'       125.7540   80.0980  129.7450 O.3       1 AGS2501     0.0000 
     21 C1'       127.8550   81.1900  129.2510 C.3       1 AGS2501     0.0000 
     22 N9        128.1100   82.5150  129.8630 N.pl3     1 AGS2501     0.0000 
     23 C8        128.0090   83.6940  129.2240 C.2       1 AGS2501     0.0000 
     24 N7        128.3080   84.7270  130.0500 N.2       1 AGS2501     0.0000 
     25 C5        128.6120   84.2060  131.2510 C.ar      1 AGS2501     0.0000 
     26 C6        129.0180   84.7410  132.5730 C.ar      1 AGS2501     0.0000 
     27 N6        129.1610   86.0730  132.7730 N.pl3     1 AGS2501     0.0000 
     28 N1        129.2410   83.8560  133.5690 N.ar      1 AGS2501     0.0000 
     29 C2        129.1040   82.5300  133.3800 C.ar      1 AGS2501     0.0000 
     30 N3        128.7390   81.9760  132.2080 N.ar      1 AGS2501     0.0000 
     31 C4        128.4830   82.7460  131.1240 C.ar      1 AGS2501     0.0000 
@<TRIPOS>BOND
     1    1    2 2    
     2    1    3 1    
     3    1    4 1    
     4    1    8 1    
     5    5    6 ar   
     6    5    7 ar   
     7    5    8 1    
     8    5   12 1    
     9    9   10 ar   
    10    9   11 ar   
    11    9   12 1    
    12    9   13 1    
    13   13   14 1    
    14   14   15 1    
    15   15   16 1    
    16   15   17 1    
    17   16   21 1    
    18   17   18 1    
    19   17   19 1    
    20   19   20 1    
    21   19   21 1    
    22   21   22 1    
    23   22   23 1    
    24   22   31 1    
    25   23   24 2    
    26   24   25 1    
    27   25   26 ar   
    28   25   31 ar   
    29   26   27 1    
    30   26   28 ar   
    31   28   29 ar   
    32   29   30 ar   
    33   30   31 ar   
@<TRIPOS>SUBSTRUCTURE
     1 AGS2501     1 GROUP   
@<TRIPOS>SET

