#    Name: 5yw8_4_AGS_CAVITY_N1_4
#    Modification time : Fri May 22 19:29:56 2020

@<TRIPOS>MOLECULE
5yw8_4_AGS_CAVITY_N1_4
   25     0     4     0     0
SMALL
NO_CHARGES


@<TRIPOS>ATOM
      1 O          85.8400  191.7900  126.4400 O.2       1 ALA2        0.0000 
      2 N          88.9000  194.8500  127.6700 N.am      1 ALA2        0.0000 
      3 CZ         86.0800  191.0400  127.7100 C.ar      2 PHE5        0.0000 
      4 CZ         85.0100  191.8500  128.3900 C.ar      2 PHE5        0.0000 
      5 CZ         86.5000  191.3700  131.3500 C.ar      2 PHE5        0.0000 
      6 CZ         86.0300  192.8700  128.8000 C.ar      2 PHE5        0.0000 
      7 CA         87.3400  191.3100  129.4000 C.3       3 GLY6        0.0000 
      8 CA         87.1000  192.0600  128.1300 C.3       3 GLY6        0.0000 
      9 CA         86.8600  192.8100  126.8500 C.3       3 GLY6        0.0000 
     10 CA         88.9600  193.0300  126.5900 C.3       3 GLY6        0.0000 
     11 CA         88.5900  191.5800  131.0900 C.3       3 GLY6        0.0000 
     12 CA         88.3600  192.3300  129.8100 C.3       3 GLY6        0.0000 
     13 CA         87.8800  193.8300  127.2600 C.3       3 GLY6        0.0000 
     14 CA         87.6500  194.5900  125.9800 C.3       3 GLY6        0.0000 
     15 CA         87.5200  192.3900  131.7600 C.3       3 GLY6        0.0000 
     16 CA         89.6100  192.6000  131.5000 C.3       3 GLY6        0.0000 
     17 CA         88.5400  193.4100  132.1700 C.3       3 GLY6        0.0000 
     18 CA         87.7000  193.4600  134.1200 C.3       3 GLY6        0.0000 
     19 CA         88.7200  194.4800  134.5300 C.3       3 GLY6        0.0000 
     20 DU         85.7900  193.6200  127.5200 H         4 CUB7        0.0000 
     21 DU         88.1200  193.0800  128.5400 H         4 CUB7        0.0000 
     22 DU         87.2800  193.1400  130.4800 H         4 CUB7        0.0000 
     23 DU         87.0500  193.8900  129.2100 H         4 CUB7        0.0000 
     24 DU         88.3000  194.1600  130.9000 H         4 CUB7        0.0000 
     25 DU         88.4900  195.2300  133.2500 H         4 CUB7        0.0000 
@<TRIPOS>BOND
@<TRIPOS>SUBSTRUCTURE
     1 ALA2        1 GROUP   
     2 PHE5        3 GROUP   
     3 GLY6        7 GROUP   
     4 CUB7       20 GROUP   
@<TRIPOS>SET

