#    Name: 5yw8_3_AGS_CAVITY_N1_4
#    Modification time : Fri May 22 19:29:39 2020

@<TRIPOS>MOLECULE
5yw8_3_AGS_CAVITY_N1_4
   17     0     3     0     0
SMALL
NO_CHARGES


@<TRIPOS>ATOM
      1 N         134.6500  158.3200  154.1100 N.am      1 ALA2        0.0000 
      2 N         133.5700  159.1200  154.7800 N.am      1 ALA2        0.0000 
      3 N         134.5900  160.1400  155.1900 N.am      1 ALA2        0.0000 
      4 CA        131.2900  157.8300  152.6800 C.3       2 GLY6        0.0000 
      5 CA        130.2200  158.6300  153.3600 C.3       2 GLY6        0.0000 
      6 CA        133.8600  156.5400  154.9800 C.3       2 GLY6        0.0000 
      7 CA        133.6300  157.3000  153.7000 C.3       2 GLY6        0.0000 
      8 CA        132.3200  158.8500  153.1000 C.3       2 GLY6        0.0000 
      9 CA        134.8300  159.3900  156.4700 C.3       2 GLY6        0.0000 
     10 CA        133.7500  160.1900  157.1400 C.3       2 GLY6        0.0000 
     11 CA        133.5200  160.9400  155.8600 C.3       2 GLY6        0.0000 
     12 CA        135.8500  160.4100  156.8800 C.3       2 GLY6        0.0000 
     13 CA        135.0100  160.4600  158.8300 C.3       2 GLY6        0.0000 
     14 DU        132.5500  158.1000  154.3700 H         3 CUB7        0.0000 
     15 DU        134.8800  157.5600  155.3900 H         3 CUB7        0.0000 
     16 DU        134.0400  157.6200  157.3400 H         3 CUB7        0.0000 
     17 DU        133.8100  158.3700  156.0600 H         3 CUB7        0.0000 
@<TRIPOS>BOND
@<TRIPOS>SUBSTRUCTURE
     1 ALA2        1 GROUP   
     2 GLY6        4 GROUP   
     3 CUB7       14 GROUP   
@<TRIPOS>SET

