#    Name: 5yw8_7_AGS
#    Modification time : Fri May 22 19:31:03 2020

@<TRIPOS>MOLECULE
5yw8_7_AGS
   31    32     1     0     0
SMALL
NO_CHARGES


@<TRIPOS>ATOM
      1 PG        194.2930  161.3200  155.7470 P.3       1 AGS401      0.0000 
      2 S1G       196.0700  162.4790  155.7950 Du        1 AGS401      0.0000 
      3 O2G       194.6740  159.7260  155.9250 O.3       1 AGS401      0.0000 
      4 O3G       193.4150  161.7480  156.9320 O.3       1 AGS401      0.0000 
      5 PB        194.1990  160.8790  153.0610 P.3       1 AGS401      0.0000 
      6 O1B       194.6370  162.0510  152.2300 O.co2     1 AGS401      0.0000 
      7 O2B       195.5140  160.1810  153.2980 O.co2     1 AGS401      0.0000 
      8 O3B       193.6030  161.4720  154.3840 O.3       1 AGS401      0.0000 
      9 PA        192.2320  159.0550  152.9980 P.3       1 AGS401      0.0000 
     10 O1A       192.1170  157.6900  152.2380 O.co2     1 AGS401      0.0000 
     11 O2A       192.8860  158.8450  154.4000 O.co2     1 AGS401      0.0000 
     12 O3A       193.1720  160.0410  152.3060 O.3       1 AGS401      0.0000 
     13 O5'       190.7460  159.7510  153.1970 O.3       1 AGS401      0.0000 
     14 C5'       189.7080  158.9340  153.7250 C.3       1 AGS401      0.0000 
     15 C4'       189.1310  159.7110  154.8810 C.3       1 AGS401      0.0000 
     16 O4'       188.5290  158.8160  155.8130 O.3       1 AGS401      0.0000 
     17 C3'       190.2180  160.4620  155.6090 C.3       1 AGS401      0.0000 
     18 O3'       189.8540  161.8450  155.6530 O.3       1 AGS401      0.0000 
     19 C2'       190.2960  159.8270  156.9870 C.3       1 AGS401      0.0000 
     20 O2'       189.8530  160.7190  158.0050 O.3       1 AGS401      0.0000 
     21 C1'       189.3430  158.6540  156.9710 C.3       1 AGS401      0.0000 
     22 N9        190.1230  157.4050  156.8420 N.pl3     1 AGS401      0.0000 
     23 C8        191.2760  157.2660  156.1660 C.2       1 AGS401      0.0000 
     24 N7        191.7390  155.9960  156.2260 N.2       1 AGS401      0.0000 
     25 C5        190.8640  155.3000  156.9620 C.ar      1 AGS401      0.0000 
     26 C6        190.7640  153.9040  157.4040 C.ar      1 AGS401      0.0000 
     27 N6        191.7190  153.0040  157.0670 N.pl3     1 AGS401      0.0000 
     28 N1        189.6980  153.5830  158.1590 N.ar      1 AGS401      0.0000 
     29 C2        188.7580  154.4830  158.4910 C.ar      1 AGS401      0.0000 
     30 N3        188.7860  155.7700  158.1190 N.ar      1 AGS401      0.0000 
     31 C4        189.8010  156.2270  157.3650 C.ar      1 AGS401      0.0000 
@<TRIPOS>BOND
     1    1    3 1    
     2    1    4 1    
     3    1    8 1    
     4    5    6 ar   
     5    5    7 ar   
     6    5    8 1    
     7    5   12 1    
     8    9   10 ar   
     9    9   11 ar   
    10    9   12 1    
    11    9   13 1    
    12   13   14 1    
    13   14   15 1    
    14   15   16 1    
    15   15   17 1    
    16   16   21 1    
    17   17   18 1    
    18   17   19 1    
    19   19   20 1    
    20   19   21 1    
    21   21   22 1    
    22   22   23 1    
    23   22   31 1    
    24   23   24 2    
    25   24   25 1    
    26   25   26 ar   
    27   25   31 ar   
    28   26   27 1    
    29   26   28 ar   
    30   28   29 ar   
    31   29   30 ar   
    32   30   31 ar   
@<TRIPOS>SUBSTRUCTURE
     1 AGS401      1 GROUP   
@<TRIPOS>SET

