#    Name: 5yw8_6_AGS_CAVITY_N1_6
#    Modification time : Fri May 22 19:30:39 2020

@<TRIPOS>MOLECULE
5yw8_6_AGS_CAVITY_N1_6
   39     0     4     0     0
SMALL
NO_CHARGES


@<TRIPOS>ATOM
      1 OG        127.6600   89.9700  127.5600 O.3       1 SER1        0.0000 
      2 OG        126.5900   90.7700  128.2300 O.3       1 SER1        0.0000 
      3 OG        129.7600   90.1900  127.3000 O.3       1 SER1        0.0000 
      4 OG        128.6800   90.9900  127.9700 O.3       1 SER1        0.0000 
      5 OG        127.8500   91.0400  129.9200 O.3       1 SER1        0.0000 
      6 N         125.5700   89.7500  127.8200 N.am      2 ALA2        0.0000 
      7 N         124.4900   90.5600  128.5000 N.am      2 ALA2        0.0000 
      8 N         127.9500   88.0900  136.9800 N.am      2 ALA2        0.0000 
      9 N         127.7200   88.8400  135.7000 N.am      2 ALA2        0.0000 
     10 N         128.9700   89.1100  137.3900 N.am      2 ALA2        0.0000 
     11 N         128.2600   91.3600  133.5600 N.am      2 ALA2        0.0000 
     12 CA        129.2100   87.6600  129.4500 C.3       3 GLY6        0.0000 
     13 CA        128.9700   88.4100  128.1700 C.3       3 GLY6        0.0000 
     14 CA        128.7400   89.1700  126.8900 C.3       3 GLY6        0.0000 
     15 CA        130.2300   88.6800  129.8600 C.3       3 GLY6        0.0000 
     16 CA        129.9900   89.4300  128.5800 C.3       3 GLY6        0.0000 
     17 CA        129.1600   89.4900  130.5300 C.3       3 GLY6        0.0000 
     18 CA        128.9200   90.2400  129.2500 C.3       3 GLY6        0.0000 
     19 CA        128.3200   89.5400  132.4800 C.3       3 GLY6        0.0000 
     20 CA        127.4800   89.5900  134.4300 C.3       3 GLY6        0.0000 
     21 CA        130.1800   90.5100  130.9400 C.3       3 GLY6        0.0000 
     22 CA        129.3400   90.5600  132.8900 C.3       3 GLY6        0.0000 
     23 CA        129.1000   91.3100  131.6100 C.3       3 GLY6        0.0000 
     24 CA        128.7400   89.8600  136.1100 C.3       3 GLY6        0.0000 
     25 CA        128.5000   90.6100  134.8400 C.3       3 GLY6        0.0000 
     26 CA        131.0700   89.3300  137.1300 C.3       3 GLY6        0.0000 
     27 CA        130.8300   90.0800  135.8500 C.3       3 GLY6        0.0000 
     28 CA        130.5900   90.8300  134.5800 C.3       3 GLY6        0.0000 
     29 DU        128.1400   88.4700  130.1200 H         4 CUB7        0.0000 
     30 DU        127.9000   89.2200  128.8400 H         4 CUB7        0.0000 
     31 DU        127.0600   89.2700  130.7900 H         4 CUB7        0.0000 
     32 DU        126.8300   90.0200  129.5100 H         4 CUB7        0.0000 
     33 DU        125.9900   90.0800  131.4600 H         4 CUB7        0.0000 
     34 DU        128.0800   90.2900  131.2000 H         4 CUB7        0.0000 
     35 DU        127.2400   90.3400  133.1500 H         4 CUB7        0.0000 
     36 DU        127.0100   91.1000  131.8700 H         4 CUB7        0.0000 
     37 DU        126.6400   89.6500  136.3700 H         4 CUB7        0.0000 
     38 DU        126.4100   90.4000  135.1000 H         4 CUB7        0.0000 
     39 DU        126.1700   91.1500  133.8200 H         4 CUB7        0.0000 
@<TRIPOS>BOND
@<TRIPOS>SUBSTRUCTURE
     1 SER1        1 GROUP   
     2 ALA2        6 GROUP   
     3 GLY6       12 GROUP   
     4 CUB7       29 GROUP   
@<TRIPOS>SET

