#    Name: 5yw8_4_AGS_CAVITY_N1_6
#    Modification time : Fri May 22 19:29:56 2020

@<TRIPOS>MOLECULE
5yw8_4_AGS_CAVITY_N1_6
   59     0     6     0     0
SMALL
NO_CHARGES


@<TRIPOS>ATOM
      1 OG         90.2700  191.4800  127.1900 O.3       1 SER1        0.0000 
      2 OG         90.4500  192.5500  129.5500 O.3       1 SER1        0.0000 
      3 OG         90.2200  193.3000  128.2800 O.3       1 SER1        0.0000 
      4 OG         91.7100  192.8200  131.2400 O.3       1 SER1        0.0000 
      5 OG         90.1600  195.1200  129.3600 O.3       1 SER1        0.0000 
      6 O          85.8400  191.7900  126.4400 O.2       2 ALA2        0.0000 
      7 N          88.9000  194.8500  127.6700 N.am      2 ALA2        0.0000 
      8 N          89.9200  195.8700  128.0800 N.am      2 ALA2        0.0000 
      9 N          89.1900  192.9800  137.0900 N.am      2 ALA2        0.0000 
     10 N          88.9600  193.7300  135.8100 N.am      2 ALA2        0.0000 
     11 N          88.1200  193.7800  137.7600 N.am      2 ALA2        0.0000 
     12 N          87.8800  194.5300  136.4800 N.am      2 ALA2        0.0000 
     13 O          90.9400  196.8900  128.4900 O.2       2 ALA2        0.0000 
     14 N          91.0500  193.9500  135.5500 N.am      2 ALA2        0.0000 
     15 O          88.9000  195.5500  136.8900 O.2       2 ALA2        0.0000 
     16 NZ         91.0500  193.2500  126.3300 N.4       3 LYS4        0.0000 
     17 CZ         86.0800  191.0400  127.7100 C.ar      4 PHE5        0.0000 
     18 CZ         85.0100  191.8500  128.3900 C.ar      4 PHE5        0.0000 
     19 CZ         86.5000  191.3700  131.3500 C.ar      4 PHE5        0.0000 
     20 CZ         86.0300  192.8700  128.8000 C.ar      4 PHE5        0.0000 
     21 CA         88.1700  191.2600  127.4500 C.3       5 GLY6        0.0000 
     22 CA         87.3400  191.3100  129.4000 C.3       5 GLY6        0.0000 
     23 CA         87.1000  192.0600  128.1300 C.3       5 GLY6        0.0000 
     24 CA         86.8600  192.8100  126.8500 C.3       5 GLY6        0.0000 
     25 CA         89.1900  192.2800  127.8700 C.3       5 GLY6        0.0000 
     26 CA         88.9600  193.0300  126.5900 C.3       5 GLY6        0.0000 
     27 CA         88.5900  191.5800  131.0900 C.3       5 GLY6        0.0000 
     28 CA         88.3600  192.3300  129.8100 C.3       5 GLY6        0.0000 
     29 CA         87.8800  193.8300  127.2600 C.3       5 GLY6        0.0000 
     30 CA         87.6500  194.5900  125.9800 C.3       5 GLY6        0.0000 
     31 CA         87.5200  192.3900  131.7600 C.3       5 GLY6        0.0000 
     32 CA         90.6900  191.8000  130.8300 C.3       5 GLY6        0.0000 
     33 CA         89.9800  194.0500  127.0000 C.3       5 GLY6        0.0000 
     34 CA         89.6100  192.6000  131.5000 C.3       5 GLY6        0.0000 
     35 CA         88.5400  193.4100  132.1700 C.3       5 GLY6        0.0000 
     36 CA         87.7000  193.4600  134.1200 C.3       5 GLY6        0.0000 
     37 CA         91.9400  192.0700  132.5200 C.3       5 GLY6        0.0000 
     38 CA         91.0000  195.0700  127.4100 C.3       5 GLY6        0.0000 
     39 CA         91.1100  192.1200  134.4700 C.3       5 GLY6        0.0000 
     40 CA         90.8700  192.8700  133.1900 C.3       5 GLY6        0.0000 
     41 CA         90.2700  192.1700  136.4100 C.3       5 GLY6        0.0000 
     42 CA         90.0300  192.9300  135.1400 C.3       5 GLY6        0.0000 
     43 CA         89.8000  193.6800  133.8600 C.3       5 GLY6        0.0000 
     44 CA         89.5600  194.4300  132.5800 C.3       5 GLY6        0.0000 
     45 CA         88.7200  194.4800  134.5300 C.3       5 GLY6        0.0000 
     46 DU         85.7900  193.6200  127.5200 H         6 CUB7        0.0000 
     47 DU         88.1200  193.0800  128.5400 H         6 CUB7        0.0000 
     48 DU         87.2800  193.1400  130.4800 H         6 CUB7        0.0000 
     49 DU         87.0500  193.8900  129.2100 H         6 CUB7        0.0000 
     50 DU         89.3800  193.3500  130.2200 H         6 CUB7        0.0000 
     51 DU         89.1400  194.1000  128.9500 H         6 CUB7        0.0000 
     52 DU         88.3000  194.1600  130.9000 H         6 CUB7        0.0000 
     53 DU         90.6300  193.6200  131.9100 H         6 CUB7        0.0000 
     54 DU         90.4000  194.3700  130.6400 H         6 CUB7        0.0000 
     55 DU         88.4900  195.2300  133.2500 H         6 CUB7        0.0000 
     56 DU         90.8200  194.7000  134.2700 H         6 CUB7        0.0000 
     57 DU         90.5800  195.4500  132.9900 H         6 CUB7        0.0000 
     58 DU         89.9800  194.7500  136.2200 H         6 CUB7        0.0000 
     59 DU         89.7400  195.5000  134.9400 H         6 CUB7        0.0000 
@<TRIPOS>BOND
@<TRIPOS>SUBSTRUCTURE
     1 SER1        1 GROUP   
     2 ALA2        6 GROUP   
     3 LYS4       16 GROUP   
     4 PHE5       17 GROUP   
     5 GLY6       21 GROUP   
     6 CUB7       46 GROUP   
@<TRIPOS>SET

