#    Name: 5yw8_4_AGS
#    Modification time : Fri May 22 19:29:55 2020

@<TRIPOS>MOLECULE
5yw8_4_AGS
   31    33     1     0     0
SMALL
NO_CHARGES


@<TRIPOS>ATOM
      1 PG         86.3860  196.0940  122.5520 P.3       1 AGS2501     0.0000 
      2 S1G        87.2830  195.7370  124.3890 S.2       1 AGS2501     0.0000 
      3 O2G        87.5130  196.4740  121.4650 O.3       1 AGS2501     0.0000 
      4 O3G        85.4300  197.2170  122.6710 O.3       1 AGS2501     0.0000 
      5 PB         84.0150  194.7040  121.9940 P.3       1 AGS2501     0.0000 
      6 O1B        83.5410  195.8360  121.1120 O.co2     1 AGS2501     0.0000 
      7 O2B        83.6020  193.3790  121.4010 O.co2     1 AGS2501     0.0000 
      8 O3B        85.6220  194.7580  122.0800 O.3       1 AGS2501     0.0000 
      9 PA         83.7750  193.9030  124.6860 P.3       1 AGS2501     0.0000 
     10 O1A        83.8270  192.4730  124.2040 O.co2     1 AGS2501     0.0000 
     11 O2A        85.1300  194.3220  125.2040 O.co2     1 AGS2501     0.0000 
     12 O3A        83.3610  194.8670  123.4610 O.3       1 AGS2501     0.0000 
     13 O5'        82.6950  194.0330  125.8790 O.3       1 AGS2501     0.0000 
     14 C5'        81.3330  193.6470  125.6910 C.3       1 AGS2501     0.0000 
     15 C4'        80.5490  193.8490  126.9850 C.3       1 AGS2501     0.0000 
     16 O4'        81.0950  193.0350  128.0250 O.3       1 AGS2501     0.0000 
     17 C3'        80.6110  195.2900  127.4600 C.3       1 AGS2501     0.0000 
     18 O3'        79.3150  195.8910  127.3780 O.3       1 AGS2501     0.0000 
     19 C2'        81.0650  195.2340  128.9040 C.3       1 AGS2501     0.0000 
     20 O2'        80.0950  195.8610  129.7460 O.3       1 AGS2501     0.0000 
     21 C1'        81.1870  193.7600  129.2520 C.3       1 AGS2501     0.0000 
     22 N9         82.5120  193.5050  129.8640 N.pl3     1 AGS2501     0.0000 
     23 C8         83.6910  193.6070  129.2250 C.2       1 AGS2501     0.0000 
     24 N7         84.7240  193.3070  130.0510 N.2       1 AGS2501     0.0000 
     25 C5         84.2030  193.0030  131.2520 C.ar      1 AGS2501     0.0000 
     26 C6         84.7390  192.5970  132.5740 C.ar      1 AGS2501     0.0000 
     27 N6         86.0700  192.4540  132.7740 N.pl3     1 AGS2501     0.0000 
     28 N1         83.8530  192.3740  133.5700 N.ar      1 AGS2501     0.0000 
     29 C2         82.5270  192.5110  133.3810 C.ar      1 AGS2501     0.0000 
     30 N3         81.9740  192.8770  132.2090 N.ar      1 AGS2501     0.0000 
     31 C4         82.7440  193.1320  131.1250 C.ar      1 AGS2501     0.0000 
@<TRIPOS>BOND
     1    1    2 2    
     2    1    3 1    
     3    1    4 1    
     4    1    8 1    
     5    5    6 ar   
     6    5    7 ar   
     7    5    8 1    
     8    5   12 1    
     9    9   10 ar   
    10    9   11 ar   
    11    9   12 1    
    12    9   13 1    
    13   13   14 1    
    14   14   15 1    
    15   15   16 1    
    16   15   17 1    
    17   16   21 1    
    18   17   18 1    
    19   17   19 1    
    20   19   20 1    
    21   19   21 1    
    22   21   22 1    
    23   22   23 1    
    24   22   31 1    
    25   23   24 2    
    26   24   25 1    
    27   25   26 ar   
    28   25   31 ar   
    29   26   27 1    
    30   26   28 ar   
    31   28   29 ar   
    32   29   30 ar   
    33   30   31 ar   
@<TRIPOS>SUBSTRUCTURE
     1 AGS2501     1 GROUP   
@<TRIPOS>SET

