#    Name: 5yw8_1_AGS
#    Modification time : Fri May 22 19:29:11 2020

@<TRIPOS>MOLECULE
5yw8_1_AGS
   31    32     1     0     0
SMALL
NO_CHARGES


@<TRIPOS>ATOM
      1 PG        160.2930  194.2960  155.7470 P.3       1 AGS401      0.0000 
      2 S1G       159.1340  196.0730  155.7950 Du        1 AGS401      0.0000 
      3 O2G       161.8870  194.6770  155.9250 O.3       1 AGS401      0.0000 
      4 O3G       159.8650  193.4180  156.9310 O.3       1 AGS401      0.0000 
      5 PB        160.7350  194.2020  153.0610 P.3       1 AGS401      0.0000 
      6 O1B       159.5620  194.6400  152.2300 O.co2     1 AGS401      0.0000 
      7 O2B       161.4320  195.5170  153.2980 O.co2     1 AGS401      0.0000 
      8 O3B       160.1420  193.6060  154.3840 O.3       1 AGS401      0.0000 
      9 PA        162.5580  192.2350  152.9980 P.3       1 AGS401      0.0000 
     10 O1A       163.9240  192.1200  152.2380 O.co2     1 AGS401      0.0000 
     11 O2A       162.7680  192.8890  154.4000 O.co2     1 AGS401      0.0000 
     12 O3A       161.5720  193.1750  152.3060 O.3       1 AGS401      0.0000 
     13 O5'       161.8630  190.7490  153.1970 O.3       1 AGS401      0.0000 
     14 C5'       162.6790  189.7110  153.7250 C.3       1 AGS401      0.0000 
     15 C4'       161.9020  189.1340  154.8800 C.3       1 AGS401      0.0000 
     16 O4'       162.7970  188.5320  155.8120 O.3       1 AGS401      0.0000 
     17 C3'       161.1510  190.2210  155.6080 C.3       1 AGS401      0.0000 
     18 O3'       159.7690  189.8570  155.6520 O.3       1 AGS401      0.0000 
     19 C2'       161.7860  190.2990  156.9860 C.3       1 AGS401      0.0000 
     20 O2'       160.8940  189.8560  158.0040 O.3       1 AGS401      0.0000 
     21 C1'       162.9590  189.3460  156.9710 C.3       1 AGS401      0.0000 
     22 N9        164.2090  190.1260  156.8420 N.pl3     1 AGS401      0.0000 
     23 C8        164.3480  191.2790  156.1660 C.2       1 AGS401      0.0000 
     24 N7        165.6170  191.7420  156.2260 N.2       1 AGS401      0.0000 
     25 C5        166.3130  190.8670  156.9620 C.ar      1 AGS401      0.0000 
     26 C6        167.7090  190.7670  157.4040 C.ar      1 AGS401      0.0000 
     27 N6        168.6090  191.7220  157.0670 N.pl3     1 AGS401      0.0000 
     28 N1        168.0300  189.7020  158.1590 N.ar      1 AGS401      0.0000 
     29 C2        167.1300  188.7610  158.4910 C.ar      1 AGS401      0.0000 
     30 N3        165.8430  188.7890  158.1190 N.ar      1 AGS401      0.0000 
     31 C4        165.3870  189.8040  157.3650 C.ar      1 AGS401      0.0000 
@<TRIPOS>BOND
     1    1    3 1    
     2    1    4 1    
     3    1    8 1    
     4    5    6 ar   
     5    5    7 ar   
     6    5    8 1    
     7    5   12 1    
     8    9   10 ar   
     9    9   11 ar   
    10    9   12 1    
    11    9   13 1    
    12   13   14 1    
    13   14   15 1    
    14   15   16 1    
    15   15   17 1    
    16   16   21 1    
    17   17   18 1    
    18   17   19 1    
    19   19   20 1    
    20   19   21 1    
    21   21   22 1    
    22   22   23 1    
    23   22   31 1    
    24   23   24 2    
    25   24   25 1    
    26   25   26 ar   
    27   25   31 ar   
    28   26   27 1    
    29   26   28 ar   
    30   28   29 ar   
    31   29   30 ar   
    32   30   31 ar   
@<TRIPOS>SUBSTRUCTURE
     1 AGS401      1 GROUP   
@<TRIPOS>SET

