#    Name: 5yw8_3_AGS
#    Modification time : Fri May 22 19:29:38 2020

@<TRIPOS>MOLECULE
5yw8_3_AGS
   31    32     1     0     0
SMALL
NO_CHARGES


@<TRIPOS>ATOM
      1 PG        127.3170  160.2960  155.7440 P.3       1 AGS401      0.0000 
      2 S1G       125.5400  159.1370  155.7920 Du        1 AGS401      0.0000 
      3 O2G       126.9370  161.8900  155.9220 O.3       1 AGS401      0.0000 
      4 O3G       128.1960  159.8680  156.9290 O.3       1 AGS401      0.0000 
      5 PB        127.4120  160.7380  153.0580 P.3       1 AGS401      0.0000 
      6 O1B       126.9740  159.5650  152.2270 O.co2     1 AGS401      0.0000 
      7 O2B       126.0960  161.4350  153.2950 O.co2     1 AGS401      0.0000 
      8 O3B       128.0080  160.1450  154.3810 O.3       1 AGS401      0.0000 
      9 PA        129.3780  162.5610  152.9950 P.3       1 AGS401      0.0000 
     10 O1A       129.4940  163.9270  152.2350 O.co2     1 AGS401      0.0000 
     11 O2A       128.7250  162.7710  154.3970 O.co2     1 AGS401      0.0000 
     12 O3A       128.4390  161.5750  152.3030 O.3       1 AGS401      0.0000 
     13 O5'       130.8650  161.8660  153.1940 O.3       1 AGS401      0.0000 
     14 C5'       131.9030  162.6820  153.7220 C.3       1 AGS401      0.0000 
     15 C4'       132.4800  161.9050  154.8780 C.3       1 AGS401      0.0000 
     16 O4'       133.0820  162.8000  155.8100 O.3       1 AGS401      0.0000 
     17 C3'       131.3920  161.1540  155.6060 C.3       1 AGS401      0.0000 
     18 O3'       131.7560  159.7720  155.6500 O.3       1 AGS401      0.0000 
     19 C2'       131.3140  161.7890  156.9840 C.3       1 AGS401      0.0000 
     20 O2'       131.7570  160.8970  158.0020 O.3       1 AGS401      0.0000 
     21 C1'       132.2670  162.9620  156.9680 C.3       1 AGS401      0.0000 
     22 N9        131.4880  164.2120  156.8390 N.pl3     1 AGS401      0.0000 
     23 C8        130.3340  164.3510  156.1630 C.2       1 AGS401      0.0000 
     24 N7        129.8720  165.6200  156.2230 N.2       1 AGS401      0.0000 
     25 C5        130.7460  166.3160  156.9590 C.ar      1 AGS401      0.0000 
     26 C6        130.8470  167.7120  157.4020 C.ar      1 AGS401      0.0000 
     27 N6        129.8920  168.6120  157.0650 N.pl3     1 AGS401      0.0000 
     28 N1        131.9120  168.0330  158.1570 N.ar      1 AGS401      0.0000 
     29 C2        132.8530  167.1330  158.4890 C.ar      1 AGS401      0.0000 
     30 N3        132.8240  165.8460  158.1170 N.ar      1 AGS401      0.0000 
     31 C4        131.8100  165.3900  157.3620 C.ar      1 AGS401      0.0000 
@<TRIPOS>BOND
     1    1    3 1    
     2    1    4 1    
     3    1    8 1    
     4    5    6 ar   
     5    5    7 ar   
     6    5    8 1    
     7    5   12 1    
     8    9   10 ar   
     9    9   11 ar   
    10    9   12 1    
    11    9   13 1    
    12   13   14 1    
    13   14   15 1    
    14   15   16 1    
    15   15   17 1    
    16   16   21 1    
    17   17   18 1    
    18   17   19 1    
    19   19   20 1    
    20   19   21 1    
    21   21   22 1    
    22   22   23 1    
    23   22   31 1    
    24   23   24 2    
    25   24   25 1    
    26   25   26 ar   
    27   25   31 ar   
    28   26   27 1    
    29   26   28 ar   
    30   28   29 ar   
    31   29   30 ar   
    32   30   31 ar   
@<TRIPOS>SUBSTRUCTURE
     1 AGS401      1 GROUP   
@<TRIPOS>SET

