#    Name: 5yw8_6_AGS_CAVITY_N1_8
#    Modification time : Fri May 22 19:30:39 2020

@<TRIPOS>MOLECULE
5yw8_6_AGS_CAVITY_N1_8
   75     0     5     0     0
SMALL
NO_CHARGES


@<TRIPOS>ATOM
      1 OG        127.6600   89.9700  127.5600 O.3       1 SER1        0.0000 
      2 OG        126.5900   90.7700  128.2300 O.3       1 SER1        0.0000 
      3 OG        129.7600   90.1900  127.3000 O.3       1 SER1        0.0000 
      4 OG        128.6800   90.9900  127.9700 O.3       1 SER1        0.0000 
      5 OG        127.8500   91.0400  129.9200 O.3       1 SER1        0.0000 
      6 OG        126.7700   91.8500  130.5900 O.3       1 SER1        0.0000 
      7 OG        128.8700   92.0600  130.3300 O.3       1 SER1        0.0000 
      8 OG        127.7900   92.8700  131.0000 O.3       1 SER1        0.0000 
      9 OG        129.0500   93.1400  132.6900 O.3       1 SER1        0.0000 
     10 N         125.5700   89.7500  127.8200 N.am      2 ALA2        0.0000 
     11 N         124.4900   90.5600  128.5000 N.am      2 ALA2        0.0000 
     12 N         126.0900   87.1300  138.5200 N.am      2 ALA2        0.0000 
     13 N         127.9500   88.0900  136.9800 N.am      2 ALA2        0.0000 
     14 N         127.7200   88.8400  135.7000 N.am      2 ALA2        0.0000 
     15 N         126.8800   88.9000  137.6500 N.am      2 ALA2        0.0000 
     16 O         125.8000   89.7000  138.3200 O.2       2 ALA2        0.0000 
     17 O         125.5700   90.4500  137.0400 O.2       2 ALA2        0.0000 
     18 N         128.9700   89.1100  137.3900 N.am      2 ALA2        0.0000 
     19 N         128.2600   91.3600  133.5600 N.am      2 ALA2        0.0000 
     20 N         128.0300   92.1200  132.2800 N.am      2 ALA2        0.0000 
     21 N         128.1400   89.1700  139.3400 N.am      2 ALA2        0.0000 
     22 N         127.9000   89.9200  138.0600 N.am      2 ALA2        0.0000 
     23 N         127.6600   90.6700  136.7800 N.am      2 ALA2        0.0000 
     24 N         127.4300   91.4200  135.5100 N.am      2 ALA2        0.0000 
     25 N         127.1900   92.1700  134.2300 N.am      2 ALA2        0.0000 
     26 N         126.9500   92.9200  132.9500 N.am      2 ALA2        0.0000 
     27 N         126.5900   91.4700  137.4600 N.am      2 ALA2        0.0000 
     28 N         129.7600   90.8800  136.5200 N.am      2 ALA2        0.0000 
     29 N         129.5200   91.6300  135.2500 N.am      2 ALA2        0.0000 
     30 N         129.2800   92.3800  133.9700 N.am      2 ALA2        0.0000 
     31 N         128.9200   90.9400  138.4700 N.am      2 ALA2        0.0000 
     32 N         128.6800   91.6900  137.1900 N.am      2 ALA2        0.0000 
     33 N         128.4500   92.4400  135.9200 N.am      2 ALA2        0.0000 
     34 NZ        125.3300   91.2000  135.7700 N.4       3 LYS4        0.0000 
     35 NZ        125.1000   91.9500  134.4900 N.4       3 LYS4        0.0000 
     36 NZ        126.3500   92.2200  136.1800 N.4       3 LYS4        0.0000 
     37 CA        129.2100   87.6600  129.4500 C.3       4 GLY6        0.0000 
     38 CA        128.9700   88.4100  128.1700 C.3       4 GLY6        0.0000 
     39 CA        128.7400   89.1700  126.8900 C.3       4 GLY6        0.0000 
     40 CA        125.7500   90.8300  130.1800 C.3       4 GLY6        0.0000 
     41 CA        124.6800   91.6300  130.8500 C.3       4 GLY6        0.0000 
     42 CA        130.2300   88.6800  129.8600 C.3       4 GLY6        0.0000 
     43 CA        129.9900   89.4300  128.5800 C.3       4 GLY6        0.0000 
     44 CA        129.1600   89.4900  130.5300 C.3       4 GLY6        0.0000 
     45 CA        128.9200   90.2400  129.2500 C.3       4 GLY6        0.0000 
     46 CA        128.3200   89.5400  132.4800 C.3       4 GLY6        0.0000 
     47 CA        127.4800   89.5900  134.4300 C.3       4 GLY6        0.0000 
     48 CA        125.9300   91.9000  132.5400 C.3       4 GLY6        0.0000 
     49 CA        125.7000   92.6500  131.2700 C.3       4 GLY6        0.0000 
     50 CA        130.1800   90.5100  130.9400 C.3       4 GLY6        0.0000 
     51 CA        129.9400   91.2600  129.6600 C.3       4 GLY6        0.0000 
     52 CA        129.3400   90.5600  132.8900 C.3       4 GLY6        0.0000 
     53 CA        129.1000   91.3100  131.6100 C.3       4 GLY6        0.0000 
     54 CA        128.7400   89.8600  136.1100 C.3       4 GLY6        0.0000 
     55 CA        128.5000   90.6100  134.8400 C.3       4 GLY6        0.0000 
     56 CA        126.8200   90.7200  138.7300 C.3       4 GLY6        0.0000 
     57 CA        131.0700   89.3300  137.1300 C.3       4 GLY6        0.0000 
     58 CA        130.8300   90.0800  135.8500 C.3       4 GLY6        0.0000 
     59 CA        130.5900   90.8300  134.5800 C.3       4 GLY6        0.0000 
     60 CA        130.2300   89.3800  139.0800 C.3       4 GLY6        0.0000 
     61 CA        129.9900   90.1300  137.8000 C.3       4 GLY6        0.0000 
     62 CA        131.8500   91.1000  136.2600 C.3       4 GLY6        0.0000 
     63 CA        131.0100   91.1500  138.2100 C.3       4 GLY6        0.0000 
     64 CA        130.7800   91.9000  136.9300 C.3       4 GLY6        0.0000 
     65 DU        128.1400   88.4700  130.1200 H         5 CUB7        0.0000 
     66 DU        127.9000   89.2200  128.8400 H         5 CUB7        0.0000 
     67 DU        127.0600   89.2700  130.7900 H         5 CUB7        0.0000 
     68 DU        126.8300   90.0200  129.5100 H         5 CUB7        0.0000 
     69 DU        125.9900   90.0800  131.4600 H         5 CUB7        0.0000 
     70 DU        128.0800   90.2900  131.2000 H         5 CUB7        0.0000 
     71 DU        127.2400   90.3400  133.1500 H         5 CUB7        0.0000 
     72 DU        127.0100   91.1000  131.8700 H         5 CUB7        0.0000 
     73 DU        126.6400   89.6500  136.3700 H         5 CUB7        0.0000 
     74 DU        126.4100   90.4000  135.1000 H         5 CUB7        0.0000 
     75 DU        126.1700   91.1500  133.8200 H         5 CUB7        0.0000 
@<TRIPOS>BOND
@<TRIPOS>SUBSTRUCTURE
     1 SER1        1 GROUP   
     2 ALA2       10 GROUP   
     3 LYS4       34 GROUP   
     4 GLY6       37 GROUP   
     5 CUB7       65 GROUP   
@<TRIPOS>SET

