#    Name: 5yw8_3_AGS_CAVITY_N1_8
#    Modification time : Fri May 22 19:29:39 2020

@<TRIPOS>MOLECULE
5yw8_3_AGS_CAVITY_N1_8
   56     0     6     0     0
SMALL
NO_CHARGES


@<TRIPOS>ATOM
      1 OG        135.7200  157.5100  153.4400 O.3       1 SER1        0.0000 
      2 N         135.9600  156.7600  154.7200 N.am      2 ALA2        0.0000 
      3 N         135.1200  156.8100  156.6700 N.am      2 ALA2        0.0000 
      4 N         134.6500  158.3200  154.1100 N.am      2 ALA2        0.0000 
      5 N         133.5700  159.1200  154.7800 N.am      2 ALA2        0.0000 
      6 N         138.0500  156.9800  154.4600 N.am      2 ALA2        0.0000 
      7 N         137.4500  156.2800  157.6800 N.am      2 ALA2        0.0000 
      8 N         137.2100  157.0300  156.4100 N.am      2 ALA2        0.0000 
      9 N         136.9800  157.7800  155.1300 N.am      2 ALA2        0.0000 
     10 N         136.1400  157.8300  157.0800 N.am      2 ALA2        0.0000 
     11 O         135.6700  159.3400  154.5200 O.2       2 ALA2        0.0000 
     12 N         134.5900  160.1400  155.1900 N.am      2 ALA2        0.0000 
     13 N         139.3100  157.2500  156.1500 N.am      2 ALA2        0.0000 
     14 N         138.4700  157.3000  158.0900 N.am      2 ALA2        0.0000 
     15 N         138.2300  158.0500  156.8200 N.am      2 ALA2        0.0000 
     16 N         137.6300  157.3500  160.0400 N.am      2 ALA2        0.0000 
     17 N         137.3900  158.1000  158.7600 N.am      2 ALA2        0.0000 
     18 N         137.1600  158.8500  157.4900 N.am      2 ALA2        0.0000 
     19 N         136.9200  159.6000  156.2100 N.am      2 ALA2        0.0000 
     20 N         136.5600  158.1600  160.7100 N.am      2 ALA2        0.0000 
     21 N         136.3200  158.9100  159.4400 N.am      2 ALA2        0.0000 
     22 N         136.0800  159.6600  158.1600 N.am      2 ALA2        0.0000 
     23 N         139.2500  159.0700  157.2300 N.am      2 ALA2        0.0000 
     24 N         139.0200  159.8200  155.9500 N.am      2 ALA2        0.0000 
     25 N         138.6500  158.3700  160.4500 N.am      2 ALA2        0.0000 
     26 OD1       134.4600  157.2400  151.7500 O.co2     3 ASP3        0.0000 
     27 CZ        136.7400  158.5300  153.8500 C.ar      4 PHE5        0.0000 
     28 CZ        139.0700  158.0000  154.8700 C.ar      4 PHE5        0.0000 
     29 CZ        138.0000  158.8000  155.5400 C.ar      4 PHE5        0.0000 
     30 CA        132.8400  155.5200  154.5700 C.3       5 GLY6        0.0000 
     31 CA        132.6100  156.2700  153.2900 C.3       5 GLY6        0.0000 
     32 CA        132.3700  157.0300  152.0100 C.3       5 GLY6        0.0000 
     33 CA        131.2900  157.8300  152.6800 C.3       5 GLY6        0.0000 
     34 CA        130.2200  158.6300  153.3600 C.3       5 GLY6        0.0000 
     35 CA        134.9400  155.7400  154.3100 C.3       5 GLY6        0.0000 
     36 CA        134.7000  156.4900  153.0300 C.3       5 GLY6        0.0000 
     37 CA        134.1000  155.7900  156.2500 C.3       5 GLY6        0.0000 
     38 CA        133.8600  156.5400  154.9800 C.3       5 GLY6        0.0000 
     39 CA        133.6300  157.3000  153.7000 C.3       5 GLY6        0.0000 
     40 CA        133.3900  158.0500  152.4200 C.3       5 GLY6        0.0000 
     41 CA        132.3200  158.8500  153.1000 C.3       5 GLY6        0.0000 
     42 CA        135.3500  156.0600  157.9400 C.3       5 GLY6        0.0000 
     43 CA        136.6100  156.3300  159.6300 C.3       5 GLY6        0.0000 
     44 CA        136.3700  157.0800  158.3500 C.3       5 GLY6        0.0000 
     45 CA        134.8300  159.3900  156.4700 C.3       5 GLY6        0.0000 
     46 CA        133.7500  160.1900  157.1400 C.3       5 GLY6        0.0000 
     47 CA        133.5200  160.9400  155.8600 C.3       5 GLY6        0.0000 
     48 CA        135.8500  160.4100  156.8800 C.3       5 GLY6        0.0000 
     49 CA        135.0100  160.4600  158.8300 C.3       5 GLY6        0.0000 
     50 DU        132.5500  158.1000  154.3700 H         6 CUB7        0.0000 
     51 DU        134.8800  157.5600  155.3900 H         6 CUB7        0.0000 
     52 DU        134.0400  157.6200  157.3400 H         6 CUB7        0.0000 
     53 DU        133.8100  158.3700  156.0600 H         6 CUB7        0.0000 
     54 DU        135.9000  158.5800  155.8000 H         6 CUB7        0.0000 
     55 DU        135.3000  157.8900  159.0200 H         6 CUB7        0.0000 
     56 DU        135.0600  158.6400  157.7500 H         6 CUB7        0.0000 
@<TRIPOS>BOND
@<TRIPOS>SUBSTRUCTURE
     1 SER1        1 GROUP   
     2 ALA2        2 GROUP   
     3 ASP3       26 GROUP   
     4 PHE5       27 GROUP   
     5 GLY6       30 GROUP   
     6 CUB7       50 GROUP   
@<TRIPOS>SET

