#    Name: 6ep0_2_AMP_CAVITY_N1_6
#    Modification time : Fri May 22 19:30:17 2020

@<TRIPOS>MOLECULE
6ep0_2_AMP_CAVITY_N1_6
   24     0     4     0     0
SMALL
NO_CHARGES


@<TRIPOS>ATOM
      1 N         -28.7800   29.2900   11.0600 N.am      1 ALA2        0.0000 
      2 NZ        -25.9500   32.6400   10.0600 N.4       2 LYS4        0.0000 
      3 NZ        -25.7500   34.8700   11.3700 N.4       2 LYS4        0.0000 
      4 NZ        -25.8700   34.7400   15.0400 N.4       2 LYS4        0.0000 
      5 NZ        -25.0700   34.3700   13.8300 N.4       2 LYS4        0.0000 
      6 CA        -30.0200   28.7900   10.3900 C.3       3 GLY6        0.0000 
      7 CA        -29.0100   30.6500   10.4900 C.3       3 GLY6        0.0000 
      8 CA        -28.3400   30.1500   12.9500 C.3       3 GLY6        0.0000 
      9 CA        -27.5300   29.7800   11.7400 C.3       3 GLY6        0.0000 
     10 CA        -28.5700   31.5200   12.3800 C.3       3 GLY6        0.0000 
     11 CA        -27.0900   30.6500   13.6200 C.3       3 GLY6        0.0000 
     12 CA        -28.1300   32.3800   14.2600 C.3       3 GLY6        0.0000 
     13 CA        -28.3600   33.7500   13.6900 C.3       3 GLY6        0.0000 
     14 CA        -26.8800   32.8800   14.9400 C.3       3 GLY6        0.0000 
     15 CA        -27.1200   34.2500   14.3600 C.3       3 GLY6        0.0000 
     16 CA        -26.3200   33.8800   13.1500 C.3       3 GLY6        0.0000 
     17 CA        -26.5500   35.2400   12.5800 C.3       3 GLY6        0.0000 
     18 DU        -27.7700   31.1500   11.1700 H         4 CUB7        0.0000 
     19 DU        -26.9600   30.7800    9.9500 H         4 CUB7        0.0000 
     20 DU        -27.3300   32.0100   13.0500 H         4 CUB7        0.0000 
     21 DU        -26.0800   32.5100   13.7300 H         4 CUB7        0.0000 
     22 DU        -25.2800   32.1400   12.5100 H         4 CUB7        0.0000 
     23 DU        -25.5100   33.5100   11.9400 H         4 CUB7        0.0000 
     24 DU        -25.6400   33.3800   15.6100 H         4 CUB7        0.0000 
@<TRIPOS>BOND
@<TRIPOS>SUBSTRUCTURE
     1 ALA2        1 GROUP   
     2 LYS4        2 GROUP   
     3 GLY6        6 GROUP   
     4 CUB7       18 GROUP   
@<TRIPOS>SET

