#    Name: 6ep0_2_AMP
#    Modification time : Fri May 22 19:30:15 2020

@<TRIPOS>MOLECULE
6ep0_2_AMP
   23    25     1     0     1
SMALL
NO_CHARGES


@<TRIPOS>ATOM
      1 P         -30.7150   39.2660   17.8550 P.3       1 AMP301      0.0000 
      2 O1P       -30.7270   39.4490   16.3390 O.co2     1 AMP301      0.0000 
      3 O2P       -29.3680   38.9900   18.3150 O.co2     1 AMP301      0.0000 
      4 O3P       -31.2990   40.5190   18.4390 O.co2     1 AMP301      0.0000 
      5 O5'       -31.6460   38.0050   18.2020 O.3       1 AMP301      0.0000 
      6 C5'       -31.1980   36.6960   17.7750 C.3       1 AMP301      0.0000 
      7 C4'       -32.3680   35.8440   17.3550 C.3       1 AMP301      0.0000 
      8 O4'       -32.7330   36.1250   15.9860 O.3       1 AMP301      0.0000 
      9 C3'       -32.1340   34.3420   17.3840 C.3       1 AMP301      0.0000 
     10 O3'       -32.2720   33.8160   18.7000 O.3       1 AMP301      0.0000 
     11 C2'       -33.2130   33.8290   16.4240 C.3       1 AMP301      0.0000 
     12 O2'       -34.4860   33.6920   17.0510 O.3       1 AMP301      0.0000 
     13 C1'       -33.2780   34.9570   15.3880 C.3       1 AMP301      0.0000 
     14 N9        -32.5730   34.6840   14.1360 N.pl3     1 AMP301      0.0000 
     15 C8        -31.2360   34.4220   13.9860 C.2       1 AMP301      0.0000 
     16 N7        -30.8380   34.3640   12.7390 N.2       1 AMP301      0.0000 
     17 C5        -31.9960   34.5950   12.0120 C.ar      1 AMP301      0.0000 
     18 C6        -32.2490   34.6730   10.6240 C.ar      1 AMP301      0.0000 
     19 N6        -31.2980   34.5660    9.6870 N.pl3     1 AMP301      0.0000 
     20 N1        -33.5310   34.8730   10.2310 N.ar      1 AMP301      0.0000 
     21 C2        -34.4850   34.9810   11.1660 C.ar      1 AMP301      0.0000 
     22 N3        -34.3630   34.9450   12.4960 N.ar      1 AMP301      0.0000 
     23 C4        -33.0810   34.7630   12.8600 C.ar      1 AMP301      0.0000 
@<TRIPOS>BOND
     1    1    2 ar   
     2    1    3 ar   
     3    1    4 ar   
     4    1    5 1    
     5    5    6 1    
     6    6    7 1    
     7    7    8 1    
     8    7    9 1    
     9    8   13 1    
    10    9   10 1    
    11    9   11 1    
    12   11   12 1    
    13   11   13 1    
    14   13   14 1    
    15   14   15 1    
    16   14   23 1    
    17   15   16 2    
    18   16   17 1    
    19   17   18 ar   
    20   17   23 ar   
    21   18   19 1    
    22   18   20 ar   
    23   20   21 ar   
    24   21   22 ar   
    25   22   23 ar   
@<TRIPOS>SUBSTRUCTURE
     1 AMP301      1 GROUP   
@<TRIPOS>SET
ATOM$ORANGE STATIC     ATOMS   COLORGROUP SYSTEM 
20 6 6 7 7 9 9 11 11 13 13 15 15 17 17 18 18 21 \
21 23 23 

