#    Name: 6v61_1_X8Z
#    Modification time : Fri May 22 19:29:31 2020

@<TRIPOS>MOLECULE
6v61_1_X8Z
   14    14     1     0     0
SMALL
NO_CHARGES


@<TRIPOS>ATOM
      1 O1        -19.6570  -41.6090  -27.6070 O.2       1 X8Z304      0.0000 
      2 C4        -19.6380  -41.7610  -26.3940 C.2       1 X8Z304      0.0000 
      3 C2        -20.6270  -41.0180  -25.5470 C.3       1 X8Z304      0.0000 
      4 C1        -20.6560  -39.5620  -25.9900 C.3       1 X8Z304      0.0000 
      5 S         -19.0400  -38.7260  -25.9770 S.3       1 X8Z304      0.0000 
      6 C3        -22.0180  -41.6540  -25.6700 C.3       1 X8Z304      0.0000 
      7 N         -18.7910  -42.5490  -25.7180 N.am      1 X8Z304      0.0000 
      8 C8        -17.3480  -42.5890  -25.9500 C.3       1 X8Z304      0.0000 
      9 C9        -16.8890  -43.8130  -26.6780 C.2       1 X8Z304      0.0000 
     10 O3        -17.6520  -44.3280  -27.5310 O.co2     1 X8Z304      0.0000 
     11 O2        -15.7490  -44.2630  -26.3890 O.co2     1 X8Z304      0.0000 
     12 C5        -19.1350  -43.4310  -24.6100 C.3       1 X8Z304      0.0000 
     13 C6        -17.9380  -43.2280  -23.6890 C.3       1 X8Z304      0.0000 
     14 C7        -16.7890  -42.7170  -24.5460 C.3       1 X8Z304      0.0000 
@<TRIPOS>BOND
     1    1    2 2    
     2    2    3 1    
     3    2    7 am   
     4    3    4 1    
     5    3    6 1    
     6    4    5 1    
     7    7    8 1    
     8    7   12 1    
     9    8    9 1    
    10    8   14 1    
    11    9   10 ar   
    12    9   11 ar   
    13   12   13 1    
    14   13   14 1    
@<TRIPOS>SUBSTRUCTURE
     1 X8Z304      1 GROUP   
@<TRIPOS>SET

