#    Name: 6v61_1_X8Z_CAVITY_N1_4
#    Modification time : Fri May 22 19:29:31 2020

@<TRIPOS>MOLECULE
6v61_1_X8Z_CAVITY_N1_4
   64     0     7     0     0
SMALL
NO_CHARGES


@<TRIPOS>ATOM
      1 OG        -24.5300  -42.8200  -25.4100 O.3       1 SER1        0.0000 
      2 OG        -24.6900  -41.5900  -26.2600 O.3       1 SER1        0.0000 
      3 OG        -23.6300  -42.0700  -24.4800 O.3       1 SER1        0.0000 
      4 OG        -23.7900  -40.8400  -25.3200 O.3       1 SER1        0.0000 
      5 OG        -21.5700  -40.4200  -27.8000 O.3       1 SER1        0.0000 
      6 OG        -20.6700  -39.6700  -26.8700 O.3       1 SER1        0.0000 
      7 OG        -18.1100  -43.0200  -24.2300 O.3       1 SER1        0.0000 
      8 OG        -19.4500  -41.3800  -24.2500 O.3       1 SER1        0.0000 
      9 OG        -18.2700  -41.7900  -25.0700 O.3       1 SER1        0.0000 
     10 O         -24.8500  -40.3600  -27.1000 O.2       2 ALA2        0.0000 
     11 O         -21.2800  -41.5800  -29.5500 O.2       2 ALA2        0.0000 
     12 O         -23.9500  -39.6000  -26.1700 O.2       2 ALA2        0.0000 
     13 O         -22.8900  -40.0800  -24.3900 O.2       2 ALA2        0.0000 
     14 O         -17.0800  -42.1900  -25.8900 O.2       2 ALA2        0.0000 
     15 OD1       -19.4800  -40.0800  -27.6900 O.co2     3 ASP3        0.0000 
     16 OD1       -19.6100  -40.1500  -25.0900 O.co2     3 ASP3        0.0000 
     17 OD1       -18.4200  -40.5500  -25.9100 O.co2     3 ASP3        0.0000 
     18 NZ        -21.7000  -40.4900  -25.2100 N.4       4 LYS4        0.0000 
     19 CZ        -23.6600  -40.7700  -27.9200 C.ar      5 PHE5        0.0000 
     20 CZ        -17.2200  -47.8000  -26.0400 C.ar      5 PHE5        0.0000 
     21 CZ        -22.4400  -42.4700  -25.3000 C.ar      5 PHE5        0.0000 
     22 CZ        -20.0400  -44.5900  -23.5000 C.ar      5 PHE5        0.0000 
     23 CZ        -20.2000  -43.3600  -24.3400 C.ar      5 PHE5        0.0000 
     24 CZ        -21.5400  -41.7200  -24.3700 C.ar      5 PHE5        0.0000 
     25 CZ        -19.1400  -43.8400  -22.5700 C.ar      5 PHE5        0.0000 
     26 CZ        -19.3000  -42.6100  -23.4100 C.ar      5 PHE5        0.0000 
     27 CZ        -20.6400  -40.9700  -23.4300 C.ar      5 PHE5        0.0000 
     28 CZ        -17.2100  -42.2600  -23.2900 C.ar      5 PHE5        0.0000 
     29 CA        -18.4100  -47.3900  -25.2200 C.3       6 GLY6        0.0000 
     30 CA        -19.7500  -45.7500  -25.2500 C.3       6 GLY6        0.0000 
     31 CA        -18.5600  -46.1600  -26.0700 C.3       6 GLY6        0.0000 
     32 CA        -20.2200  -42.0600  -27.7800 C.3       6 GLY6        0.0000 
     33 CA        -22.7600  -40.0100  -26.9900 C.3       6 GLY6        0.0000 
     34 CA        -20.3800  -40.8300  -28.6200 C.3       6 GLY6        0.0000 
     35 CA        -18.7000  -46.2300  -23.4700 C.3       6 GLY6        0.0000 
     36 CA        -18.8500  -45.0000  -24.3200 C.3       6 GLY6        0.0000 
     37 CA        -17.9800  -42.9500  -26.8200 C.3       6 GLY6        0.0000 
     38 CA        -19.3200  -41.3100  -26.8500 C.3       6 GLY6        0.0000 
     39 CA        -18.1300  -41.7200  -27.6600 C.3       6 GLY6        0.0000 
     40 CA        -21.8600  -39.2600  -26.0500 C.3       6 GLY6        0.0000 
     41 CA        -16.6100  -45.8900  -23.3600 C.3       6 GLY6        0.0000 
     42 CA        -17.9500  -44.2500  -23.3800 C.3       6 GLY6        0.0000 
     43 CA        -16.7600  -44.6600  -24.2000 C.3       6 GLY6        0.0000 
     44 CA        -15.7300  -43.8300  -25.8600 C.3       6 GLY6        0.0000 
     45 CA        -14.5200  -45.5400  -23.2400 C.3       6 GLY6        0.0000 
     46 DU        -23.5000  -42.0000  -27.0800 H         7 CUB7        0.0000 
     47 DU        -22.3100  -42.4100  -27.8900 H         7 CUB7        0.0000 
     48 DU        -22.4700  -41.1800  -28.7400 H         7 CUB7        0.0000 
     49 DU        -17.3800  -46.5700  -26.8800 H         7 CUB7        0.0000 
     50 DU        -21.2600  -42.8800  -26.1200 H         7 CUB7        0.0000 
     51 DU        -22.6000  -41.2400  -26.1400 H         7 CUB7        0.0000 
     52 DU        -21.4100  -41.6500  -26.9600 H         7 CUB7        0.0000 
     53 DU        -17.5100  -46.6400  -24.2900 H         7 CUB7        0.0000 
     54 DU        -16.3200  -47.0500  -25.1100 H         7 CUB7        0.0000 
     55 DU        -17.6600  -45.4100  -25.1300 H         7 CUB7        0.0000 
     56 DU        -15.2900  -46.2300  -26.7700 H         7 CUB7        0.0000 
     57 DU        -19.0100  -43.7700  -25.1600 H         7 CUB7        0.0000 
     58 DU        -17.8200  -44.1800  -25.9800 H         7 CUB7        0.0000 
     59 DU        -20.3500  -42.1300  -25.1800 H         7 CUB7        0.0000 
     60 DU        -19.1700  -42.5400  -26.0000 H         7 CUB7        0.0000 
     61 DU        -20.5100  -40.9000  -26.0300 H         7 CUB7        0.0000 
     62 DU        -15.4200  -46.3000  -24.1800 H         7 CUB7        0.0000 
     63 DU        -15.5700  -45.0600  -25.0200 H         7 CUB7        0.0000 
     64 DU        -16.9200  -43.4200  -25.0400 H         7 CUB7        0.0000 
@<TRIPOS>BOND
@<TRIPOS>SUBSTRUCTURE
     1 SER1        1 GROUP   
     2 ALA2       10 GROUP   
     3 ASP3       15 GROUP   
     4 LYS4       18 GROUP   
     5 PHE5       19 GROUP   
     6 GLY6       29 GROUP   
     7 CUB7       46 GROUP   
@<TRIPOS>SET

