#    Name: 6e7b_1_G2P
#    Modification time : Fri May 22 19:26:45 2020

@<TRIPOS>MOLECULE
6e7b_1_G2P
   32    34     1     0     0
SMALL
NO_CHARGES


@<TRIPOS>ATOM
      1 PG        103.7670   39.7460   -7.5770 P.3       1 G2P502      0.0000 
      2 O1G       102.6500   40.3900   -8.3600 O.co2     1 G2P502      0.0000 
      3 O2G       104.6880   38.8660   -8.3860 O.co2     1 G2P502      0.0000 
      4 O3G       104.4570   40.7090   -6.6490 O.co2     1 G2P502      0.0000 
      5 O3B       103.0590   38.7050   -6.5790 O.3       1 G2P502      0.0000 
      6 PB        101.6310   38.0340   -6.8940 P.3       1 G2P502      0.0000 
      7 O1B       100.4850   38.7110   -5.9900 O.co2     1 G2P502      0.0000 
      8 O2B       101.2710   38.1770   -8.3200 O.co2     1 G2P502      0.0000 
      9 C3A       101.7910   36.2810   -6.4730 C.3       1 G2P502      0.0000 
     10 PA        102.4760   36.1650   -4.8070 P.3       1 G2P502      0.0000 
     11 O1A       101.3840   36.0430   -3.8180 O.co2     1 G2P502      0.0000 
     12 O2A       103.3010   37.5170   -4.5290 O.co2     1 G2P502      0.0000 
     13 O5'       103.4530   34.8910   -4.7050 O.3       1 G2P502      0.0000 
     14 C5'       104.0620   34.5860   -3.4540 C.3       1 G2P502      0.0000 
     15 C4'       104.4930   33.1260   -3.2590 C.3       1 G2P502      0.0000 
     16 O4'       103.6790   32.5800   -2.2170 O.3       1 G2P502      0.0000 
     17 C3'       104.3990   32.1640   -4.4450 C.3       1 G2P502      0.0000 
     18 O3'       105.6990   31.6640   -4.7680 O.3       1 G2P502      0.0000 
     19 C2'       103.4910   31.0290   -4.0170 C.3       1 G2P502      0.0000 
     20 O2'       104.1560   29.7750   -4.1730 O.3       1 G2P502      0.0000 
     21 C1'       103.1830   31.2810   -2.5470 C.3       1 G2P502      0.0000 
     22 N9        101.7380   31.2100   -2.2020 N.pl3     1 G2P502      0.0000 
     23 C8        100.7330   31.8920   -2.7820 C.2       1 G2P502      0.0000 
     24 N7         99.5430   31.5860   -2.2090 N.2       1 G2P502      0.0000 
     25 C5         99.7840   30.7000   -1.2330 C.2       1 G2P502      0.0000 
     26 C6         98.9750   29.9700   -0.2380 C.2       1 G2P502      0.0000 
     27 O6         97.7400   30.1290   -0.1850 O.2       1 G2P502      0.0000 
     28 N1         99.6000   29.1390    0.6010 N.am      1 G2P502      0.0000 
     29 C2        100.9330   28.9540    0.5590 C.2       1 G2P502      0.0000 
     30 N2        101.5090   28.0960    1.4350 N.pl3     1 G2P502      0.0000 
     31 N3        101.7370   29.5900   -0.3280 N.2       1 G2P502      0.0000 
     32 C4        101.2280   30.4550   -1.2320 C.2       1 G2P502      0.0000 
@<TRIPOS>BOND
     1    1    2 ar   
     2    1    3 ar   
     3    1    4 ar   
     4    1    5 1    
     5    5    6 1    
     6    6    7 ar   
     7    6    8 ar   
     8    6    9 1    
     9    9   10 1    
    10   10   11 ar   
    11   10   12 ar   
    12   10   13 1    
    13   13   14 1    
    14   14   15 1    
    15   15   16 1    
    16   15   17 1    
    17   16   21 1    
    18   17   18 1    
    19   17   19 1    
    20   19   20 1    
    21   19   21 1    
    22   21   22 1    
    23   22   23 1    
    24   22   32 1    
    25   23   24 2    
    26   24   25 1    
    27   25   26 1    
    28   25   32 2    
    29   26   27 2    
    30   26   28 am   
    31   28   29 1    
    32   29   30 1    
    33   29   31 2    
    34   31   32 1    
@<TRIPOS>SUBSTRUCTURE
     1 G2P502      1 GROUP   
@<TRIPOS>SET

