#    Name: 6e7b_2_GTP
#    Modification time : Fri May 22 19:26:58 2020

@<TRIPOS>MOLECULE
6e7b_2_GTP
   32    34     1     0     1
SMALL
NO_CHARGES


@<TRIPOS>ATOM
      1 PG        102.7410   40.5810   32.5380 P.3       1 GTP502      0.0000 
      2 O1G       103.8300   39.6810   32.0080 O.co2     1 GTP502      0.0000 
      3 O2G       103.0770   42.0520   32.5150 O.co2     1 GTP502      0.0000 
      4 O3G       101.3560   40.2420   32.0430 O.co2     1 GTP502      0.0000 
      5 O3B       102.6840   40.2110   34.0980 O.3       1 GTP502      0.0000 
      6 PB        102.0140   38.8200   34.5270 P.3       1 GTP502      0.0000 
      7 O1B       101.9420   37.9550   33.2960 O.co2     1 GTP502      0.0000 
      8 O2B       100.7570   39.1160   35.3050 O.co2     1 GTP502      0.0000 
      9 O3A       103.1130   38.2090   35.5280 O.3       1 GTP502      0.0000 
     10 PA        102.9470   36.6960   36.0400 P.3       1 GTP502      0.0000 
     11 O1A       102.2580   35.9110   34.9510 O.co2     1 GTP502      0.0000 
     12 O2A       102.3280   36.7520   37.4150 O.co2     1 GTP502      0.0000 
     13 O5'       104.4750   36.2100   36.2060 O.3       1 GTP502      0.0000 
     14 C5'       104.9370   34.9510   35.7110 C.3       1 GTP502      0.0000 
     15 C4'       105.3920   34.0680   36.8640 C.3       1 GTP502      0.0000 
     16 O4'       104.3250   33.9230   37.7990 O.3       1 GTP502      0.0000 
     17 C3'       105.7740   32.6800   36.3750 C.3       1 GTP502      0.0000 
     18 O3'       107.1510   32.4130   36.6560 O.3       1 GTP502      0.0000 
     19 C2'       104.8730   31.7130   37.1130 C.3       1 GTP502      0.0000 
     20 O2'       105.6380   30.7050   37.7760 O.3       1 GTP502      0.0000 
     21 C1'       104.1150   32.5500   38.1240 C.3       1 GTP502      0.0000 
     22 N9        102.6650   32.2660   38.0870 N.pl3     1 GTP502      0.0000 
     23 C8        101.8130   32.7180   37.1530 C.2       1 GTP502      0.0000 
     24 N7        100.5530   32.2880   37.4090 N.2       1 GTP502      0.0000 
     25 C5        100.5990   31.5530   38.5300 C.2       1 GTP502      0.0000 
     26 C6         99.6270   30.8110   39.3510 C.2       1 GTP502      0.0000 
     27 O6         98.4250   30.7740   39.0340 O.2       1 GTP502      0.0000 
     28 N1        100.0680   30.1750   40.4370 N.am      1 GTP502      0.0000 
     29 C2        101.3610   30.1950   40.8030 C.2       1 GTP502      0.0000 
     30 N2        101.7280   29.5250   41.9220 N.pl3     1 GTP502      0.0000 
     31 N3        102.3120   30.8590   40.0990 N.2       1 GTP502      0.0000 
     32 C4        101.9930   31.5410   38.9760 C.2       1 GTP502      0.0000 
@<TRIPOS>BOND
     1    1    2 ar   
     2    1    3 ar   
     3    1    4 ar   
     4    1    5 1    
     5    5    6 1    
     6    6    7 ar   
     7    6    8 ar   
     8    6    9 1    
     9    9   10 1    
    10   10   11 ar   
    11   10   12 ar   
    12   10   13 1    
    13   13   14 1    
    14   14   15 1    
    15   15   16 1    
    16   15   17 1    
    17   16   21 1    
    18   17   18 1    
    19   17   19 1    
    20   19   20 1    
    21   19   21 1    
    22   21   22 1    
    23   22   23 1    
    24   22   32 1    
    25   23   24 2    
    26   24   25 1    
    27   25   26 1    
    28   25   32 2    
    29   26   27 2    
    30   26   28 am   
    31   28   29 1    
    32   29   30 1    
    33   29   31 2    
    34   31   32 1    
@<TRIPOS>SUBSTRUCTURE
     1 GTP502      1 GROUP   
@<TRIPOS>SET
ATOM$ORANGE STATIC     ATOMS   COLORGROUP SYSTEM 
20 14 14 15 15 17 17 19 19 21 21 23 23 25 25 26 26 29 \
29 32 32 

