#    Name: 6e7b_2_GTP_CAVITY_N1_12
#    Modification time : Fri May 22 19:27:00 2020

@<TRIPOS>MOLECULE
6e7b_2_GTP_CAVITY_N1_12
   77     0     7     0     0
SMALL
NO_CHARGES


@<TRIPOS>ATOM
      1 OG        104.0800   30.1800   35.7600 O.3       1 SER1        0.0000 
      2 OG        103.9100   36.7100   35.7700 O.3       1 SER1        0.0000 
      3 OG        102.9900   35.6500   36.3100 O.3       1 SER1        0.0000 
      4 OG        104.1100   34.6500   36.2400 O.3       1 SER1        0.0000 
      5 OG        103.3800   31.5300   37.2300 O.3       1 SER1        0.0000 
      6 OG        102.4600   30.4700   37.7700 O.3       1 SER1        0.0000 
      7 OG        105.4100   31.5900   36.6300 O.3       1 SER1        0.0000 
      8 OG        103.5700   29.4700   37.7000 O.3       1 SER1        0.0000 
      9 OG        103.2100   38.0700   37.2500 O.3       1 SER1        0.0000 
     10 OG        103.5900   33.9500   38.1700 O.3       1 SER1        0.0000 
     11 OG        105.6300   34.0000   37.5700 O.3       1 SER1        0.0000 
     12 N         104.4300   37.4200   33.8400 N.am      2 ALA2        0.0000 
     13 O         102.5900   35.3000   34.9100 O.2       2 ALA2        0.0000 
     14 O         100.7500   33.1900   35.9800 O.2       2 ALA2        0.0000 
     15 N          99.8300   32.1300   36.5100 N.am      2 ALA2        0.0000 
     16 O         103.7000   34.3000   34.8400 O.2       2 ALA2        0.0000 
     17 N         105.7300   34.3500   34.2300 N.am      2 ALA2        0.0000 
     18 O         104.8300   37.7700   35.2400 O.2       2 ALA2        0.0000 
     19 O         101.1500   33.5400   37.3800 O.2       2 ALA2        0.0000 
     20 N          99.3100   31.4200   38.4500 N.am      2 ALA2        0.0000 
     21 N         104.4900   30.5300   37.1600 N.am      2 ALA2        0.0000 
     22 N          99.9100   29.7200   40.3100 N.am      2 ALA2        0.0000 
     23 O         102.8700   30.8300   39.1700 O.2       2 ALA2        0.0000 
     24 O         101.9500   29.7700   39.7000 O.2       2 ALA2        0.0000 
     25 N         105.8200   31.9400   38.0300 N.am      2 ALA2        0.0000 
     26 N         104.9000   30.8800   38.5600 N.am      2 ALA2        0.0000 
     27 N         106.9300   30.9300   37.9600 N.am      2 ALA2        0.0000 
     28 N         101.2400   31.1300   41.1700 N.am      2 ALA2        0.0000 
     29 O         102.3500   30.1200   41.1000 O.2       2 ALA2        0.0000 
     30 O         101.4300   29.0600   41.6400 O.2       2 ALA2        0.0000 
     31 N         107.1500   33.3500   38.9000 N.am      2 ALA2        0.0000 
     32 N         101.8400   29.4200   43.0400 N.am      2 ALA2        0.0000 
     33 O         102.9500   28.4100   42.9700 O.2       2 ALA2        0.0000 
     34 OD1       103.3100   38.4200   33.9100 O.co2     3 ASP3        0.0000 
     35 OD1       102.3900   37.3600   34.4500 O.co2     3 ASP3        0.0000 
     36 OD1       103.5100   36.3600   34.3700 O.co2     3 ASP3        0.0000 
     37 OD1       104.6200   35.3600   34.3000 O.co2     3 ASP3        0.0000 
     38 OD1       101.6900   38.7200   35.9200 O.co2     3 ASP3        0.0000 
     39 NZ        106.3300   32.6400   36.1000 N.4       4 LYS4        0.0000 
     40 NZ        106.7400   33.0000   37.5000 N.4       4 LYS4        0.0000 
     41 CZ        100.9400   31.1300   36.4400 C.ar      5 PHE5        0.0000 
     42 CZ        101.3500   31.4800   37.8400 C.ar      5 PHE5        0.0000 
     43 CZ        100.4300   30.4200   38.3700 C.ar      5 PHE5        0.0000 
     44 CZ        101.0300   28.7100   40.2400 C.ar      5 PHE5        0.0000 
     45 CA        103.2900   33.9500   33.4400 C.3       6 GLY6        0.0000 
     46 CA        105.3200   34.0000   32.8300 C.3       6 GLY6        0.0000 
     47 CA        104.4000   32.9400   33.3700 C.3       6 GLY6        0.0000 
     48 CA        102.7800   33.2400   35.3700 C.3       6 GLY6        0.0000 
     49 CA        101.8600   32.1800   35.9100 C.3       6 GLY6        0.0000 
     50 CA        104.8100   33.2900   34.7700 C.3       6 GLY6        0.0000 
     51 CA        103.8900   32.2400   35.3000 C.3       6 GLY6        0.0000 
     52 CA        102.9700   31.1800   35.8300 C.3       6 GLY6        0.0000 
     53 CA        105.9200   32.2900   34.7000 C.3       6 GLY6        0.0000 
     54 CA        105.0000   31.2300   35.2300 C.3       6 GLY6        0.0000 
     55 CA        103.7200   38.7700   35.3100 C.3       6 GLY6        0.0000 
     56 CA        101.8800   36.6600   36.3800 C.3       6 GLY6        0.0000 
     57 CA        102.0700   34.6000   36.8400 C.3       6 GLY6        0.0000 
     58 CA        100.2300   32.4800   37.9100 C.3       6 GLY6        0.0000 
     59 CA        105.9500   36.7700   35.1700 C.3       6 GLY6        0.0000 
     60 CA        105.0300   35.7100   35.7000 C.3       6 GLY6        0.0000 
     61 CA        106.1400   34.7000   35.6300 C.3       6 GLY6        0.0000 
     62 CA         99.7200   31.7800   39.8500 C.3       6 GLY6        0.0000 
     63 CA        102.6700   32.8900   38.7100 C.3       6 GLY6        0.0000 
     64 CA        101.7500   31.8300   39.2400 C.3       6 GLY6        0.0000 
     65 CA        104.7100   32.9400   38.1000 C.3       6 GLY6        0.0000 
     66 CA        103.7900   31.8800   38.6300 C.3       6 GLY6        0.0000 
     67 CA        102.1600   32.1800   40.6400 C.3       6 GLY6        0.0000 
     68 CA        105.1100   33.2900   39.5000 C.3       6 GLY6        0.0000 
     69 CA        104.1900   32.2400   40.0300 C.3       6 GLY6        0.0000 
     70 CA        103.2700   31.1800   40.5700 C.3       6 GLY6        0.0000 
     71 CA        106.2300   32.2900   39.4300 C.3       6 GLY6        0.0000 
     72 DU        102.8000   37.7200   35.8500 H         7 CUB7        0.0000 
     73 DU        103.1900   33.5900   36.7700 H         7 CUB7        0.0000 
     74 DU        102.2700   32.5400   37.3100 H         7 CUB7        0.0000 
     75 DU        105.2200   33.6500   36.1700 H         7 CUB7        0.0000 
     76 DU        104.3000   32.5900   36.7000 H         7 CUB7        0.0000 
     77 DU        100.8300   30.7700   39.7700 H         7 CUB7        0.0000 
@<TRIPOS>BOND
@<TRIPOS>SUBSTRUCTURE
     1 SER1        1 GROUP   
     2 ALA2       12 GROUP   
     3 ASP3       34 GROUP   
     4 LYS4       39 GROUP   
     5 PHE5       41 GROUP   
     6 GLY6       45 GROUP   
     7 CUB7       72 GROUP   
@<TRIPOS>SET

