#    Name: 5yu6_1_GTP_CAVITY_N1_4
#    Modification time : Fri May 22 19:26:08 2020

@<TRIPOS>MOLECULE
5yu6_1_GTP_CAVITY_N1_4
   86     0     7     0     0
SMALL
NO_CHARGES


@<TRIPOS>ATOM
      1 OG          8.1700  124.8900   15.7700 O.3       1 SER1        0.0000 
      2 OG          9.3200  126.6400   14.2300 O.3       1 SER1        0.0000 
      3 OG          7.9200  126.7300   14.7400 O.3       1 SER1        0.0000 
      4 OG          9.5400  128.0900   14.5700 O.3       1 SER1        0.0000 
      5 OG          8.1300  128.1800   15.0800 O.3       1 SER1        0.0000 
      6 OG         11.1600  129.4400   14.4000 O.3       1 SER1        0.0000 
      7 OG          9.7600  129.5300   14.9100 O.3       1 SER1        0.0000 
      8 OG          9.0400  130.6700   17.1300 O.3       1 SER1        0.0000 
      9 OG          9.2500  132.1200   17.4700 O.3       1 SER1        0.0000 
     10 OG          9.7200  131.7300   18.8400 O.3       1 SER1        0.0000 
     11 N           5.6100  124.3200   13.2100 N.am      2 ALA2        0.0000 
     12 N           6.0800  123.9300   14.5700 N.am      2 ALA2        0.0000 
     13 N           4.6700  124.0200   15.0900 N.am      2 ALA2        0.0000 
     14 O           9.8400  122.9700   16.2900 O.2       2 ALA2        0.0000 
     15 N           5.8200  125.7700   13.5500 N.am      2 ALA2        0.0000 
     16 N           6.2900  125.3800   14.9100 N.am      2 ALA2        0.0000 
     17 N           6.7700  124.9800   16.2800 N.am      2 ALA2        0.0000 
     18 N          10.2600  126.9500   12.3500 N.am      2 ALA2        0.0000 
     19 N           6.5100  126.8200   15.2500 N.am      2 ALA2        0.0000 
     20 O          13.5100  129.6600   12.0100 O.2       2 ALA2        0.0000 
     21 O          12.1000  129.7500   12.5200 O.2       2 ALA2        0.0000 
     22 O          12.5700  129.3500   13.8900 O.2       2 ALA2        0.0000 
     23 O          13.2500  131.4900   10.9800 O.2       2 ALA2        0.0000 
     24 N           7.6300  130.7600   17.6400 N.am      2 ALA2        0.0000 
     25 OD1         7.9900  121.2600   11.5000 O.co2     3 ASP3        0.0000 
     26 OD1         6.8000  122.7900   12.3500 O.co2     3 ASP3        0.0000 
     27 OD1         7.0100  124.2300   12.6900 O.co2     3 ASP3        0.0000 
     28 OD1         7.4900  123.8400   14.0600 O.co2     3 ASP3        0.0000 
     29 OD1         8.1700  125.9800   11.1500 O.co2     3 ASP3        0.0000 
     30 OD1         8.6400  125.5900   12.5200 O.co2     3 ASP3        0.0000 
     31 OD1         7.2300  125.6800   13.0300 O.co2     3 ASP3        0.0000 
     32 OD1         9.1100  125.2000   13.8900 O.co2     3 ASP3        0.0000 
     33 OD1        13.7200  131.1000   12.3500 O.co2     3 ASP3        0.0000 
     34 NZ          7.1000  117.6700   14.0700 N.4       4 LYS4        0.0000 
     35 NZ          5.6900  117.7600   14.5800 N.4       4 LYS4        0.0000 
     36 NZ          7.3100  119.1100   14.4100 N.4       4 LYS4        0.0000 
     37 NZ          5.9100  119.2000   14.9200 N.4       4 LYS4        0.0000 
     38 NZ          7.7800  118.7200   15.7800 N.4       4 LYS4        0.0000 
     39 NZ          6.3800  118.8100   16.2900 N.4       4 LYS4        0.0000 
     40 CZ          6.1200  120.6500   15.2600 C.ar      5 PHE5        0.0000 
     41 CZ          4.7100  120.7400   15.7700 C.ar      5 PHE5        0.0000 
     42 CZ          8.0000  120.1700   16.1200 C.ar      5 PHE5        0.0000 
     43 CZ          6.5900  120.2600   16.6300 C.ar      5 PHE5        0.0000 
     44 CZ          5.1900  120.3500   17.1400 C.ar      5 PHE5        0.0000 
     45 CZ          7.7400  122.0000   15.0900 C.ar      5 PHE5        0.0000 
     46 CZ          6.3400  122.0900   15.6000 C.ar      5 PHE5        0.0000 
     47 CZ          4.9300  122.1800   16.1100 C.ar      5 PHE5        0.0000 
     48 CZ          3.5200  122.2700   16.6200 C.ar      5 PHE5        0.0000 
     49 CZ          8.2200  121.6100   16.4600 C.ar      5 PHE5        0.0000 
     50 CZ          7.9600  123.4500   15.4300 C.ar      5 PHE5        0.0000 
     51 CZ          6.5500  123.5400   15.9400 C.ar      5 PHE5        0.0000 
     52 CZ          8.4300  123.0600   16.8000 C.ar      5 PHE5        0.0000 
     53 CZ          8.3800  127.4300   11.4900 C.ar      5 PHE5        0.0000 
     54 CZ          8.8500  127.0400   12.8600 C.ar      5 PHE5        0.0000 
     55 CZ         10.4800  128.3900   12.6900 C.ar      5 PHE5        0.0000 
     56 CZ         12.3100  131.1900   12.8600 C.ar      5 PHE5        0.0000 
     57 CA          6.1500  118.4500   11.3300 C.3       6 GLY6        0.0000 
     58 CA          8.0300  117.9700   12.1900 C.3       6 GLY6        0.0000 
     59 CA          6.6300  118.0600   12.7000 C.3       6 GLY6        0.0000 
     60 CA          4.7500  117.4600   16.4600 C.3       6 GLY6        0.0000 
     61 CA          8.2500  119.4200   12.5300 C.3       6 GLY6        0.0000 
     62 CA          8.7200  119.0300   13.9000 C.3       6 GLY6        0.0000 
     63 CA          7.0600  120.9500   13.3800 C.3       6 GLY6        0.0000 
     64 CA          8.9400  120.4700   14.2400 C.3       6 GLY6        0.0000 
     65 CA          9.4100  120.0800   15.6100 C.3       6 GLY6        0.0000 
     66 CA          7.2700  122.4000   13.7200 C.3       6 GLY6        0.0000 
     67 CA          9.1500  121.9200   14.5800 C.3       6 GLY6        0.0000 
     68 CA          9.6200  121.5200   15.9500 C.3       6 GLY6        0.0000 
     69 CA          9.3700  123.3600   14.9200 C.3       6 GLY6        0.0000 
     70 CA          6.7600  126.0700   11.6700 C.3       6 GLY6        0.0000 
     71 CA          9.5800  124.8100   15.2600 C.3       6 GLY6        0.0000 
     72 CA          7.4500  127.1200   13.3700 C.3       6 GLY6        0.0000 
     73 CA          6.0400  127.2100   13.8900 C.3       6 GLY6        0.0000 
     74 CA         10.7300  126.5500   13.7200 C.3       6 GLY6        0.0000 
     75 CA         10.9500  128.0000   14.0600 C.3       6 GLY6        0.0000 
     76 CA          8.3500  129.6200   15.4200 C.3       6 GLY6        0.0000 
     77 CA         12.7900  130.8000   14.2300 C.3       6 GLY6        0.0000 
     78 DU          6.3700  119.9000   11.6700 H         7 CUB7        0.0000 
     79 DU          6.8400  119.5100   13.0400 H         7 CUB7        0.0000 
     80 DU          5.4300  119.6000   13.5500 H         7 CUB7        0.0000 
     81 DU          5.6500  121.0400   13.8900 H         7 CUB7        0.0000 
     82 DU          7.5300  120.5600   14.7500 H         7 CUB7        0.0000 
     83 DU          5.3900  122.8800   12.8700 H         7 CUB7        0.0000 
     84 DU          5.8600  122.4900   14.2300 H         7 CUB7        0.0000 
     85 DU          4.4600  122.5800   14.7500 H         7 CUB7        0.0000 
     86 DU          7.7000  125.2900   14.4000 H         7 CUB7        0.0000 
@<TRIPOS>BOND
@<TRIPOS>SUBSTRUCTURE
     1 SER1        1 GROUP   
     2 ALA2       11 GROUP   
     3 ASP3       25 GROUP   
     4 LYS4       34 GROUP   
     5 PHE5       40 GROUP   
     6 GLY6       57 GROUP   
     7 CUB7       78 GROUP   
@<TRIPOS>SET

