#    Name: 5yu6_1_GTP
#    Modification time : Fri May 22 19:26:06 2020

@<TRIPOS>MOLECULE
5yu6_1_GTP
   32    34     1     0     1
SMALL
NO_CHARGES


@<TRIPOS>ATOM
      1 PG         13.4420  132.0220   12.1340 P.3       1 GTP301      0.0000 
      2 O1G        13.0110  132.3840   13.5360 O.co2     1 GTP301      0.0000 
      3 O2G        14.7350  132.7160   11.7780 O.co2     1 GTP301      0.0000 
      4 O3G        12.3800  132.4380   11.1440 O.co2     1 GTP301      0.0000 
      5 O3B        13.6640  130.4310   12.0500 O.3       1 GTP301      0.0000 
      6 PB         13.2170  129.4440   13.2410 P.3       1 GTP301      0.0000 
      7 O1B        13.8050  128.0850   12.9630 O.co2     1 GTP301      0.0000 
      8 O2B        13.6990  129.9500   14.5730 O.co2     1 GTP301      0.0000 
      9 O3A        11.6090  129.3410   13.2100 O.3       1 GTP301      0.0000 
     10 PA         10.7800  129.1530   14.5810 P.3       1 GTP301      0.0000 
     11 O1A        11.5790  128.3810   15.6040 O.co2     1 GTP301      0.0000 
     12 O2A        10.3790  130.5060   15.1210 O.co2     1 GTP301      0.0000 
     13 O5'         9.4810  128.2910   14.1850 O.3       1 GTP301      0.0000 
     14 C5'         9.6240  127.1200   13.4160 C.3       1 GTP301      0.0000 
     15 C4'         8.3480  126.2940   13.4900 C.3       1 GTP301      0.0000 
     16 O4'         8.7160  124.9310   13.5130 O.3       1 GTP301      0.0000 
     17 C3'         7.5800  126.5740   14.7710 C.3       1 GTP301      0.0000 
     18 O3'         6.3450  127.1850   14.4750 O.3       1 GTP301      0.0000 
     19 C2'         7.3470  125.2240   15.4190 C.3       1 GTP301      0.0000 
     20 O2'         5.9700  124.9640   15.5530 O.3       1 GTP301      0.0000 
     21 C1'         7.9970  124.2090   14.4910 C.3       1 GTP301      0.0000 
     22 N9          8.9410  123.3760   15.2510 N.pl3     1 GTP301      0.0000 
     23 C8         10.0870  123.8090   15.8640 C.2       1 GTP301      0.0000 
     24 N7         10.6840  122.7500   16.4530 N.2       1 GTP301      0.0000 
     25 C5          9.9400  121.6470   16.2190 C.2       1 GTP301      0.0000 
     26 C6         10.0970  120.3180   16.5880 C.2       1 GTP301      0.0000 
     27 O6         11.0680  119.9730   17.2590 O.2       1 GTP301      0.0000 
     28 N1          9.1580  119.3860   16.1980 N.am      1 GTP301      0.0000 
     29 C2          8.0700  119.7780   15.4450 C.2       1 GTP301      0.0000 
     30 N2          7.1670  118.8760   15.0720 N.pl3     1 GTP301      0.0000 
     31 N3          7.9200  121.1030   15.0810 N.2       1 GTP301      0.0000 
     32 C4          8.8400  122.0240   15.4610 C.2       1 GTP301      0.0000 
@<TRIPOS>BOND
     1    1    2 ar   
     2    1    3 ar   
     3    1    4 ar   
     4    1    5 1    
     5    5    6 1    
     6    6    7 ar   
     7    6    8 ar   
     8    6    9 1    
     9    9   10 1    
    10   10   11 ar   
    11   10   12 ar   
    12   10   13 1    
    13   13   14 1    
    14   14   15 1    
    15   15   16 1    
    16   15   17 1    
    17   16   21 1    
    18   17   18 1    
    19   17   19 1    
    20   19   20 1    
    21   19   21 1    
    22   21   22 1    
    23   22   23 1    
    24   22   32 1    
    25   23   24 2    
    26   24   25 1    
    27   25   26 1    
    28   25   32 2    
    29   26   27 2    
    30   26   28 am   
    31   28   29 1    
    32   29   30 1    
    33   29   31 2    
    34   31   32 1    
@<TRIPOS>SUBSTRUCTURE
     1 GTP301      1 GROUP   
@<TRIPOS>SET
ATOM$ORANGE STATIC     ATOMS   COLORGROUP SYSTEM 
20 14 14 15 15 17 17 19 19 21 21 23 23 25 25 26 26 29 \
29 32 32 

