#    Name: 6ccf_1_H1N
#    Modification time : Fri May 22 19:30:52 2020

@<TRIPOS>MOLECULE
6ccf_1_H1N
   37    41     1     0     0
SMALL
NO_CHARGES


@<TRIPOS>ATOM
      1 CAJ        41.5990   47.8230   59.2160 C.3       1 H1N501      0.0000 
      2 CAL        43.0690   47.6290   59.5420 C.3       1 H1N501      0.0000 
      3 CAW        43.6140   46.3750   58.8850 C.3       1 H1N501      0.0000 
      4 CAV        43.2870   46.3540   57.3990 C.3       1 H1N501      0.0000 
      5 CAK        41.8110   46.6200   57.1540 C.3       1 H1N501      0.0000 
      6 NAI        41.3620   47.8840   57.7600 N.4       1 H1N501      0.0000 
      7 CAH        39.9450   48.1430   57.4490 C.3       1 H1N501      0.0000 
      8 CAG        39.4810   49.5330   57.8150 C.ar      1 H1N501      0.0000 
      9 CAS        39.7970   50.6230   57.0190 C.ar      1 H1N501      0.0000 
     10 CAR        39.4130   51.9050   57.3770 C.ar      1 H1N501      0.0000 
     11 CAF        38.7580   49.7540   58.9760 C.ar      1 H1N501      0.0000 
     12 CAE        38.3670   51.0300   59.3450 C.ar      1 H1N501      0.0000 
     13 CAQ        38.6920   52.1230   58.5480 C.ar      1 H1N501      0.0000 
     14 NAP        38.2510   53.4000   59.0040 N.2       1 H1N501      0.0000 
     15 CAO        38.3340   54.7070   58.5180 C.2       1 H1N501      0.0000 
     16 CAN        38.8410   54.9450   57.1610 C.ar      1 H1N501      0.0000 
     17 CAM        40.1040   55.4940   56.9620 C.ar      1 H1N501      0.0000 
     18 CAC        40.5470   55.7830   55.6830 C.ar      1 H1N501      0.0000 
     19 CAA        39.7450   55.5110   54.5890 C.ar      1 H1N501      0.0000 
     20 CAB        38.4950   54.9550   54.7760 C.ar      1 H1N501      0.0000 
     21 CAD        38.0400   54.6760   56.0530 C.ar      1 H1N501      0.0000 
     22 CBD        37.8620   55.7500   59.3140 C.3       1 H1N501      0.0000 
     23 CBC        37.6800   57.1830   59.0620 C.ar      1 H1N501      0.0000 
     24 CBB        37.9260   58.0360   57.9800 C.ar      1 H1N501      0.0000 
     25 CBJ        37.3350   55.5240   60.6850 C.2       1 H1N501      0.0000 
     26 OBK        37.3120   54.4640   61.3100 O.2       1 H1N501      0.0000 
     27 NBI        36.8800   56.7150   61.1380 N.am      1 H1N501      0.0000 
     28 CBH        37.0670   57.7220   60.2090 C.ar      1 H1N501      0.0000 
     29 CBG        36.7210   59.0630   60.2910 C.ar      1 H1N501      0.0000 
     30 CBF        36.9830   59.8940   59.2170 C.ar      1 H1N501      0.0000 
     31 CBA        37.5530   59.3860   58.0500 C.ar      1 H1N501      0.0000 
     32 NAZ        37.6640   60.2760   56.9270 N.pl3     1 H1N501      0.0000 
     33 SAY        38.2280   59.9360   55.4440 S.o2      1 H1N501      0.0000 
     34 OBE        39.4690   59.2290   55.5790 O.2       1 H1N501      0.0000 
     35 OAU        38.2010   61.1620   54.7000 O.2       1 H1N501      0.0000 
     36 CAX        36.9120   58.8850   54.9220 C.3       1 H1N501      0.0000 
     37 CAT        37.2320   58.1790   53.6330 C.3       1 H1N501      0.0000 
@<TRIPOS>BOND
     1    1    2 1    
     2    1    6 1    
     3    2    3 1    
     4    3    4 1    
     5    4    5 1    
     6    5    6 1    
     7    6    7 1    
     8    7    8 1    
     9    8    9 ar   
    10    8   11 ar   
    11    9   10 ar   
    12   10   13 ar   
    13   11   12 ar   
    14   12   13 ar   
    15   13   14 1    
    16   14   15 2    
    17   15   16 1    
    18   15   22 1    
    19   16   17 ar   
    20   16   21 ar   
    21   17   18 ar   
    22   18   19 ar   
    23   19   20 ar   
    24   20   21 ar   
    25   22   23 1    
    26   22   25 1    
    27   23   24 ar   
    28   23   28 ar   
    29   24   31 ar   
    30   25   26 2    
    31   25   27 am   
    32   27   28 1    
    33   28   29 ar   
    34   29   30 ar   
    35   30   31 ar   
    36   31   32 1    
    37   32   33 1    
    38   33   34 2    
    39   33   35 2    
    40   33   36 1    
    41   36   37 1    
@<TRIPOS>SUBSTRUCTURE
     1 H1N501      1 GROUP   
@<TRIPOS>SET

