#    Name: 6ccf_2_H1N
#    Modification time : Fri May 22 19:31:02 2020

@<TRIPOS>MOLECULE
6ccf_2_H1N
   37    41     1     0     0
SMALL
NO_CHARGES


@<TRIPOS>ATOM
      1 CAJ        37.9490   43.7620   64.6300 C.3       1 H1N501      0.0000 
      2 CAL        36.5730   44.0150   65.2110 C.3       1 H1N501      0.0000 
      3 CAW        35.7550   44.9520   64.3170 C.3       1 H1N501      0.0000 
      4 CAV        35.7940   44.5120   62.8510 C.3       1 H1N501      0.0000 
      5 CAK        37.2140   44.2270   62.4040 C.3       1 H1N501      0.0000 
      6 NAI        37.8170   43.2110   63.2770 N.4       1 H1N501      0.0000 
      7 CAH        39.0920   42.7000   62.7500 C.3       1 H1N501      0.0000 
      8 CAG        38.8860   41.3790   62.0480 C.ar      1 H1N501      0.0000 
      9 CAS        39.1360   40.1800   62.6980 C.ar      1 H1N501      0.0000 
     10 CAR        38.7910   38.9690   62.1230 C.ar      1 H1N501      0.0000 
     11 CAF        38.3160   41.3350   60.7850 C.ar      1 H1N501      0.0000 
     12 CAE        37.9580   40.1320   60.2010 C.ar      1 H1N501      0.0000 
     13 CAQ        38.1770   38.9330   60.8730 C.ar      1 H1N501      0.0000 
     14 NAP        37.6930   37.7570   60.2460 N.2       1 H1N501      0.0000 
     15 CAO        37.6170   36.4350   60.6350 C.2       1 H1N501      0.0000 
     16 CAN        37.7180   36.0960   62.0690 C.ar      1 H1N501      0.0000 
     17 CAM        38.7750   35.3230   62.5440 C.ar      1 H1N501      0.0000 
     18 CAC        38.8340   34.9610   63.8830 C.ar      1 H1N501      0.0000 
     19 CAA        37.8520   35.3790   64.7620 C.ar      1 H1N501      0.0000 
     20 CAB        36.8090   36.1560   64.3030 C.ar      1 H1N501      0.0000 
     21 CAD        36.7350   36.5100   62.9660 C.ar      1 H1N501      0.0000 
     22 CBD        37.3240   35.4720   59.6720 C.3       1 H1N501      0.0000 
     23 CBC        36.9640   34.0640   59.7920 C.ar      1 H1N501      0.0000 
     24 CBB        36.8190   33.1790   60.8580 C.ar      1 H1N501      0.0000 
     25 CBJ        37.2280   35.7790   58.2050 C.2       1 H1N501      0.0000 
     26 OBK        37.3820   36.8660   57.6560 O.2       1 H1N501      0.0000 
     27 NBI        36.8590   34.6350   57.5850 N.am      1 H1N501      0.0000 
     28 CBH        36.6790   33.5990   58.4920 C.ar      1 H1N501      0.0000 
     29 CBG        36.2540   32.3000   58.2590 C.ar      1 H1N501      0.0000 
     30 CBF        36.1230   31.4350   59.3310 C.ar      1 H1N501      0.0000 
     31 CBA        36.3950   31.8660   60.6280 C.ar      1 H1N501      0.0000 
     32 NAZ        36.2260   30.9220   61.6900 N.pl3     1 H1N501      0.0000 
     33 SAY        36.4280   31.1550   63.2800 S.o2      1 H1N501      0.0000 
     34 OBE        37.6680   31.8300   63.5140 O.2       1 H1N501      0.0000 
     35 OAU        36.1870   29.8910   63.9080 O.2       1 H1N501      0.0000 
     36 CAX        35.0570   32.2240   63.5730 C.3       1 H1N501      0.0000 
     37 CAT        35.0600   32.7620   64.9810 C.3       1 H1N501      0.0000 
@<TRIPOS>BOND
     1    1    2 1    
     2    1    6 1    
     3    2    3 1    
     4    3    4 1    
     5    4    5 1    
     6    5    6 1    
     7    6    7 1    
     8    7    8 1    
     9    8    9 ar   
    10    8   11 ar   
    11    9   10 ar   
    12   10   13 ar   
    13   11   12 ar   
    14   12   13 ar   
    15   13   14 1    
    16   14   15 2    
    17   15   16 1    
    18   15   22 1    
    19   16   17 ar   
    20   16   21 ar   
    21   17   18 ar   
    22   18   19 ar   
    23   19   20 ar   
    24   20   21 ar   
    25   22   23 1    
    26   22   25 1    
    27   23   24 ar   
    28   23   28 ar   
    29   24   31 ar   
    30   25   26 2    
    31   25   27 am   
    32   27   28 1    
    33   28   29 ar   
    34   29   30 ar   
    35   30   31 ar   
    36   31   32 1    
    37   32   33 1    
    38   33   34 2    
    39   33   35 2    
    40   33   36 1    
    41   36   37 1    
@<TRIPOS>SUBSTRUCTURE
     1 H1N501      1 GROUP   
@<TRIPOS>SET

