#    Name: 6pfb_5_MTX
#    Modification time : Fri May 22 19:32:28 2020

@<TRIPOS>MOLECULE
6pfb_5_MTX
   33    35     1     0     0
SMALL
NO_CHARGES


@<TRIPOS>ATOM
      1 N1         79.4800   73.3180  302.0580 N.ar      1 MTX604      0.0000 
      2 C2         79.9920   74.0050  303.0940 C.ar      1 MTX604      0.0000 
      3 NA2        80.0250   73.3790  304.3900 N.pl3     1 MTX604      0.0000 
      4 N3         80.4720   75.2520  302.9610 N.ar      1 MTX604      0.0000 
      5 C4         80.4540   75.8660  301.7590 C.ar      1 MTX604      0.0000 
      6 NA4        80.9600   77.1930  301.5950 N.pl3     1 MTX604      0.0000 
      7 C4A        79.9260   75.1820  300.6400 C.ar      1 MTX604      0.0000 
      8 N5         79.8900   75.7640  299.4080 N.ar      1 MTX604      0.0000 
      9 C6         79.3800   75.0720  298.3690 C.ar      1 MTX604      0.0000 
     10 C7         78.8780   73.7740  298.5220 C.ar      1 MTX604      0.0000 
     11 N8         78.9230   73.2110  299.7490 N.ar      1 MTX604      0.0000 
     12 C8A        79.4420   73.9000  300.8180 C.ar      1 MTX604      0.0000 
     13 C9         79.3500   75.7510  297.0240 C.3       1 MTX604      0.0000 
     14 N10        78.4480   76.8800  296.9990 N.pl3     1 MTX604      0.0000 
     15 CM         78.9810   78.2100  296.8510 C.3       1 MTX604      0.0000 
     16 C11        74.2890   76.1750  297.5030 C.ar      1 MTX604      0.0000 
     17 C12        75.0690   75.2990  296.7540 C.ar      1 MTX604      0.0000 
     18 C13        76.4320   75.5370  296.5940 C.ar      1 MTX604      0.0000 
     19 C14        77.0200   76.6540  297.1730 C.ar      1 MTX604      0.0000 
     20 C15        76.2440   77.5290  297.9290 C.ar      1 MTX604      0.0000 
     21 C16        74.8800   77.2870  298.0900 C.ar      1 MTX604      0.0000 
     22 C          72.8110   75.9160  297.6900 C.2       1 MTX604      0.0000 
     23 O          72.1960   75.2850  296.8460 O.2       1 MTX604      0.0000 
     24 N          72.1200   76.4030  298.8650 N.am      1 MTX604      0.0000 
     25 CA         70.7160   76.1540  299.0610 C.3       1 MTX604      0.0000 
     26 CT         70.2090   77.1270  300.0520 C.2       1 MTX604      0.0000 
     27 O1         71.0090   77.9370  300.5880 O.co2     1 MTX604      0.0000 
     28 O2         68.9790   77.1460  300.3620 O.co2     1 MTX604      0.0000 
     29 CB         70.5790   74.7940  299.6550 C.3       1 MTX604      0.0000 
     30 CG         69.5290   73.8480  299.1540 C.3       1 MTX604      0.0000 
     31 CD         69.2210   72.6820  300.0420 C.2       1 MTX604      0.0000 
     32 OE1        68.4890   72.8390  301.0450 O.co2     1 MTX604      0.0000 
     33 OE2        69.5920   71.5250  299.7150 O.co2     1 MTX604      0.0000 
@<TRIPOS>BOND
     1    1    2 ar   
     2    1   12 ar   
     3    2    3 1    
     4    2    4 ar   
     5    4    5 ar   
     6    5    6 1    
     7    5    7 ar   
     8    7    8 ar   
     9    7   12 ar   
    10    8    9 ar   
    11    9   10 ar   
    12    9   13 1    
    13   10   11 ar   
    14   11   12 ar   
    15   13   14 1    
    16   14   15 1    
    17   14   19 1    
    18   16   17 ar   
    19   16   21 ar   
    20   16   22 1    
    21   17   18 ar   
    22   18   19 ar   
    23   19   20 ar   
    24   20   21 ar   
    25   22   23 2    
    26   22   24 am   
    27   24   25 1    
    28   25   26 1    
    29   25   29 1    
    30   26   27 ar   
    31   26   28 ar   
    32   29   30 1    
    33   30   31 1    
    34   31   32 ar   
    35   31   33 ar   
@<TRIPOS>SUBSTRUCTURE
     1 MTX604      1 GROUP   
@<TRIPOS>SET

