#    Name: 6pfb_1_MTX
#    Modification time : Fri May 22 19:31:58 2020

@<TRIPOS>MOLECULE
6pfb_1_MTX
   33    35     1     0     0
SMALL
NO_CHARGES


@<TRIPOS>ATOM
      1 N1         28.9690   67.7270  247.8590 N.ar      1 MTX604      0.0000 
      2 C2         27.6850   67.5640  247.4990 C.ar      1 MTX604      0.0000 
      3 NA2        26.9800   68.6830  246.9290 N.pl3     1 MTX604      0.0000 
      4 N3         27.0420   66.3950  247.6510 N.ar      1 MTX604      0.0000 
      5 C4         27.6780   65.3290  248.1820 C.ar      1 MTX604      0.0000 
      6 NA4        27.0130   64.0760  248.3540 N.pl3     1 MTX604      0.0000 
      7 C4A        29.0290   65.4540  248.5770 C.ar      1 MTX604      0.0000 
      8 N5         29.7100   64.4030  249.1180 N.ar      1 MTX604      0.0000 
      9 C6         31.0010   64.5740  249.4730 C.ar      1 MTX604      0.0000 
     10 C7         31.6550   65.7990  249.3140 C.ar      1 MTX604      0.0000 
     11 N8         30.9670   66.8290  248.7750 N.ar      1 MTX604      0.0000 
     12 C8A        29.6550   66.6740  248.4030 C.ar      1 MTX604      0.0000 
     13 C9         31.7410   63.4080  250.0770 C.3       1 MTX604      0.0000 
     14 N10        31.2210   63.0300  251.3720 N.pl3     1 MTX604      0.0000 
     15 CM         30.5950   61.7470  251.5580 C.3       1 MTX604      0.0000 
     16 C11        31.4710   65.7860  254.5800 C.ar      1 MTX604      0.0000 
     17 C12        32.5150   65.6840  253.6650 C.ar      1 MTX604      0.0000 
     18 C13        32.4310   64.7750  252.6130 C.ar      1 MTX604      0.0000 
     19 C14        31.3070   63.9710  252.4750 C.ar      1 MTX604      0.0000 
     20 C15        30.2610   64.0760  253.3860 C.ar      1 MTX604      0.0000 
     21 C16        30.3470   64.9840  254.4370 C.ar      1 MTX604      0.0000 
     22 C          31.5330   66.7640  255.7280 C.2       1 MTX604      0.0000 
     23 O          32.6130   67.1120  256.1760 O.2       1 MTX604      0.0000 
     24 N          30.3130   67.2910  256.2990 N.am      1 MTX604      0.0000 
     25 CA         30.3400   68.2220  257.3940 C.3       1 MTX604      0.0000 
     26 CT         29.0500   68.1040  258.1070 C.2       1 MTX604      0.0000 
     27 O1         28.1570   67.3460  257.6460 O.co2     1 MTX604      0.0000 
     28 O2         28.8400   68.7610  259.1720 O.co2     1 MTX604      0.0000 
     29 CB         30.4360   69.6030  256.8420 C.3       1 MTX604      0.0000 
     30 CG         31.1390   70.6740  257.6210 C.3       1 MTX604      0.0000 
     31 CD         30.8640   72.0850  257.2030 C.2       1 MTX604      0.0000 
     32 OE1        29.8000   72.6410  257.5580 O.co2     1 MTX604      0.0000 
     33 OE2        31.7550   72.7580  256.6230 O.co2     1 MTX604      0.0000 
@<TRIPOS>BOND
     1    1    2 ar   
     2    1   12 ar   
     3    2    3 1    
     4    2    4 ar   
     5    4    5 ar   
     6    5    6 1    
     7    5    7 ar   
     8    7    8 ar   
     9    7   12 ar   
    10    8    9 ar   
    11    9   10 ar   
    12    9   13 1    
    13   10   11 ar   
    14   11   12 ar   
    15   13   14 1    
    16   14   15 1    
    17   14   19 1    
    18   16   17 ar   
    19   16   21 ar   
    20   16   22 1    
    21   17   18 ar   
    22   18   19 ar   
    23   19   20 ar   
    24   20   21 ar   
    25   22   23 2    
    26   22   24 am   
    27   24   25 1    
    28   25   26 1    
    29   25   29 1    
    30   26   27 ar   
    31   26   28 ar   
    32   29   30 1    
    33   30   31 1    
    34   31   32 ar   
    35   31   33 ar   
@<TRIPOS>SUBSTRUCTURE
     1 MTX604      1 GROUP   
@<TRIPOS>SET

