#    Name: 6pfb_4_MTX
#    Modification time : Fri May 22 19:32:20 2020

@<TRIPOS>MOLECULE
6pfb_4_MTX
   33    35     1     0     0
SMALL
NO_CHARGES


@<TRIPOS>ATOM
      1 N1         52.3530   56.9390  305.9320 N.ar      1 MTX604      0.0000 
      2 C2         51.3070   57.5580  305.3590 C.ar      1 MTX604      0.0000 
      3 NA2        51.4520   58.0690  304.0200 N.pl3     1 MTX604      0.0000 
      4 N3         50.1340   57.7150  305.9930 N.ar      1 MTX604      0.0000 
      5 C4         49.9650   57.2470  307.2480 C.ar      1 MTX604      0.0000 
      6 NA4        48.7250   57.4040  307.9380 N.pl3     1 MTX604      0.0000 
      7 C4A        51.0370   56.5900  307.8930 C.ar      1 MTX604      0.0000 
      8 N5         50.9100   56.1010  309.1610 N.ar      1 MTX604      0.0000 
      9 C6         51.9650   55.4770  309.7270 C.ar      1 MTX604      0.0000 
     10 C7         53.1830   55.3250  309.0570 C.ar      1 MTX604      0.0000 
     11 N8         53.2890   55.8150  307.8030 N.ar      1 MTX604      0.0000 
     12 C8A        52.2280   56.4490  307.2060 C.ar      1 MTX604      0.0000 
     13 C9         51.8200   54.9490  311.1310 C.3       1 MTX604      0.0000 
     14 N10        51.6550   56.0050  312.1050 N.pl3     1 MTX604      0.0000 
     15 CM         50.4310   56.1270  312.8500 C.3       1 MTX604      0.0000 
     16 C11        54.7870   58.7980  312.6880 C.ar      1 MTX604      0.0000 
     17 C12        55.0770   57.4570  312.4490 C.ar      1 MTX604      0.0000 
     18 C13        54.0470   56.5410  312.2600 C.ar      1 MTX604      0.0000 
     19 C14        52.7270   56.9650  312.3080 C.ar      1 MTX604      0.0000 
     20 C15        52.4310   58.3040  312.5410 C.ar      1 MTX604      0.0000 
     21 C16        53.4640   59.2190  312.7320 C.ar      1 MTX604      0.0000 
     22 C          55.9010   59.7950  312.8920 C.2       1 MTX604      0.0000 
     23 O          56.9730   59.4110  313.3300 O.2       1 MTX604      0.0000 
     24 N          55.7270   61.1960  312.5760 N.am      1 MTX604      0.0000 
     25 CA         56.8120   62.1190  312.7820 C.3       1 MTX604      0.0000 
     26 CT         56.2540   63.4840  312.9070 C.2       1 MTX604      0.0000 
     27 O1         55.3580   63.8660  312.1110 O.co2     1 MTX604      0.0000 
     28 O2         56.6750   64.2660  313.8140 O.co2     1 MTX604      0.0000 
     29 CB         57.6920   62.0850  311.5800 C.3       1 MTX604      0.0000 
     30 CG         59.1700   62.2920  311.7220 C.3       1 MTX604      0.0000 
     31 CD         59.9120   62.6270  310.4650 C.2       1 MTX604      0.0000 
     32 OE1        59.8630   63.8000  310.0300 O.co2     1 MTX604      0.0000 
     33 OE2        60.2400   61.7020  309.6780 O.co2     1 MTX604      0.0000 
@<TRIPOS>BOND
     1    1    2 ar   
     2    1   12 ar   
     3    2    3 1    
     4    2    4 ar   
     5    4    5 ar   
     6    5    6 1    
     7    5    7 ar   
     8    7    8 ar   
     9    7   12 ar   
    10    8    9 ar   
    11    9   10 ar   
    12    9   13 1    
    13   10   11 ar   
    14   11   12 ar   
    15   13   14 1    
    16   14   15 1    
    17   14   19 1    
    18   16   17 ar   
    19   16   21 ar   
    20   16   22 1    
    21   17   18 ar   
    22   18   19 ar   
    23   19   20 ar   
    24   20   21 ar   
    25   22   23 2    
    26   22   24 am   
    27   24   25 1    
    28   25   26 1    
    29   25   29 1    
    30   26   27 ar   
    31   26   28 ar   
    32   29   30 1    
    33   30   31 1    
    34   31   32 ar   
    35   31   33 ar   
@<TRIPOS>SUBSTRUCTURE
     1 MTX604      1 GROUP   
@<TRIPOS>SET

