#    Name: 6pfb_6_NDP
#    Modification time : Fri May 22 19:32:33 2020

@<TRIPOS>MOLECULE
6pfb_6_NDP
   48    52     1     0     1
SMALL
NO_CHARGES


@<TRIPOS>ATOM
      1 PA         32.4810   53.8210  246.7410 P.3       1 NDP601      0.0000 
      2 O1A        31.2920   53.6770  245.8130 O.co2     1 NDP601      0.0000 
      3 O2A        32.3290   55.0680  247.5650 O.co2     1 NDP601      0.0000 
      4 O5B        32.5380   52.6190  247.6890 O.3       1 NDP601      0.0000 
      5 C5B        32.5850   51.3210  247.1670 C.3       1 NDP601      0.0000 
      6 C4B        32.7570   50.2190  248.1230 C.3       1 NDP601      0.0000 
      7 O4B        31.5390   49.9500  248.7850 O.3       1 NDP601      0.0000 
      8 C3B        33.1160   48.9670  247.4540 C.3       1 NDP601      0.0000 
      9 O3B        34.4840   48.8560  247.2800 O.3       1 NDP601      0.0000 
     10 C2B        32.6220   47.9850  248.3820 C.3       1 NDP601      0.0000 
     11 O2B        33.4390   47.9400  249.5160 O.3       1 NDP601      0.0000 
     12 C1B        31.3420   48.5470  248.7640 C.3       1 NDP601      0.0000 
     13 N9A        30.3350   48.2000  247.8200 N.pl3     1 NDP601      0.0000 
     14 C8A        30.0160   48.8900  246.6970 C.2       1 NDP601      0.0000 
     15 N7A        29.0100   48.2640  246.0570 N.2       1 NDP601      0.0000 
     16 C5A        28.6650   47.1480  246.7830 C.ar      1 NDP601      0.0000 
     17 C6A        27.7050   46.1180  246.6270 C.ar      1 NDP601      0.0000 
     18 N6A        26.7980   46.1280  245.4510 N.pl3     1 NDP601      0.0000 
     19 N1A        27.6130   45.1230  247.5510 N.ar      1 NDP601      0.0000 
     20 C2A        28.4530   45.1320  248.6210 C.ar      1 NDP601      0.0000 
     21 N3A        29.3730   46.0810  248.8110 N.ar      1 NDP601      0.0000 
     22 C4A        29.5050   47.1130  247.9000 C.ar      1 NDP601      0.0000 
     23 O3         33.8360   53.9100  245.9060 O.3       1 NDP601      0.0000 
     24 PN         34.0170   54.9770  244.7410 P.3       1 NDP601      0.0000 
     25 O1N        35.4370   54.9040  244.1630 O.co2     1 NDP601      0.0000 
     26 O2N        33.0230   54.6840  243.6380 O.co2     1 NDP601      0.0000 
     27 O5D        33.7590   56.4570  245.3500 O.3       1 NDP601      0.0000 
     28 C5D        34.8020   57.1390  245.9950 C.3       1 NDP601      0.0000 
     29 C4D        35.2930   58.3530  245.3660 C.3       1 NDP601      0.0000 
     30 O4D        34.1860   59.1860  245.0290 O.3       1 NDP601      0.0000 
     31 C3D        36.1350   59.1280  246.2860 C.3       1 NDP601      0.0000 
     32 O3D        37.1150   59.8060  245.5700 O.3       1 NDP601      0.0000 
     33 C2D        35.2420   60.0730  246.8630 C.3       1 NDP601      0.0000 
     34 O2D        35.9400   61.2170  247.2480 O.3       1 NDP601      0.0000 
     35 C1D        34.3080   60.3630  245.7550 C.3       1 NDP601      0.0000 
     36 N1N        33.0430   60.8030  246.2590 N.pl3     1 NDP601      0.0000 
     37 C2N        32.5110   61.9260  245.7460 C.2       1 NDP601      0.0000 
     38 C3N        31.2730   62.4060  246.1960 C.2       1 NDP601      0.0000 
     39 C7N        30.7130   63.6800  245.5880 C.2       1 NDP601      0.0000 
     40 O7N        29.5450   64.0110  245.8420 O.2       1 NDP601      0.0000 
     41 N7N        31.5110   64.5100  244.7290 N.am      1 NDP601      0.0000 
     42 C4N        30.5770   61.7070  247.1990 C.3       1 NDP601      0.0000 
     43 C5N        31.1610   60.5410  247.7110 C.2       1 NDP601      0.0000 
     44 C6N        32.3930   60.0960  247.2340 C.2       1 NDP601      0.0000 
     45 P2B        33.9280   46.5840  250.1140 P.3       1 NDP601      0.0000 
     46 O1X        35.4020   46.3790  249.7210 O.co2     1 NDP601      0.0000 
     47 O2X        33.8050   46.6280  251.5810 O.co2     1 NDP601      0.0000 
     48 O3X        33.1020   45.4490  249.6010 O.co2     1 NDP601      0.0000 
@<TRIPOS>BOND
     1    1    2 ar   
     2    1    3 ar   
     3    1    4 1    
     4    1   23 1    
     5    4    5 1    
     6    5    6 1    
     7    6    7 1    
     8    6    8 1    
     9    7   12 1    
    10    8    9 1    
    11    8   10 1    
    12   10   11 1    
    13   10   12 1    
    14   11   45 1    
    15   12   13 1    
    16   13   14 1    
    17   13   22 1    
    18   14   15 2    
    19   15   16 1    
    20   16   17 ar   
    21   16   22 ar   
    22   17   18 1    
    23   17   19 ar   
    24   19   20 ar   
    25   20   21 ar   
    26   21   22 ar   
    27   23   24 1    
    28   24   25 ar   
    29   24   26 ar   
    30   24   27 1    
    31   27   28 1    
    32   28   29 1    
    33   29   30 1    
    34   29   31 1    
    35   30   35 1    
    36   31   32 1    
    37   31   33 1    
    38   33   34 1    
    39   33   35 1    
    40   35   36 1    
    41   36   37 1    
    42   36   44 1    
    43   37   38 2    
    44   38   39 1    
    45   38   42 1    
    46   39   40 2    
    47   39   41 am   
    48   42   43 1    
    49   43   44 2    
    50   45   46 ar   
    51   45   47 ar   
    52   45   48 ar   
@<TRIPOS>SUBSTRUCTURE
     1 NDP601      1 GROUP   
@<TRIPOS>SET
ATOM$ORANGE STATIC     ATOMS   COLORGROUP SYSTEM 
42 5 5 6 6 8 8 10 10 12 12 14 14 16 16 17 17 20 \
20 22 22 28 28 29 29 31 31 33 33 35 35 37 37 38 38 39 \
39 42 42 43 43 44 44 

