#    Name: 6pfb_2_MTX
#    Modification time : Fri May 22 19:32:06 2020

@<TRIPOS>MOLECULE
6pfb_2_MTX
   33    35     1     0     0
SMALL
NO_CHARGES


@<TRIPOS>ATOM
      1 N1        -23.8320   90.6950  235.8180 N.ar      1 MTX604      0.0000 
      2 C2        -23.0890   90.0010  236.6980 C.ar      1 MTX604      0.0000 
      3 NA2       -21.6590   90.1690  236.6790 N.pl3     1 MTX604      0.0000 
      4 N3        -23.6360   89.1590  237.5890 N.ar      1 MTX604      0.0000 
      5 C4        -24.9740   88.9810  237.6310 C.ar      1 MTX604      0.0000 
      6 NA4       -25.5740   88.0900  238.5720 N.pl3     1 MTX604      0.0000 
      7 C4A       -25.7960   89.6900  236.7250 C.ar      1 MTX604      0.0000 
      8 N5        -27.1520   89.5400  236.7300 N.ar      1 MTX604      0.0000 
      9 C6        -27.8930   90.2440  235.8490 C.ar      1 MTX604      0.0000 
     10 C7        -27.3070   91.1120  234.9220 C.ar      1 MTX604      0.0000 
     11 N8        -25.9640   91.2500  234.9300 N.ar      1 MTX604      0.0000 
     12 C8A       -25.1940   90.5470  235.8230 C.ar      1 MTX604      0.0000 
     13 C9        -29.3900   90.0630  235.8610 C.3       1 MTX604      0.0000 
     14 N10       -29.7950   88.7370  235.4470 N.pl3     1 MTX604      0.0000 
     15 CM        -30.4390   87.8510  236.3820 C.3       1 MTX604      0.0000 
     16 C11       -28.9470   87.4820  231.4870 C.ar      1 MTX604      0.0000 
     17 C12       -29.3420   88.7930  231.7360 C.ar      1 MTX604      0.0000 
     18 C13       -29.6220   89.2010  233.0380 C.ar      1 MTX604      0.0000 
     19 C14       -29.5100   88.3010  234.0900 C.ar      1 MTX604      0.0000 
     20 C15       -29.1080   86.9930  233.8440 C.ar      1 MTX604      0.0000 
     21 C16       -28.8280   86.5870  232.5410 C.ar      1 MTX604      0.0000 
     22 C         -28.6300   87.0220  230.0840 C.2       1 MTX604      0.0000 
     23 O         -29.1550   87.5710  229.1290 O.2       1 MTX604      0.0000 
     24 N         -27.7000   85.9360  229.8690 N.am      1 MTX604      0.0000 
     25 CA        -27.3700   85.4840  228.5450 C.3       1 MTX604      0.0000 
     26 CT        -26.8040   84.1240  228.6630 C.2       1 MTX604      0.0000 
     27 O1        -26.5210   83.6740  229.8040 O.co2     1 MTX604      0.0000 
     28 O2        -26.6030   83.4170  227.6290 O.co2     1 MTX604      0.0000 
     29 CB        -26.2970   86.3760  228.0240 C.3       1 MTX604      0.0000 
     30 CG        -26.3100   86.8250  226.5940 C.3       1 MTX604      0.0000 
     31 CD        -25.0250   87.3890  226.0730 C.2       1 MTX604      0.0000 
     32 OE1       -24.0950   86.6200  225.7400 O.co2     1 MTX604      0.0000 
     33 OE2       -24.8790   88.6330  225.9600 O.co2     1 MTX604      0.0000 
@<TRIPOS>BOND
     1    1    2 ar   
     2    1   12 ar   
     3    2    3 1    
     4    2    4 ar   
     5    4    5 ar   
     6    5    6 1    
     7    5    7 ar   
     8    7    8 ar   
     9    7   12 ar   
    10    8    9 ar   
    11    9   10 ar   
    12    9   13 1    
    13   10   11 ar   
    14   11   12 ar   
    15   13   14 1    
    16   14   15 1    
    17   14   19 1    
    18   16   17 ar   
    19   16   21 ar   
    20   16   22 1    
    21   17   18 ar   
    22   18   19 ar   
    23   19   20 ar   
    24   20   21 ar   
    25   22   23 2    
    26   22   24 am   
    27   24   25 1    
    28   25   26 1    
    29   25   29 1    
    30   26   27 ar   
    31   26   28 ar   
    32   29   30 1    
    33   30   31 1    
    34   31   32 ar   
    35   31   33 ar   
@<TRIPOS>SUBSTRUCTURE
     1 MTX604      1 GROUP   
@<TRIPOS>SET

