#    Name: 6pfb_3_MTX
#    Modification time : Fri May 22 19:32:13 2020

@<TRIPOS>MOLECULE
6pfb_3_MTX
   33    35     1     0     0
SMALL
NO_CHARGES


@<TRIPOS>ATOM
      1 N1         32.6590   94.4110  264.5100 N.ar      1 MTX604      0.0000 
      2 C2         32.8950   94.2490  265.8240 C.ar      1 MTX604      0.0000 
      3 NA2        33.8710   93.2720  266.2350 N.pl3     1 MTX604      0.0000 
      4 N3         32.2540   94.9650  266.7610 N.ar      1 MTX604      0.0000 
      5 C4         31.3350   95.8880  266.4040 C.ar      1 MTX604      0.0000 
      6 NA4        30.6410   96.6600  267.3860 N.pl3     1 MTX604      0.0000 
      7 C4A        31.0520   96.0930  265.0340 C.ar      1 MTX604      0.0000 
      8 N5         30.1310   97.0150  264.6300 N.ar      1 MTX604      0.0000 
      9 C6         29.9000   97.1770  263.3100 C.ar      1 MTX604      0.0000 
     10 C7         30.5720   96.4200  262.3460 C.ar      1 MTX604      0.0000 
     11 N8         31.4820   95.5120  262.7630 N.ar      1 MTX604      0.0000 
     12 C8A        31.7340   95.3360  264.1010 C.ar      1 MTX604      0.0000 
     13 C9         28.8720   98.1970  262.8880 C.3       1 MTX604      0.0000 
     14 N10        27.5300   97.8340  263.2870 N.pl3     1 MTX604      0.0000 
     15 CM         26.8300   98.6310  264.2620 C.3       1 MTX604      0.0000 
     16 C11        25.7580   94.3500  261.6290 C.ar      1 MTX604      0.0000 
     17 C12        26.5410   95.1850  260.8370 C.ar      1 MTX604      0.0000 
     18 C13        27.1220   96.3270  261.3860 C.ar      1 MTX604      0.0000 
     19 C14        26.9140   96.6430  262.7220 C.ar      1 MTX604      0.0000 
     20 C15        26.1360   95.8070  263.5170 C.ar      1 MTX604      0.0000 
     21 C16        25.5600   94.6630  262.9680 C.ar      1 MTX604      0.0000 
     22 C          25.1290   93.1030  261.0540 C.2       1 MTX604      0.0000 
     23 O          24.8560   93.0490  259.8660 O.2       1 MTX604      0.0000 
     24 N          24.8470   91.9680  261.9070 N.am      1 MTX604      0.0000 
     25 CA         24.2530   90.7650  261.3870 C.3       1 MTX604      0.0000 
     26 CT         23.5310   90.1100  262.4980 C.2       1 MTX604      0.0000 
     27 O1         23.5140   90.6640  263.6270 O.co2     1 MTX604      0.0000 
     28 O2         22.9390   89.0020  262.3190 O.co2     1 MTX604      0.0000 
     29 CB         25.3500   89.8520  260.9610 C.3       1 MTX604      0.0000 
     30 CG         25.2490   89.1060  259.6650 C.3       1 MTX604      0.0000 
     31 CD         26.1810   87.9470  259.4940 C.2       1 MTX604      0.0000 
     32 OE1        25.9250   86.8530  260.0470 O.co2     1 MTX604      0.0000 
     33 OE2        27.2310   88.0720  258.8120 O.co2     1 MTX604      0.0000 
@<TRIPOS>BOND
     1    1    2 ar   
     2    1   12 ar   
     3    2    3 1    
     4    2    4 ar   
     5    4    5 ar   
     6    5    6 1    
     7    5    7 ar   
     8    7    8 ar   
     9    7   12 ar   
    10    8    9 ar   
    11    9   10 ar   
    12    9   13 1    
    13   10   11 ar   
    14   11   12 ar   
    15   13   14 1    
    16   14   15 1    
    17   14   19 1    
    18   16   17 ar   
    19   16   21 ar   
    20   16   22 1    
    21   17   18 ar   
    22   18   19 ar   
    23   19   20 ar   
    24   20   21 ar   
    25   22   23 2    
    26   22   24 am   
    27   24   25 1    
    28   25   26 1    
    29   25   29 1    
    30   26   27 ar   
    31   26   28 ar   
    32   29   30 1    
    33   30   31 1    
    34   31   32 ar   
    35   31   33 ar   
@<TRIPOS>SUBSTRUCTURE
     1 MTX604      1 GROUP   
@<TRIPOS>SET

