#    Name: 6pfb_5_NDP
#    Modification time : Fri May 22 19:32:40 2020

@<TRIPOS>MOLECULE
6pfb_5_NDP
   48    52     1     0     1
SMALL
NO_CHARGES


@<TRIPOS>ATOM
      1 PA         44.4080   49.3550  314.9830 P.3       1 NDP601      0.0000 
      2 O1A        43.2040   49.6620  314.1180 O.co2     1 NDP601      0.0000 
      3 O2A        45.5010   50.3440  314.6980 O.co2     1 NDP601      0.0000 
      4 O5B        44.0240   49.4700  316.4610 O.3       1 NDP601      0.0000 
      5 C5B        42.9570   48.7050  316.9450 C.3       1 NDP601      0.0000 
      6 C4B        42.6860   48.7430  318.3880 C.3       1 NDP601      0.0000 
      7 O4B        41.9520   49.9050  318.7110 O.3       1 NDP601      0.0000 
      8 C3B        41.8540   47.6100  318.7990 C.3       1 NDP601      0.0000 
      9 O3B        42.6240   46.5370  319.2130 O.3       1 NDP601      0.0000 
     10 C2B        41.0810   48.1550  319.8860 C.3       1 NDP601      0.0000 
     11 O2B        41.8600   48.2120  321.0460 O.3       1 NDP601      0.0000 
     12 C1B        40.8070   49.5080  319.4420 C.3       1 NDP601      0.0000 
     13 N9A        39.6460   49.5570  318.6170 N.pl3     1 NDP601      0.0000 
     14 C8A        39.5380   49.1160  317.3390 C.2       1 NDP601      0.0000 
     15 N7A        38.2890   49.3410  316.8870 N.2       1 NDP601      0.0000 
     16 C5A        37.5720   49.9460  317.8920 C.ar      1 NDP601      0.0000 
     17 C6A        36.2400   50.4160  318.0200 C.ar      1 NDP601      0.0000 
     18 N6A        35.2990   50.2850  316.8780 N.pl3     1 NDP601      0.0000 
     19 N1A        35.8250   50.9850  319.1830 N.ar      1 NDP601      0.0000 
     20 C2A        36.7020   51.0960  320.2170 C.ar      1 NDP601      0.0000 
     21 N3A        37.9650   50.6690  320.1450 N.ar      1 NDP601      0.0000 
     22 C4A        38.4340   50.0830  318.9830 C.ar      1 NDP601      0.0000 
     23 O3         44.9410   47.8780  314.7080 O.3       1 NDP601      0.0000 
     24 PN         45.6540   47.4730  313.3450 P.3       1 NDP601      0.0000 
     25 O1N        46.1230   46.0130  313.4120 O.co2     1 NDP601      0.0000 
     26 O2N        44.6740   47.6230  312.2020 O.co2     1 NDP601      0.0000 
     27 O5D        46.9410   48.4300  313.1140 O.3       1 NDP601      0.0000 
     28 C5D        48.2300   47.9240  313.3420 C.3       1 NDP601      0.0000 
     29 C4D        49.1090   47.7970  312.1920 C.3       1 NDP601      0.0000 
     30 O4D        48.7190   48.7380  311.1940 O.3       1 NDP601      0.0000 
     31 C3D        50.5030   48.1020  312.5450 C.3       1 NDP601      0.0000 
     32 O3D        51.3570   47.2170  311.8970 O.3       1 NDP601      0.0000 
     33 C2D        50.7260   49.4120  312.0370 C.3       1 NDP601      0.0000 
     34 O2D        52.0680   49.5700  311.6950 O.3       1 NDP601      0.0000 
     35 C1D        49.8580   49.4460  310.8430 C.3       1 NDP601      0.0000 
     36 N1N        49.5540   50.7930  310.4640 N.pl3     1 NDP601      0.0000 
     37 C2N        49.8510   51.1790  309.2120 C.2       1 NDP601      0.0000 
     38 C3N        49.5770   52.4830  308.7770 C.2       1 NDP601      0.0000 
     39 C7N        49.9330   52.8700  307.3520 C.2       1 NDP601      0.0000 
     40 O7N        49.5330   53.9540  306.8980 O.2       1 NDP601      0.0000 
     41 N7N        50.7270   52.0080  306.5220 N.am      1 NDP601      0.0000 
     42 C4N        48.9830   53.4020  309.6610 C.3       1 NDP601      0.0000 
     43 C5N        48.6870   52.9650  310.9590 C.2       1 NDP601      0.0000 
     44 C6N        48.9750   51.6590  311.3520 C.2       1 NDP601      0.0000 
     45 P2B        41.2160   48.0620  322.4590 P.3       1 NDP601      0.0000 
     46 O1X        41.5200   46.6480  322.9900 O.co2     1 NDP601      0.0000 
     47 O2X        41.7890   49.0690  323.3670 O.co2     1 NDP601      0.0000 
     48 O3X        39.7370   48.2700  322.3910 O.co2     1 NDP601      0.0000 
@<TRIPOS>BOND
     1    1    2 ar   
     2    1    3 ar   
     3    1    4 1    
     4    1   23 1    
     5    4    5 1    
     6    5    6 1    
     7    6    7 1    
     8    6    8 1    
     9    7   12 1    
    10    8    9 1    
    11    8   10 1    
    12   10   11 1    
    13   10   12 1    
    14   11   45 1    
    15   12   13 1    
    16   13   14 1    
    17   13   22 1    
    18   14   15 2    
    19   15   16 1    
    20   16   17 ar   
    21   16   22 ar   
    22   17   18 1    
    23   17   19 ar   
    24   19   20 ar   
    25   20   21 ar   
    26   21   22 ar   
    27   23   24 1    
    28   24   25 ar   
    29   24   26 ar   
    30   24   27 1    
    31   27   28 1    
    32   28   29 1    
    33   29   30 1    
    34   29   31 1    
    35   30   35 1    
    36   31   32 1    
    37   31   33 1    
    38   33   34 1    
    39   33   35 1    
    40   35   36 1    
    41   36   37 1    
    42   36   44 1    
    43   37   38 2    
    44   38   39 1    
    45   38   42 1    
    46   39   40 2    
    47   39   41 am   
    48   42   43 1    
    49   43   44 2    
    50   45   46 ar   
    51   45   47 ar   
    52   45   48 ar   
@<TRIPOS>SUBSTRUCTURE
     1 NDP601      1 GROUP   
@<TRIPOS>SET
ATOM$ORANGE STATIC     ATOMS   COLORGROUP SYSTEM 
42 5 5 6 6 8 8 10 10 12 12 14 14 16 16 17 17 20 \
20 22 22 28 28 29 29 31 31 33 33 35 35 37 37 38 38 39 \
39 42 42 43 43 44 44 

