#    Name: 6jsj_1_GDP
#    Modification time : Fri May 22 19:32:25 2020

@<TRIPOS>MOLECULE
6jsj_1_GDP
   28    30     1     0     1
SMALL
NO_CHARGES


@<TRIPOS>ATOM
      1 PB         14.6780  104.1870  228.7880 P.3       1 GDP701      0.0000 
      2 O1B        15.1590  102.8220  228.4630 O.co2     1 GDP701      0.0000 
      3 O2B        15.4060  104.8830  229.8720 O.co2     1 GDP701      0.0000 
      4 O3B        13.2020  104.3080  228.8700 O.co2     1 GDP701      0.0000 
      5 O3A        15.0640  105.0300  227.4150 O.3       1 GDP701      0.0000 
      6 PA         16.0910  106.3070  227.2840 P.3       1 GDP701      0.0000 
      7 O1A        16.0700  106.7570  225.8790 O.co2     1 GDP701      0.0000 
      8 O2A        15.8010  107.3030  228.3430 O.co2     1 GDP701      0.0000 
      9 O5'        17.5190  105.5850  227.5450 O.3       1 GDP701      0.0000 
     10 C5'        18.6510  106.2710  228.1070 C.3       1 GDP701      0.0000 
     11 C4'        19.6850  106.6390  227.0350 C.3       1 GDP701      0.0000 
     12 O4'        19.7290  105.7170  225.9190 O.3       1 GDP701      0.0000 
     13 C3'        19.3280  108.0010  226.4540 C.3       1 GDP701      0.0000 
     14 O3'        20.3570  108.9420  226.8110 O.3       1 GDP701      0.0000 
     15 C2'        19.2390  107.7550  224.9420 C.3       1 GDP701      0.0000 
     16 O2'        19.7800  108.8300  224.1510 O.3       1 GDP701      0.0000 
     17 C1'        20.0810  106.5170  224.7790 C.3       1 GDP701      0.0000 
     18 N9         19.7360  105.7760  223.5440 N.pl3     1 GDP701      0.0000 
     19 C8         18.5380  105.2850  223.2080 C.2       1 GDP701      0.0000 
     20 N7         18.6530  104.6750  222.0310 N.2       1 GDP701      0.0000 
     21 C5         19.9280  104.7590  221.6490 C.2       1 GDP701      0.0000 
     22 C6         20.5770  104.3090  220.5700 C.2       1 GDP701      0.0000 
     23 O6         19.8550  103.5950  219.6660 O.2       1 GDP701      0.0000 
     24 N1         21.8950  104.5340  220.4170 N.am      1 GDP701      0.0000 
     25 C2         22.5800  105.2160  221.3570 C.2       1 GDP701      0.0000 
     26 N2         23.8800  105.4690  221.1930 N.pl3     1 GDP701      0.0000 
     27 N3         21.9270  105.6720  222.4440 N.2       1 GDP701      0.0000 
     28 C4         20.6030  105.4440  222.5870 C.2       1 GDP701      0.0000 
@<TRIPOS>BOND
     1    1    2 ar   
     2    1    3 ar   
     3    1    4 ar   
     4    1    5 1    
     5    5    6 1    
     6    6    7 ar   
     7    6    8 ar   
     8    6    9 1    
     9    9   10 1    
    10   10   11 1    
    11   11   12 1    
    12   11   13 1    
    13   12   17 1    
    14   13   14 1    
    15   13   15 1    
    16   15   16 1    
    17   15   17 1    
    18   17   18 1    
    19   18   19 1    
    20   18   28 1    
    21   19   20 2    
    22   20   21 1    
    23   21   22 1    
    24   21   28 2    
    25   22   23 2    
    26   22   24 am   
    27   24   25 1    
    28   25   26 1    
    29   25   27 2    
    30   27   28 1    
@<TRIPOS>SUBSTRUCTURE
     1 GDP701      1 GROUP   
@<TRIPOS>SET
ATOM$ORANGE STATIC     ATOMS   COLORGROUP SYSTEM 
20 10 10 11 11 13 13 15 15 17 17 19 19 21 21 22 22 25 \
25 28 28 

