#    Name: 5z54_3_0HZ
#    Modification time : Fri May 22 19:24:00 2020

@<TRIPOS>MOLECULE
5z54_3_0HZ
   18    19     1     0     0
SMALL
NO_CHARGES


@<TRIPOS>ATOM
      1 N          27.6240   31.2880   39.5680 N.am      1 0HZ303      0.0000 
      2 CA         28.9840   31.4530   38.9520 C.3       1 0HZ303      0.0000 
      3 CB         29.2790   32.9350   38.9960 C.3       1 0HZ303      0.0000 
      4 CG         28.5520   33.3610   40.2940 C.3       1 0HZ303      0.0000 
      5 CD         27.2550   32.4880   40.3500 C.3       1 0HZ303      0.0000 
      6 C          28.9460   30.9030   37.5960 C.2       1 0HZ303      0.0000 
      7 O          29.5970   31.3640   36.6400 O.2       1 0HZ303      0.0000 
      8 N1         28.2060   29.7260   37.3660 N.am      1 0HZ303      0.0000 
      9 CA1        27.4290   29.1540   38.4910 C.3       1 0HZ303      0.0000 
     10 C1         26.9020   30.2110   39.3270 C.2       1 0HZ303      0.0000 
     11 O1         25.7650   30.1390   39.7830 O.2       1 0HZ303      0.0000 
     12 CB1        28.2710   28.1380   39.2540 C.3       1 0HZ303      0.0000 
     13 CG1        27.4060   26.9270   39.4750 C.3       1 0HZ303      0.0000 
     14 CD1        26.6820   27.1420   40.7250 C.3       1 0HZ303      0.0000 
     15 NE         25.8370   26.0310   41.1190 N.pl3     1 0HZ303      0.0000 
     16 CZ         24.5470   26.2150   41.4140 C.cat     1 0HZ303      0.0000 
     17 NH1        23.9340   27.4120   41.1060 N.pl3     1 0HZ303      0.0000 
     18 NH2        23.8530   25.2210   41.9870 N.pl3     1 0HZ303      0.0000 
@<TRIPOS>BOND
     1    1    2 1    
     2    1    5 1    
     3    1   10 am   
     4    2    3 1    
     5    2    6 1    
     6    3    4 1    
     7    4    5 1    
     8    6    7 2    
     9    6    8 am   
    10    8    9 1    
    11    9   10 1    
    12    9   12 1    
    13   10   11 2    
    14   12   13 1    
    15   13   14 1    
    16   14   15 1    
    17   15   16 ar   
    18   16   17 ar   
    19   16   18 ar   
@<TRIPOS>SUBSTRUCTURE
     1 0HZ303      1 GROUP   
@<TRIPOS>SET

