#    Name: 5z54_4_0HZ
#    Modification time : Fri May 22 19:24:03 2020

@<TRIPOS>MOLECULE
5z54_4_0HZ
   18    19     1     0     0
SMALL
NO_CHARGES


@<TRIPOS>ATOM
      1 N          18.8670   -0.1440    2.6860 N.am      1 0HZ303      0.0000 
      2 CA         17.5380    0.3390    2.2250 C.3       1 0HZ303      0.0000 
      3 CB         17.2210   -0.4320    0.9260 C.3       1 0HZ303      0.0000 
      4 CG         17.9280   -1.7280    1.1370 C.3       1 0HZ303      0.0000 
      5 CD         19.1520   -1.4130    2.0430 C.3       1 0HZ303      0.0000 
      6 C          17.5590    1.7840    2.0810 C.2       1 0HZ303      0.0000 
      7 O          16.8220    2.3970    1.2770 O.2       1 0HZ303      0.0000 
      8 N1         18.3710    2.5440    2.9780 N.am      1 0HZ303      0.0000 
      9 CA1        19.2000    1.8220    4.0080 C.3       1 0HZ303      0.0000 
     10 C1         19.6220    0.5450    3.5530 C.2       1 0HZ303      0.0000 
     11 O1         20.7120    0.1150    3.9220 O.2       1 0HZ303      0.0000 
     12 CB1        18.4910    1.7130    5.3450 C.3       1 0HZ303      0.0000 
     13 CG1        19.5520    1.9990    6.4250 C.3       1 0HZ303      0.0000 
     14 CD1        19.7840    0.7190    7.1490 C.3       1 0HZ303      0.0000 
     15 NE         20.7600    0.8960    8.2170 N.pl3     1 0HZ303      0.0000 
     16 CZ         22.0290    0.5410    8.0840 C.cat     1 0HZ303      0.0000 
     17 NH1        22.5020    0.1440    6.8620 N.pl3     1 0HZ303      0.0000 
     18 NH2        22.8350    0.6080    9.1520 N.pl3     1 0HZ303      0.0000 
@<TRIPOS>BOND
     1    1    2 1    
     2    1    5 1    
     3    1   10 am   
     4    2    3 1    
     5    2    6 1    
     6    3    4 1    
     7    4    5 1    
     8    6    7 2    
     9    6    8 am   
    10    8    9 1    
    11    9   10 1    
    12    9   12 1    
    13   10   11 2    
    14   12   13 1    
    15   13   14 1    
    16   14   15 1    
    17   15   16 ar   
    18   16   17 ar   
    19   16   18 ar   
@<TRIPOS>SUBSTRUCTURE
     1 0HZ303      1 GROUP   
@<TRIPOS>SET

