#    Name: 5z54_4_0HZ_CAVITY_N1_12
#    Modification time : Fri May 22 19:24:04 2020

@<TRIPOS>MOLECULE
5z54_4_0HZ_CAVITY_N1_12
   75     0     6     0     0
SMALL
NO_CHARGES


@<TRIPOS>ATOM
      1 OG         17.9800    2.7600    4.3000 O.3       1 SER1        0.0000 
      2 O          17.0700   -0.1300    0.6600 O.2       2 ALA2        0.0000 
      3 O          16.5200    1.3000    2.1200 O.2       2 ALA2        0.0000 
      4 O          16.8500    2.4100    1.1600 O.2       2 ALA2        0.0000 
      5 O          17.5700    3.1400    2.2500 O.2       2 ALA2        0.0000 
      6 N          18.8500    2.4400    1.8800 N.am      2 ALA2        0.0000 
      7 N          18.4500    0.9100    9.3600 N.am      2 ALA2        0.0000 
      8 NZ         22.5900   -0.0900    7.2700 N.4       3 LYS4        0.0000 
      9 NZ         22.9200    1.0200    6.3100 N.4       3 LYS4        0.0000 
     10 NZ         22.9900   -0.4600    9.3200 N.4       3 LYS4        0.0000 
     11 NZ         23.3200    0.6400    8.3600 N.4       3 LYS4        0.0000 
     12 CZ         16.7400   -1.2400    1.6100 C.ar      4 PHE5        0.0000 
     13 CZ         18.0100   -1.9400    1.2400 C.ar      4 PHE5        0.0000 
     14 CZ         18.3400   -0.8300    0.2800 C.ar      4 PHE5        0.0000 
     15 CZ         18.4200   -2.3100    3.2900 C.ar      4 PHE5        0.0000 
     16 CZ         19.6900   -3.0100    2.9100 C.ar      4 PHE5        0.0000 
     17 CZ         17.4700   -0.5100    2.7000 C.ar      4 PHE5        0.0000 
     18 CZ         18.7400   -1.2100    2.3300 C.ar      4 PHE5        0.0000 
     19 CZ         20.0100   -1.9100    1.9500 C.ar      4 PHE5        0.0000 
     20 CZ         19.0700   -0.1000    1.3700 C.ar      4 PHE5        0.0000 
     21 CZ         18.1200    1.7100    0.7900 C.ar      4 PHE5        0.0000 
     22 CZ         18.8200   -2.6900    5.3400 C.ar      4 PHE5        0.0000 
     23 CZ         17.8700   -0.8800    4.7500 C.ar      4 PHE5        0.0000 
     24 CZ         19.1400   -1.5800    4.3800 C.ar      4 PHE5        0.0000 
     25 CZ         20.4100   -2.2800    4.0000 C.ar      4 PHE5        0.0000 
     26 CZ         16.9200    0.9300    4.1700 C.ar      4 PHE5        0.0000 
     27 CZ         18.2000    0.2300    3.7900 C.ar      4 PHE5        0.0000 
     28 CZ         20.7400   -1.1800    3.0400 C.ar      4 PHE5        0.0000 
     29 CZ         17.2500    2.0300    3.2100 C.ar      4 PHE5        0.0000 
     30 CZ         18.2700   -1.2600    6.8000 C.ar      4 PHE5        0.0000 
     31 CZ         19.5400   -1.9600    6.4300 C.ar      4 PHE5        0.0000 
     32 CZ         20.8100   -2.6600    6.0500 C.ar      4 PHE5        0.0000 
     33 CZ         17.3300    0.5500    6.2200 C.ar      4 PHE5        0.0000 
     34 CZ         18.6000   -0.1500    5.8400 C.ar      4 PHE5        0.0000 
     35 CZ         21.1400   -1.5500    5.0900 C.ar      4 PHE5        0.0000 
     36 CZ         17.6500    1.6600    5.2600 C.ar      4 PHE5        0.0000 
     37 CZ         21.4700   -0.4400    4.1300 C.ar      4 PHE5        0.0000 
     38 CZ         19.2500    2.0600    3.9200 C.ar      4 PHE5        0.0000 
     39 CZ         20.5200    1.3600    3.5500 C.ar      4 PHE5        0.0000 
     40 CZ         21.7900    0.6600    3.1700 C.ar      4 PHE5        0.0000 
     41 CZ         17.7300    0.1800    8.2700 C.ar      4 PHE5        0.0000 
     42 CZ         20.2700   -1.2200    7.5200 C.ar      4 PHE5        0.0000 
     43 CZ         21.5400   -1.9300    7.1400 C.ar      4 PHE5        0.0000 
     44 CZ         18.0500    1.2800    7.3100 C.ar      4 PHE5        0.0000 
     45 CZ         19.3200    0.5800    6.9300 C.ar      4 PHE5        0.0000 
     46 CZ         21.8700   -0.8200    6.1800 C.ar      4 PHE5        0.0000 
     47 CZ         18.3800    2.3900    6.3500 C.ar      4 PHE5        0.0000 
     48 CZ         19.6500    1.6900    5.9700 C.ar      4 PHE5        0.0000 
     49 CZ         20.9200    0.9900    5.6000 C.ar      4 PHE5        0.0000 
     50 CZ         22.1900    0.2900    5.2200 C.ar      4 PHE5        0.0000 
     51 CZ         21.0000   -0.4900    8.6100 C.ar      4 PHE5        0.0000 
     52 CZ         22.2700   -1.1900    8.2300 C.ar      4 PHE5        0.0000 
     53 CZ         18.7800    2.0100    8.4000 C.ar      4 PHE5        0.0000 
     54 CZ         20.0500    1.3100    8.0200 C.ar      4 PHE5        0.0000 
     55 CZ         20.3700    2.4200    7.0600 C.ar      4 PHE5        0.0000 
     56 CZ         21.6500    1.7200    6.6900 C.ar      4 PHE5        0.0000 
     57 CZ         22.6700   -1.5700   10.2800 C.ar      4 PHE5        0.0000 
     58 CZ         20.4500    0.9400   10.0700 C.ar      4 PHE5        0.0000 
     59 CZ         21.7200    0.2400    9.6900 C.ar      4 PHE5        0.0000 
     60 CZ         21.1000    3.1500    8.1500 C.ar      4 PHE5        0.0000 
     61 CZ         22.3700    2.4500    7.7800 C.ar      4 PHE5        0.0000 
     62 CA         19.7900    0.6300    2.4600 C.3       5 GLY6        0.0000 
     63 CA         21.0600   -0.0700    2.0800 C.3       5 GLY6        0.0000 
     64 CA         20.7800    2.0500    9.1100 C.3       5 GLY6        0.0000 
     65 CA         22.0500    1.3400    8.7400 C.3       5 GLY6        0.0000 
     66 CA         22.4500    0.9700   10.7800 C.3       5 GLY6        0.0000 
     67 CA         22.7700    2.0800    9.8300 C.3       5 GLY6        0.0000 
     68 DU         17.7900    0.6000    1.7500 H         6 CUB7        0.0000 
     69 DU         19.4700   -0.4700    3.4200 H         6 CUB7        0.0000 
     70 DU         18.5200    1.3300    2.8400 H         6 CUB7        0.0000 
     71 DU         19.8700   -0.8500    5.4700 H         6 CUB7        0.0000 
     72 DU         18.9200    0.9600    4.8800 H         6 CUB7        0.0000 
     73 DU         20.1900    0.2600    4.5100 H         6 CUB7        0.0000 
     74 DU         20.5900   -0.1200    6.5600 H         6 CUB7        0.0000 
     75 DU         21.3200    0.6100    7.6500 H         6 CUB7        0.0000 
@<TRIPOS>BOND
@<TRIPOS>SUBSTRUCTURE
     1 SER1        1 GROUP   
     2 ALA2        2 GROUP   
     3 LYS4        8 GROUP   
     4 PHE5       12 GROUP   
     5 GLY6       62 GROUP   
     6 CUB7       68 GROUP   
@<TRIPOS>SET

