#    Name: 5z54_1_0HZ
#    Modification time : Fri May 22 19:23:54 2020

@<TRIPOS>MOLECULE
5z54_1_0HZ
   18    19     1     0     0
SMALL
NO_CHARGES


@<TRIPOS>ATOM
      1 N          27.9740   -8.1580   50.1400 N.am      1 0HZ303      0.0000 
      2 CA         27.4720   -8.0220   48.7650 C.3       1 0HZ303      0.0000 
      3 CB         27.3980   -9.4760   48.2470 C.3       1 0HZ303      0.0000 
      4 CG         27.0480  -10.2910   49.4630 C.3       1 0HZ303      0.0000 
      5 CD         27.7090   -9.5620   50.6280 C.3       1 0HZ303      0.0000 
      6 C          28.3900   -7.1680   48.0520 C.2       1 0HZ303      0.0000 
      7 O          28.6020   -7.3040   46.8300 O.2       1 0HZ303      0.0000 
      8 N1         29.0540   -6.0780   48.8000 N.am      1 0HZ303      0.0000 
      9 CA1        28.7600   -5.8890   50.2550 C.3       1 0HZ303      0.0000 
     10 C1         28.5310   -7.1610   50.8290 C.2       1 0HZ303      0.0000 
     11 O1         28.9130   -7.4130   51.9580 O.2       1 0HZ303      0.0000 
     12 CB1        27.5650   -4.9870   50.4020 C.3       1 0HZ303      0.0000 
     13 CG1        27.3690   -4.5170   51.8290 C.3       1 0HZ303      0.0000 
     14 CD1        26.8210   -3.0880   51.7170 C.3       1 0HZ303      0.0000 
     15 NE         26.2400   -2.5080   52.9750 N.pl3     1 0HZ303      0.0000 
     16 CZ         26.8140   -2.4510   54.1810 C.cat     1 0HZ303      0.0000 
     17 NH1        26.1640   -1.8190   55.1490 N.pl3     1 0HZ303      0.0000 
     18 NH2        27.9970   -3.0560   54.4290 N.pl3     1 0HZ303      0.0000 
@<TRIPOS>BOND
     1    1    2 1    
     2    1    5 1    
     3    1   10 am   
     4    2    3 1    
     5    2    6 1    
     6    3    4 1    
     7    4    5 1    
     8    6    7 2    
     9    6    8 am   
    10    8    9 1    
    11    9   10 1    
    12    9   12 1    
    13   10   11 2    
    14   12   13 1    
    15   13   14 1    
    16   14   15 1    
    17   15   16 ar   
    18   16   17 ar   
    19   16   18 ar   
@<TRIPOS>SUBSTRUCTURE
     1 0HZ303      1 GROUP   
@<TRIPOS>SET

