#    Name: 5z54_2_0HZ
#    Modification time : Fri May 22 19:23:58 2020

@<TRIPOS>MOLECULE
5z54_2_0HZ
   18    19     1     0     0
SMALL
NO_CHARGES


@<TRIPOS>ATOM
      1 N          19.3160  -12.3760   42.6370 N.am      1 0HZ303      0.0000 
      2 CA         19.8100  -11.0220   43.1380 C.3       1 0HZ303      0.0000 
      3 CB         19.8400  -11.1900   44.6430 C.3       1 0HZ303      0.0000 
      4 CG         20.3980  -12.6300   44.7890 C.3       1 0HZ303      0.0000 
      5 CD         19.5860  -13.4330   43.7050 C.3       1 0HZ303      0.0000 
      6 C          18.9190  -10.0570   42.6880 C.2       1 0HZ303      0.0000 
      7 O          18.6980   -9.0150   43.3350 O.2       1 0HZ303      0.0000 
      8 N1         18.2650  -10.2880   41.4010 N.am      1 0HZ303      0.0000 
      9 CA1        18.5960  -11.4770   40.5880 C.3       1 0HZ303      0.0000 
     10 C1         18.7880  -12.5630   41.4360 C.2       1 0HZ303      0.0000 
     11 O1         18.4730  -13.6980   41.0860 O.2       1 0HZ303      0.0000 
     12 CB1        19.8570  -11.2050   39.6800 C.3       1 0HZ303      0.0000 
     13 CG1        20.1090  -12.3670   38.6720 C.3       1 0HZ303      0.0000 
     14 CD1        20.5380  -11.7150   37.3770 C.3       1 0HZ303      0.0000 
     15 NE         21.0160  -12.6960   36.3900 N.pl3     1 0HZ303      0.0000 
     16 CZ         20.2760  -13.7180   35.8860 C.cat     1 0HZ303      0.0000 
     17 NH1        20.8170  -14.5120   34.9520 N.pl3     1 0HZ303      0.0000 
     18 NH2        18.9970  -13.9560   36.2990 N.pl3     1 0HZ303      0.0000 
@<TRIPOS>BOND
     1    1    2 1    
     2    1    5 1    
     3    1   10 am   
     4    2    3 1    
     5    2    6 1    
     6    3    4 1    
     7    4    5 1    
     8    6    7 2    
     9    6    8 am   
    10    8    9 1    
    11    9   10 1    
    12    9   12 1    
    13   10   11 2    
    14   12   13 1    
    15   13   14 1    
    16   14   15 1    
    17   15   16 ar   
    18   16   17 ar   
    19   16   18 ar   
@<TRIPOS>SUBSTRUCTURE
     1 0HZ303      1 GROUP   
@<TRIPOS>SET

