#    Name: 5z54_2_0HZ_CAVITY_N1_12
#    Modification time : Fri May 22 19:23:59 2020

@<TRIPOS>MOLECULE
5z54_2_0HZ_CAVITY_N1_12
   86     0     6     0     0
SMALL
NO_CHARGES


@<TRIPOS>ATOM
      1 OG         20.1200  -11.0100   43.0900 O.3       1 SER1        0.0000 
      2 OG         20.4400   -9.9000   42.1300 O.3       1 SER1        0.0000 
      3 OG         20.8500  -10.2800   44.1800 O.3       1 SER1        0.0000 
      4 OG         22.1200  -10.9800   43.8000 O.3       1 SER1        0.0000 
      5 N          22.7300  -11.9900   35.8100 N.am      2 ALA2        0.0000 
      6 N          18.4500   -9.9300   41.4200 N.am      2 ALA2        0.0000 
      7 O          19.1400  -14.3300   45.9700 O.2       2 ALA2        0.0000 
      8 O          18.8500  -10.3100   43.4700 O.2       2 ALA2        0.0000 
      9 O          19.1700   -9.2000   42.5100 O.2       2 ALA2        0.0000 
     10 N          19.2500  -10.6800   45.5200 N.am      2 ALA2        0.0000 
     11 N          20.5200  -11.3800   45.1400 N.am      2 ALA2        0.0000 
     12 N          19.5700   -9.5800   44.5600 N.am      2 ALA2        0.0000 
     13 NZ         19.3600  -14.9600   35.9300 N.4       3 LYS4        0.0000 
     14 NZ         19.6800  -13.8500   34.9700 N.4       3 LYS4        0.0000 
     15 NZ         20.9500  -14.5600   34.5900 N.4       3 LYS4        0.0000 
     16 CZ         18.8100  -13.5300   37.3900 C.ar      4 PHE5        0.0000 
     17 CZ         20.0800  -14.2300   37.0200 C.ar      4 PHE5        0.0000 
     18 CZ         21.3500  -14.9300   36.6400 C.ar      4 PHE5        0.0000 
     19 CZ         19.1400  -12.4200   36.4300 C.ar      4 PHE5        0.0000 
     20 CZ         21.6800  -13.8200   35.6800 C.ar      4 PHE5        0.0000 
     21 CZ         17.9400  -13.2000   39.8200 C.ar      4 PHE5        0.0000 
     22 CZ         19.2100  -13.9000   39.4400 C.ar      4 PHE5        0.0000 
     23 CZ         20.4800  -14.6000   39.0700 C.ar      4 PHE5        0.0000 
     24 CZ         21.7500  -15.3000   38.6900 C.ar      4 PHE5        0.0000 
     25 CZ         18.2700  -12.1000   38.8600 C.ar      4 PHE5        0.0000 
     26 CZ         19.5400  -12.8000   38.4800 C.ar      4 PHE5        0.0000 
     27 CZ         20.8100  -13.5000   38.1100 C.ar      4 PHE5        0.0000 
     28 CZ         19.8600  -11.6900   37.5200 C.ar      4 PHE5        0.0000 
     29 CZ         21.1300  -12.3900   37.1500 C.ar      4 PHE5        0.0000 
     30 CZ         22.4100  -13.0900   36.7700 C.ar      4 PHE5        0.0000 
     31 CZ         18.3400  -13.5800   41.8700 C.ar      4 PHE5        0.0000 
     32 CZ         19.6100  -14.2800   41.4900 C.ar      4 PHE5        0.0000 
     33 CZ         21.2100  -13.8700   40.1600 C.ar      4 PHE5        0.0000 
     34 CZ         17.7200  -10.6600   40.3300 C.ar      4 PHE5        0.0000 
     35 CZ         18.9900  -11.3600   39.9500 C.ar      4 PHE5        0.0000 
     36 CZ         21.5300  -12.7700   39.2000 C.ar      4 PHE5        0.0000 
     37 CZ         19.3200  -10.2600   38.9900 C.ar      4 PHE5        0.0000 
     38 CZ         20.5900  -10.9600   38.6100 C.ar      4 PHE5        0.0000 
     39 CZ         21.8600  -11.6600   38.2400 C.ar      4 PHE5        0.0000 
     40 CZ         18.7400  -13.9500   43.9200 C.ar      4 PHE5        0.0000 
     41 CZ         20.0100  -14.6500   43.5400 C.ar      4 PHE5        0.0000 
     42 CZ         19.0700  -12.8500   42.9600 C.ar      4 PHE5        0.0000 
     43 CZ         20.3400  -13.5500   42.5800 C.ar      4 PHE5        0.0000 
     44 CZ         18.1200  -11.0400   42.3800 C.ar      4 PHE5        0.0000 
     45 CZ         20.6600  -12.4400   41.6200 C.ar      4 PHE5        0.0000 
     46 CZ         19.7200  -10.6300   41.0400 C.ar      4 PHE5        0.0000 
     47 CZ         20.9900  -11.3300   40.6600 C.ar      4 PHE5        0.0000 
     48 CZ         18.2000  -12.5200   45.3900 C.ar      4 PHE5        0.0000 
     49 CZ         19.4700  -13.2200   45.0100 C.ar      4 PHE5        0.0000 
     50 CZ         22.0100  -14.6200   44.2500 C.ar      4 PHE5        0.0000 
     51 CZ         18.5200  -11.4100   44.4300 C.ar      4 PHE5        0.0000 
     52 CZ         21.0700  -12.8200   43.6700 C.ar      4 PHE5        0.0000 
     53 CZ         21.3900  -11.7100   42.7100 C.ar      4 PHE5        0.0000 
     54 CZ         19.8700  -13.6000   47.0600 C.ar      4 PHE5        0.0000 
     55 CZ         20.2000  -12.4900   46.1000 C.ar      4 PHE5        0.0000 
     56 CZ         21.4700  -13.1900   45.7200 C.ar      4 PHE5        0.0000 
     57 CZ         22.7400  -13.8900   45.3400 C.ar      4 PHE5        0.0000 
     58 CZ         21.7900  -12.0800   44.7600 C.ar      4 PHE5        0.0000 
     59 CZ         23.0600  -12.7800   44.3800 C.ar      4 PHE5        0.0000 
     60 CZ         22.1900  -12.4600   46.8100 C.ar      4 PHE5        0.0000 
     61 CZ         21.2500  -10.6500   46.2300 C.ar      4 PHE5        0.0000 
     62 CZ         22.5200  -11.3500   45.8500 C.ar      4 PHE5        0.0000 
     63 CZ         23.7900  -12.0500   45.4700 C.ar      4 PHE5        0.0000 
     64 CZ         21.9700   -9.9200   47.3200 C.ar      4 PHE5        0.0000 
     65 CZ         23.2400  -10.6200   46.9400 C.ar      4 PHE5        0.0000 
     66 CZ         23.9700   -9.8900   48.0300 C.ar      4 PHE5        0.0000 
     67 CA         20.7300  -12.0200   35.1000 C.3       5 GLY6        0.0000 
     68 CA         22.0000  -12.7200   34.7200 C.3       5 GLY6        0.0000 
     69 CA         20.1900  -10.5800   36.5700 C.3       5 GLY6        0.0000 
     70 CA         21.4600  -11.2900   36.1900 C.3       5 GLY6        0.0000 
     71 CA         17.4000  -11.7700   41.2900 C.3       5 GLY6        0.0000 
     72 CA         18.6700  -12.4700   40.9100 C.3       5 GLY6        0.0000 
     73 CA         21.2900  -15.3500   43.1600 C.3       5 GLY6        0.0000 
     74 CA         20.4200  -15.0300   45.5900 C.3       5 GLY6        0.0000 
     75 CA         21.6900  -15.7300   45.2100 C.3       5 GLY6        0.0000 
     76 CA         21.1400  -14.3000   46.6800 C.3       5 GLY6        0.0000 
     77 CA         21.5700   -9.5500   45.2700 C.3       5 GLY6        0.0000 
     78 CA         22.8400  -10.2500   44.8900 C.3       5 GLY6        0.0000 
     79 CA         23.5700   -9.5100   45.9800 C.3       5 GLY6        0.0000 
     80 CA         25.5700   -9.4800   46.6900 C.3       5 GLY6        0.0000 
     81 DU         20.4100  -13.1200   36.0600 H         6 CUB7        0.0000 
     82 DU         19.9400  -13.1700   40.5300 H         6 CUB7        0.0000 
     83 DU         20.2600  -12.0700   39.5700 H         6 CUB7        0.0000 
     84 DU         19.3900  -11.7400   42.0000 H         6 CUB7        0.0000 
     85 DU         20.7400  -13.9200   44.6300 H         6 CUB7        0.0000 
     86 DU         19.7900  -12.1100   44.0500 H         6 CUB7        0.0000 
@<TRIPOS>BOND
@<TRIPOS>SUBSTRUCTURE
     1 SER1        1 GROUP   
     2 ALA2        5 GROUP   
     3 LYS4       13 GROUP   
     4 PHE5       16 GROUP   
     5 GLY6       67 GROUP   
     6 CUB7       81 GROUP   
@<TRIPOS>SET

