#    Name: 5z54_1_0HZ_CAVITY_N1_ALL
#    Modification time : Fri May 22 19:23:55 2020

@<TRIPOS>MOLECULE
5z54_1_0HZ_CAVITY_N1_ALL
   78     0     6     0     0
SMALL
NO_CHARGES


@<TRIPOS>ATOM
      1 OG         25.0200   -8.0500   48.1600 O.3       1 SER1        0.0000 
      2 OG         26.2900   -8.7500   47.7800 O.3       1 SER1        0.0000 
      3 OG         26.6200   -7.6500   46.8200 O.3       1 SER1        0.0000 
      4 OG         25.7500   -7.3200   49.2500 O.3       1 SER1        0.0000 
      5 OG         27.0200   -8.0200   48.8700 O.3       1 SER1        0.0000 
      6 OG         27.3500   -6.9100   47.9100 O.3       1 SER1        0.0000 
      7 OG         28.4000   -5.0800   48.0400 O.3       1 SER1        0.0000 
      8 N          27.5700   -9.4500   47.4100 N.am      2 ALA2        0.0000 
      9 N          27.8900   -8.3500   46.4500 N.am      2 ALA2        0.0000 
     10 O          28.6200   -7.6200   47.5400 O.2       2 ALA2        0.0000 
     11 N          29.3400   -6.8800   48.6300 N.am      2 ALA2        0.0000 
     12 N          24.4400   -1.9200   52.6900 N.am      2 ALA2        0.0000 
     13 NZ         26.8400   -2.2600   55.4500 N.4       3 LYS4        0.0000 
     14 NZ         28.1100   -2.9600   55.0800 N.4       3 LYS4        0.0000 
     15 NZ         28.4300   -1.8600   54.1200 N.4       3 LYS4        0.0000 
     16 CZ         23.9700   -9.8900   48.0300 C.ar      4 PHE5        0.0000 
     17 CZ         25.2400  -10.5900   47.6500 C.ar      4 PHE5        0.0000 
     18 CZ         24.3700  -10.2600   50.0800 C.ar      4 PHE5        0.0000 
     19 CZ         25.6400  -10.9700   49.7000 C.ar      4 PHE5        0.0000 
     20 CZ         26.9100  -11.6700   49.3300 C.ar      4 PHE5        0.0000 
     21 CZ         24.7000   -9.1600   49.1200 C.ar      4 PHE5        0.0000 
     22 CZ         25.9700   -9.8600   48.7400 C.ar      4 PHE5        0.0000 
     23 CZ         27.2400  -10.5600   48.3700 C.ar      4 PHE5        0.0000 
     24 CZ         25.1000   -9.5300   51.1700 C.ar      4 PHE5        0.0000 
     25 CZ         27.6400  -10.9300   50.4100 C.ar      4 PHE5        0.0000 
     26 CZ         26.6900   -9.1300   49.8300 C.ar      4 PHE5        0.0000 
     27 CZ         27.9700   -9.8300   49.4600 C.ar      4 PHE5        0.0000 
     28 CZ         28.2900   -8.7200   48.5000 C.ar      4 PHE5        0.0000 
     29 CZ         25.8200   -8.8000   52.2600 C.ar      4 PHE5        0.0000 
     30 CZ         27.1000   -9.5000   51.8800 C.ar      4 PHE5        0.0000 
     31 CZ         26.1500   -7.7000   51.3000 C.ar      4 PHE5        0.0000 
     32 CZ         28.6900   -9.1000   50.5500 C.ar      4 PHE5        0.0000 
     33 CZ         26.4700   -6.5900   50.3400 C.ar      4 PHE5        0.0000 
     34 CZ         29.0200   -7.9900   49.5900 C.ar      4 PHE5        0.0000 
     35 CZ         26.8000   -5.4800   49.3800 C.ar      4 PHE5        0.0000 
     36 CZ         28.0700   -6.1800   49.0000 C.ar      4 PHE5        0.0000 
     37 CZ         26.5500   -8.0700   53.3500 C.ar      4 PHE5        0.0000 
     38 CZ         27.8200   -8.7700   52.9700 C.ar      4 PHE5        0.0000 
     39 CZ         25.6000   -6.2600   52.7700 C.ar      4 PHE5        0.0000 
     40 CZ         26.8800   -6.9600   52.3900 C.ar      4 PHE5        0.0000 
     41 CZ         28.1500   -7.6600   52.0100 C.ar      4 PHE5        0.0000 
     42 CZ         29.4200   -8.3700   51.6400 C.ar      4 PHE5        0.0000 
     43 CZ         25.9300   -5.1600   51.8100 C.ar      4 PHE5        0.0000 
     44 CZ         29.7400   -7.2600   50.6800 C.ar      4 PHE5        0.0000 
     45 CZ         26.2500   -4.0500   50.8500 C.ar      4 PHE5        0.0000 
     46 CZ         27.5300   -4.7500   50.4700 C.ar      4 PHE5        0.0000 
     47 CZ         28.8000   -5.4500   50.0900 C.ar      4 PHE5        0.0000 
     48 CZ         27.8500   -3.6400   49.5100 C.ar      4 PHE5        0.0000 
     49 CZ         26.3300   -5.5300   53.8600 C.ar      4 PHE5        0.0000 
     50 CZ         25.3800   -3.7200   53.2700 C.ar      4 PHE5        0.0000 
     51 CZ         26.6600   -4.4300   52.9000 C.ar      4 PHE5        0.0000 
     52 CZ         27.9300   -5.1300   52.5200 C.ar      4 PHE5        0.0000 
     53 CZ         25.7100   -2.6200   52.3100 C.ar      4 PHE5        0.0000 
     54 CZ         26.9800   -3.3200   51.9400 C.ar      4 PHE5        0.0000 
     55 CZ         28.2500   -4.0200   51.5600 C.ar      4 PHE5        0.0000 
     56 CZ         29.5200   -4.7200   51.1800 C.ar      4 PHE5        0.0000 
     57 CZ         27.0600   -4.8000   54.9500 C.ar      4 PHE5        0.0000 
     58 CZ         26.1100   -2.9900   54.3600 C.ar      4 PHE5        0.0000 
     59 CZ         27.3800   -3.6900   53.9900 C.ar      4 PHE5        0.0000 
     60 CZ         28.6500   -4.3900   53.6100 C.ar      4 PHE5        0.0000 
     61 CZ         27.7100   -2.5900   53.0300 C.ar      4 PHE5        0.0000 
     62 CZ         28.9800   -3.2900   52.6500 C.ar      4 PHE5        0.0000 
     63 CA         25.5700   -9.4800   46.6900 C.3       5 GLY6        0.0000 
     64 CA         25.3200  -12.0700   50.6600 C.3       5 GLY6        0.0000 
     65 CA         24.7700  -10.6400   52.1300 C.3       5 GLY6        0.0000 
     66 CA         26.0400  -11.3400   51.7500 C.3       5 GLY6        0.0000 
     67 CA         25.5000   -9.9100   53.2200 C.3       5 GLY6        0.0000 
     68 CA         30.0700   -6.1500   49.7200 C.3       5 GLY6        0.0000 
     69 CA         27.3100   -2.2100   50.9800 C.3       5 GLY6        0.0000 
     70 CA         25.1600   -1.1900   53.7800 C.3       5 GLY6        0.0000 
     71 CA         26.7600   -0.7800   52.4400 C.3       5 GLY6        0.0000 
     72 CA         27.1600   -1.1600   54.4900 C.3       5 GLY6        0.0000 
     73 DU         26.3700  -10.2300   50.7900 H         6 CUB7        0.0000 
     74 DU         27.4200   -8.4000   50.9200 H         6 CUB7        0.0000 
     75 DU         27.7500   -7.2900   49.9600 H         6 CUB7        0.0000 
     76 DU         27.2000   -5.8600   51.4300 H         6 CUB7        0.0000 
     77 DU         28.4700   -6.5600   51.0500 H         6 CUB7        0.0000 
     78 DU         26.4400   -1.8900   53.4000 H         6 CUB7        0.0000 
@<TRIPOS>BOND
@<TRIPOS>SUBSTRUCTURE
     1 SER1        1 GROUP   
     2 ALA2        8 GROUP   
     3 LYS4       13 GROUP   
     4 PHE5       16 GROUP   
     5 GLY6       63 GROUP   
     6 CUB7       73 GROUP   
@<TRIPOS>SET

