#    Name: 5z54_3_0HZ_CAVITY_N1_ALL
#    Modification time : Fri May 22 19:24:01 2020

@<TRIPOS>MOLECULE
5z54_3_0HZ_CAVITY_N1_ALL
   70     0     6     0     0
SMALL
NO_CHARGES


@<TRIPOS>ATOM
      1 OG         28.1400   28.8500   37.8300 O.3       1 SER1        0.0000 
      2 OG         28.4700   29.9600   36.8700 O.3       1 SER1        0.0000 
      3 O          30.2400   32.5300   38.0900 O.2       2 ALA2        0.0000 
      4 NZ         23.5700   25.1000   41.3300 N.4       3 LYS4        0.0000 
      5 NZ         23.9000   26.2000   40.3700 N.4       3 LYS4        0.0000 
      6 NZ         24.3000   25.8300   42.4200 N.4       3 LYS4        0.0000 
      7 NZ         24.6200   26.9300   41.4600 N.4       3 LYS4        0.0000 
      8 CZ         24.4400   24.7700   38.9100 C.ar      4 PHE5        0.0000 
      9 CZ         25.1700   25.5000   40.0000 C.ar      4 PHE5        0.0000 
     10 CZ         25.4900   26.6100   39.0400 C.ar      4 PHE5        0.0000 
     11 CZ         25.2400   24.0200   43.0000 C.ar      4 PHE5        0.0000 
     12 CZ         25.5700   25.1300   42.0500 C.ar      4 PHE5        0.0000 
     13 CZ         26.8400   24.4300   41.6700 C.ar      4 PHE5        0.0000 
     14 CZ         25.8900   26.2300   41.0900 C.ar      4 PHE5        0.0000 
     15 CZ         24.9500   28.0400   40.5000 C.ar      4 PHE5        0.0000 
     16 CZ         27.4900   26.6400   39.7500 C.ar      4 PHE5        0.0000 
     17 CZ         24.0000   29.8500   39.9200 C.ar      4 PHE5        0.0000 
     18 CZ         25.2700   29.1500   39.5400 C.ar      4 PHE5        0.0000 
     19 CZ         26.5400   28.4500   39.1700 C.ar      4 PHE5        0.0000 
     20 CZ         27.8200   27.7400   38.7900 C.ar      4 PHE5        0.0000 
     21 CZ         25.6000   30.2500   38.5800 C.ar      4 PHE5        0.0000 
     22 CZ         26.8700   29.5500   38.2100 C.ar      4 PHE5        0.0000 
     23 CZ         27.1900   30.6600   37.2500 C.ar      4 PHE5        0.0000 
     24 CZ         25.3500   27.6700   42.5500 C.ar      4 PHE5        0.0000 
     25 CZ         26.6200   26.9600   42.1800 C.ar      4 PHE5        0.0000 
     26 CZ         27.8900   26.2600   41.8000 C.ar      4 PHE5        0.0000 
     27 CZ         25.6700   28.7700   41.5900 C.ar      4 PHE5        0.0000 
     28 CZ         28.2200   27.3700   40.8400 C.ar      4 PHE5        0.0000 
     29 CZ         26.0000   29.8800   40.6300 C.ar      4 PHE5        0.0000 
     30 CZ         28.5400   28.4800   39.8800 C.ar      4 PHE5        0.0000 
     31 CZ         25.0500   31.6800   40.0500 C.ar      4 PHE5        0.0000 
     32 CZ         28.8700   29.5800   38.9200 C.ar      4 PHE5        0.0000 
     33 CZ         26.6500   32.0900   38.7200 C.ar      4 PHE5        0.0000 
     34 CZ         27.9200   31.3900   38.3400 C.ar      4 PHE5        0.0000 
     35 CZ         28.2500   32.5000   37.3800 C.ar      4 PHE5        0.0000 
     36 CZ         26.4000   29.5000   42.6800 C.ar      4 PHE5        0.0000 
     37 CZ         27.6700   28.8000   42.3100 C.ar      4 PHE5        0.0000 
     38 CZ         28.9400   28.1000   41.9300 C.ar      4 PHE5        0.0000 
     39 CZ         26.7200   30.6100   41.7200 C.ar      4 PHE5        0.0000 
     40 CZ         28.0000   29.9100   41.3500 C.ar      4 PHE5        0.0000 
     41 CZ         25.7800   32.4200   41.1400 C.ar      4 PHE5        0.0000 
     42 CZ         27.0500   31.7200   40.7600 C.ar      4 PHE5        0.0000 
     43 CZ         28.3200   31.0100   40.3900 C.ar      4 PHE5        0.0000 
     44 CZ         29.5900   30.3100   40.0100 C.ar      4 PHE5        0.0000 
     45 CZ         27.3800   32.8200   39.8000 C.ar      4 PHE5        0.0000 
     46 CZ         29.9200   31.4200   39.0500 C.ar      4 PHE5        0.0000 
     47 CZ         27.7000   33.9300   38.8500 C.ar      4 PHE5        0.0000 
     48 CZ         28.9700   33.2300   38.4700 C.ar      4 PHE5        0.0000 
     49 CZ         27.7800   32.4500   41.8500 C.ar      4 PHE5        0.0000 
     50 CZ         29.0500   31.7500   41.4800 C.ar      4 PHE5        0.0000 
     51 CZ         28.1000   33.5500   40.8900 C.ar      4 PHE5        0.0000 
     52 CZ         29.3700   32.8500   40.5200 C.ar      4 PHE5        0.0000 
     53 CZ         29.7000   33.9600   39.5600 C.ar      4 PHE5        0.0000 
     54 CA         24.1200   23.6600   39.8700 C.3       5 GLY6        0.0000 
     55 CA         23.2400   23.9900   42.2900 C.3       5 GLY6        0.0000 
     56 CA         24.5200   23.2900   41.9100 C.3       5 GLY6        0.0000 
     57 CA         25.7900   22.5900   41.5400 C.3       5 GLY6        0.0000 
     58 CA         24.8400   24.4000   40.9600 C.3       5 GLY6        0.0000 
     59 CA         26.1100   23.6900   40.5800 C.3       5 GLY6        0.0000 
     60 CA         26.4400   24.8000   39.6200 C.3       5 GLY6        0.0000 
     61 CA         26.7600   25.9100   38.6600 C.3       5 GLY6        0.0000 
     62 CA         27.1600   25.5300   40.7100 C.3       5 GLY6        0.0000 
     63 CA         26.3200   30.9800   39.6700 C.3       5 GLY6        0.0000 
     64 CA         27.4500   31.3400   42.8100 C.3       5 GLY6        0.0000 
     65 DU         26.2200   27.3400   40.1300 H         6 CUB7        0.0000 
     66 DU         26.9400   28.0700   41.2200 H         6 CUB7        0.0000 
     67 DU         27.2700   29.1800   40.2600 H         6 CUB7        0.0000 
     68 DU         27.6000   30.2800   39.3000 H         6 CUB7        0.0000 
     69 DU         29.1900   30.6900   37.9600 H         6 CUB7        0.0000 
     70 DU         28.6500   32.1200   39.4300 H         6 CUB7        0.0000 
@<TRIPOS>BOND
@<TRIPOS>SUBSTRUCTURE
     1 SER1        1 GROUP   
     2 ALA2        3 GROUP   
     3 LYS4        4 GROUP   
     4 PHE5        8 GROUP   
     5 GLY6       54 GROUP   
     6 CUB7       65 GROUP   
@<TRIPOS>SET

