#    Name: 6ugd_2_ATP
#    Modification time : Fri May 22 19:31:06 2020

@<TRIPOS>MOLECULE
6ugd_2_ATP
   31    33     1     0     1
SMALL
NO_CHARGES


@<TRIPOS>ATOM
      1 PG        118.7750  151.3280  125.8320 P.3       1 ATP501      0.0000 
      2 O1G       117.7400  150.8560  126.8140 O.co2     1 ATP501      0.0000 
      3 O2G       118.8350  150.5500  124.5450 O.co2     1 ATP501      0.0000 
      4 O3G       120.1170  151.6310  126.4390 O.co2     1 ATP501      0.0000 
      5 PB        118.5600  154.0360  126.3110 P.3       1 ATP501      0.0000 
      6 O1B       118.2880  153.6330  127.7350 O.co2     1 ATP501      0.0000 
      7 O2B       119.9310  154.4950  125.9000 O.co2     1 ATP501      0.0000 
      8 O3B       118.2160  152.7650  125.4020 O.3       1 ATP501      0.0000 
      9 PA        117.8000  156.5470  125.2660 P.3       1 ATP501      0.0000 
     10 O1A       118.9430  157.1350  126.0440 O.co2     1 ATP501      0.0000 
     11 O2A       117.9160  156.4080  123.7700 O.co2     1 ATP501      0.0000 
     12 O3A       117.4400  155.1050  125.8750 O.3       1 ATP501      0.0000 
     13 O5'       116.5070  157.4430  125.5790 O.3       1 ATP501      0.0000 
     14 C5'       115.2510  157.1330  124.9950 C.3       1 ATP501      0.0000 
     15 C4'       114.4910  158.4330  124.7930 C.3       1 ATP501      0.0000 
     16 O4'       113.9690  158.9130  126.0300 O.3       1 ATP501      0.0000 
     17 C3'       115.4190  159.4960  124.2440 C.3       1 ATP501      0.0000 
     18 O3'       115.0530  159.8160  122.9020 O.3       1 ATP501      0.0000 
     19 C2'       115.2070  160.7080  125.1150 C.3       1 ATP501      0.0000 
     20 O2'       114.6480  161.7500  124.3140 O.3       1 ATP501      0.0000 
     21 C1'       114.2190  160.3070  126.1960 C.3       1 ATP501      0.0000 
     22 N9        114.8240  160.4810  127.5380 N.pl3     1 ATP501      0.0000 
     23 C8        114.9510  159.4880  128.4310 C.2       1 ATP501      0.0000 
     24 N7        115.5360  159.9200  129.5730 N.2       1 ATP501      0.0000 
     25 C5        115.7890  161.2250  129.4170 C.ar      1 ATP501      0.0000 
     26 C6        116.3950  162.2800  130.2450 C.ar      1 ATP501      0.0000 
     27 N6        116.8470  162.0020  131.4880 N.pl3     1 ATP501      0.0000 
     28 N1        116.4780  163.5180  129.7240 N.ar      1 ATP501      0.0000 
     29 C2        116.0280  163.7960  128.4910 C.ar      1 ATP501      0.0000 
     30 N3        115.4670  162.8840  127.6860 N.ar      1 ATP501      0.0000 
     31 C4        115.3180  161.5990  128.0800 C.ar      1 ATP501      0.0000 
@<TRIPOS>BOND
     1    1    2 ar   
     2    1    3 ar   
     3    1    4 ar   
     4    1    8 1    
     5    5    6 ar   
     6    5    7 ar   
     7    5    8 1    
     8    5   12 1    
     9    9   10 ar   
    10    9   11 ar   
    11    9   12 1    
    12    9   13 1    
    13   13   14 1    
    14   14   15 1    
    15   15   16 1    
    16   15   17 1    
    17   16   21 1    
    18   17   18 1    
    19   17   19 1    
    20   19   20 1    
    21   19   21 1    
    22   21   22 1    
    23   22   23 1    
    24   22   31 1    
    25   23   24 2    
    26   24   25 1    
    27   25   26 ar   
    28   25   31 ar   
    29   26   27 1    
    30   26   28 ar   
    31   28   29 ar   
    32   29   30 ar   
    33   30   31 ar   
@<TRIPOS>SUBSTRUCTURE
     1 ATP501      1 GROUP   
@<TRIPOS>SET
ATOM$ORANGE STATIC     ATOMS   COLORGROUP SYSTEM 
20 14 14 15 15 17 17 19 19 21 21 23 23 25 25 26 26 29 \
29 31 31 

