#    Name: 6ugd_1_ATP
#    Modification time : Fri May 22 19:30:59 2020

@<TRIPOS>MOLECULE
6ugd_1_ATP
   31    33     1     0     1
SMALL
NO_CHARGES


@<TRIPOS>ATOM
      1 PG        146.3560  142.6610  134.5100 P.3       1 ATP501      0.0000 
      2 O1G       144.9970  143.3120  134.5750 O.co2     1 ATP501      0.0000 
      3 O2G       146.5970  141.8010  133.2970 O.co2     1 ATP501      0.0000 
      4 O3G       146.7990  142.0470  135.8100 O.co2     1 ATP501      0.0000 
      5 PB        148.1700  144.4840  135.5670 P.3       1 ATP501      0.0000 
      6 O1B       147.1460  144.8240  136.6140 O.co2     1 ATP501      0.0000 
      7 O2B       149.3000  143.5370  135.8720 O.co2     1 ATP501      0.0000 
      8 O3B       147.3820  143.8780  134.3070 O.3       1 ATP501      0.0000 
      9 PA        149.9410  146.6810  135.7580 P.3       1 ATP501      0.0000 
     10 O1A       151.0940  145.7560  136.0450 O.co2     1 ATP501      0.0000 
     11 O2A       150.1800  147.9490  134.9790 O.co2     1 ATP501      0.0000 
     12 O3A       148.7960  145.8470  134.9890 O.3       1 ATP501      0.0000 
     13 O5'       149.2780  147.1300  137.1570 O.3       1 ATP501      0.0000 
     14 C5'       148.0920  147.9090  137.1460 C.3       1 ATP501      0.0000 
     15 C4'       148.1190  149.0670  138.1450 C.3       1 ATP501      0.0000 
     16 O4'       148.3880  148.6270  139.4780 O.3       1 ATP501      0.0000 
     17 C3'       149.1800  150.0810  137.7770 C.3       1 ATP501      0.0000 
     18 O3'       148.5590  151.3230  137.4420 O.3       1 ATP501      0.0000 
     19 C2'       150.0130  150.2690  139.0200 C.3       1 ATP501      0.0000 
     20 O2'       150.0790  151.6560  139.3520 O.3       1 ATP501      0.0000 
     21 C1'       149.3120  149.5010  140.1310 C.3       1 ATP501      0.0000 
     22 N9        150.2360  148.6610  140.9430 N.pl3     1 ATP501      0.0000 
     23 C8        149.9380  147.4060  141.3230 C.2       1 ATP501      0.0000 
     24 N7        150.9270  146.8530  142.0620 N.2       1 ATP501      0.0000 
     25 C5        151.8920  147.7750  142.1780 C.ar      1 ATP501      0.0000 
     26 C6        153.2140  147.8340  142.8360 C.ar      1 ATP501      0.0000 
     27 N6        153.6940  146.7720  143.5250 N.pl3     1 ATP501      0.0000 
     28 N1        153.9250  148.9740  142.7310 N.ar      1 ATP501      0.0000 
     29 C2        153.4570  150.0320  142.0500 C.ar      1 ATP501      0.0000 
     30 N3        152.2660  150.0450  141.4320 N.ar      1 ATP501      0.0000 
     31 C4        151.4390  148.9710  141.4510 C.ar      1 ATP501      0.0000 
@<TRIPOS>BOND
     1    1    2 ar   
     2    1    3 ar   
     3    1    4 ar   
     4    1    8 1    
     5    5    6 ar   
     6    5    7 ar   
     7    5    8 1    
     8    5   12 1    
     9    9   10 ar   
    10    9   11 ar   
    11    9   12 1    
    12    9   13 1    
    13   13   14 1    
    14   14   15 1    
    15   15   16 1    
    16   15   17 1    
    17   16   21 1    
    18   17   18 1    
    19   17   19 1    
    20   19   20 1    
    21   19   21 1    
    22   21   22 1    
    23   22   23 1    
    24   22   31 1    
    25   23   24 2    
    26   24   25 1    
    27   25   26 ar   
    28   25   31 ar   
    29   26   27 1    
    30   26   28 ar   
    31   28   29 ar   
    32   29   30 ar   
    33   30   31 ar   
@<TRIPOS>SUBSTRUCTURE
     1 ATP501      1 GROUP   
@<TRIPOS>SET
ATOM$ORANGE STATIC     ATOMS   COLORGROUP SYSTEM 
20 14 14 15 15 17 17 19 19 21 21 23 23 25 25 26 26 29 \
29 31 31 

