#    Name: 6ugd_3_ATP
#    Modification time : Fri May 22 19:31:12 2020

@<TRIPOS>MOLECULE
6ugd_3_ATP
   31    33     1     0     1
SMALL
NO_CHARGES


@<TRIPOS>ATOM
      1 PG         99.8550  133.0380  113.8600 P.3       1 ATP501      0.0000 
      2 O1G        99.6730  131.5560  113.6490 O.co2     1 ATP501      0.0000 
      3 O2G       101.2720  133.5360  113.7430 O.co2     1 ATP501      0.0000 
      4 O3G        99.0970  133.5830  115.0410 O.co2     1 ATP501      0.0000 
      5 PB         97.5170  133.8420  112.7070 P.3       1 ATP501      0.0000 
      6 O1B        96.9860  132.5760  113.3160 O.co2     1 ATP501      0.0000 
      7 O2B        97.2130  135.1570  113.3620 O.co2     1 ATP501      0.0000 
      8 O3B        99.1050  133.6960  112.6070 O.3       1 ATP501      0.0000 
      9 PA         95.4750  134.2240  110.9550 P.3       1 ATP501      0.0000 
     10 O1A        94.7700  134.0720  112.2740 O.co2     1 ATP501      0.0000 
     11 O2A        95.3490  135.4950  110.1710 O.co2     1 ATP501      0.0000 
     12 O3A        97.0280  133.9200  111.1840 O.3       1 ATP501      0.0000 
     13 O5'        94.9100  133.0600  110.0220 O.3       1 ATP501      0.0000 
     14 C5'        94.3230  133.4420  108.7900 C.3       1 ATP501      0.0000 
     15 C4'        92.8490  133.0730  108.8230 C.3       1 ATP501      0.0000 
     16 O4'        92.1770  133.7430  109.8900 O.3       1 ATP501      0.0000 
     17 C3'        92.1760  133.5120  107.5420 C.3       1 ATP501      0.0000 
     18 O3'        91.6920  132.3630  106.8530 O.3       1 ATP501      0.0000 
     19 C2'        91.0080  134.3640  107.9670 C.3       1 ATP501      0.0000 
     20 O2'        89.8130  133.8910  107.3490 O.3       1 ATP501      0.0000 
     21 C1'        90.8870  134.1920  109.4670 C.3       1 ATP501      0.0000 
     22 N9         90.5330  135.4360  110.2100 N.pl3     1 ATP501      0.0000 
     23 C8         91.0060  135.6890  111.4400 C.2       1 ATP501      0.0000 
     24 N7         90.5430  136.8590  111.9330 N.2       1 ATP501      0.0000 
     25 C5         89.7340  137.3850  111.0120 C.ar      1 ATP501      0.0000 
     26 C6         88.9270  138.6150  110.9180 C.ar      1 ATP501      0.0000 
     27 N6         88.9000  139.5140  111.9270 N.pl3     1 ATP501      0.0000 
     28 N1         88.2160  138.8160  109.7970 N.ar      1 ATP501      0.0000 
     29 C2         88.2370  137.9310  108.7900 C.ar      1 ATP501      0.0000 
     30 N3         88.9450  136.7930  108.8150 N.ar      1 ATP501      0.0000 
     31 C4         89.7120  136.4500  109.8780 C.ar      1 ATP501      0.0000 
@<TRIPOS>BOND
     1    1    2 ar   
     2    1    3 ar   
     3    1    4 ar   
     4    1    8 1    
     5    5    6 ar   
     6    5    7 ar   
     7    5    8 1    
     8    5   12 1    
     9    9   10 ar   
    10    9   11 ar   
    11    9   12 1    
    12    9   13 1    
    13   13   14 1    
    14   14   15 1    
    15   15   16 1    
    16   15   17 1    
    17   16   21 1    
    18   17   18 1    
    19   17   19 1    
    20   19   20 1    
    21   19   21 1    
    22   21   22 1    
    23   22   23 1    
    24   22   31 1    
    25   23   24 2    
    26   24   25 1    
    27   25   26 ar   
    28   25   31 ar   
    29   26   27 1    
    30   26   28 ar   
    31   28   29 ar   
    32   29   30 ar   
    33   30   31 ar   
@<TRIPOS>SUBSTRUCTURE
     1 ATP501      1 GROUP   
@<TRIPOS>SET
ATOM$ORANGE STATIC     ATOMS   COLORGROUP SYSTEM 
20 14 14 15 15 17 17 19 19 21 21 23 23 25 25 26 26 29 \
29 31 31 

