#    Name: 6ugd_6_ATP
#    Modification time : Fri May 22 19:31:30 2020

@<TRIPOS>MOLECULE
6ugd_6_ATP
   31    33     1     0     1
SMALL
NO_CHARGES


@<TRIPOS>ATOM
      1 PG        134.7110  106.7230  156.7160 P.3       1 ATP501      0.0000 
      2 O1G       134.1790  105.3810  157.1480 O.co2     1 ATP501      0.0000 
      3 O2G       133.8910  107.8900  157.2040 O.co2     1 ATP501      0.0000 
      4 O3G       135.0980  106.8050  155.2610 O.co2     1 ATP501      0.0000 
      5 PB        137.3180  105.8410  157.2650 P.3       1 ATP501      0.0000 
      6 O1B       136.8880  104.4700  157.7200 O.co2     1 ATP501      0.0000 
      7 O2B       137.8410  106.0410  155.8650 O.co2     1 ATP501      0.0000 
      8 O3B       136.1030  106.8670  157.5120 O.3       1 ATP501      0.0000 
      9 PA        139.9410  105.7860  158.1400 P.3       1 ATP501      0.0000 
     10 O1A       139.8590  104.5140  157.3360 O.co2     1 ATP501      0.0000 
     11 O2A       140.8260  106.9120  157.6670 O.co2     1 ATP501      0.0000 
     12 O3A       138.4450  106.3500  158.2920 O.3       1 ATP501      0.0000 
     13 O5'       140.3790  105.4050  159.6410 O.3       1 ATP501      0.0000 
     14 C5'       140.4880  106.4080  160.6470 C.3       1 ATP501      0.0000 
     15 C4'       141.5990  106.0310  161.6200 C.3       1 ATP501      0.0000 
     16 O4'       141.2040  104.9710  162.4950 O.3       1 ATP501      0.0000 
     17 C3'       142.8290  105.5520  160.8690 C.3       1 ATP501      0.0000 
     18 O3'       143.8870  106.5040  161.0020 O.3       1 ATP501      0.0000 
     19 C2'       143.2270  104.2480  161.5240 C.3       1 ATP501      0.0000 
     20 O2'       144.5780  104.3210  161.9810 O.3       1 ATP501      0.0000 
     21 C1'       142.2950  104.0700  162.7090 C.3       1 ATP501      0.0000 
     22 N9        141.7940  102.6730  162.7920 N.pl3     1 ATP501      0.0000 
     23 C8        140.4950  102.3280  162.7810 C.2       1 ATP501      0.0000 
     24 N7        140.3370  100.9880  162.8850 N.2       1 ATP501      0.0000 
     25 C5        141.5580  100.4460  162.9630 C.ar      1 ATP501      0.0000 
     26 C6        142.0940   99.0740  163.0870 C.ar      1 ATP501      0.0000 
     27 N6        141.2600   98.0080  163.1440 N.pl3     1 ATP501      0.0000 
     28 N1        143.4350   98.9280  163.1440 N.ar      1 ATP501      0.0000 
     29 C2        144.2630   99.9870  163.0890 C.ar      1 ATP501      0.0000 
     30 N3        143.8410  101.2590  162.9770 N.ar      1 ATP501      0.0000 
     31 C4        142.5200  101.5560  162.9110 C.ar      1 ATP501      0.0000 
@<TRIPOS>BOND
     1    1    2 ar   
     2    1    3 ar   
     3    1    4 ar   
     4    1    8 1    
     5    5    6 ar   
     6    5    7 ar   
     7    5    8 1    
     8    5   12 1    
     9    9   10 ar   
    10    9   11 ar   
    11    9   12 1    
    12    9   13 1    
    13   13   14 1    
    14   14   15 1    
    15   15   16 1    
    16   15   17 1    
    17   16   21 1    
    18   17   18 1    
    19   17   19 1    
    20   19   20 1    
    21   19   21 1    
    22   21   22 1    
    23   22   23 1    
    24   22   31 1    
    25   23   24 2    
    26   24   25 1    
    27   25   26 ar   
    28   25   31 ar   
    29   26   27 1    
    30   26   28 ar   
    31   28   29 ar   
    32   29   30 ar   
    33   30   31 ar   
@<TRIPOS>SUBSTRUCTURE
     1 ATP501      1 GROUP   
@<TRIPOS>SET
ATOM$ORANGE STATIC     ATOMS   COLORGROUP SYSTEM 
20 14 14 15 15 17 17 19 19 21 21 23 23 25 25 26 26 29 \
29 31 31 

