#    Name: 6ugd_5_ATP
#    Modification time : Fri May 22 19:31:26 2020

@<TRIPOS>MOLECULE
6ugd_5_ATP
   31    33     1     0     1
SMALL
NO_CHARGES


@<TRIPOS>ATOM
      1 PG        121.6590   90.4240  134.5090 P.3       1 ATP501      0.0000 
      2 O1G       122.0600   91.1120  133.2300 O.co2     1 ATP501      0.0000 
      3 O2G       120.1880   90.5060  134.8090 O.co2     1 ATP501      0.0000 
      4 O3G       122.5470   90.7430  135.6800 O.co2     1 ATP501      0.0000 
      5 PB        123.3770   88.3090  133.9190 P.3       1 ATP501      0.0000 
      6 O1B       123.8270   88.9480  132.6310 O.co2     1 ATP501      0.0000 
      7 O2B       124.2230   88.4220  135.1600 O.co2     1 ATP501      0.0000 
      8 O3B       121.9040   88.8570  134.2460 O.3       1 ATP501      0.0000 
      9 PA        124.3540   85.8580  133.0660 P.3       1 ATP501      0.0000 
     10 O1A       123.7960   85.1220  131.8800 O.co2     1 ATP501      0.0000 
     11 O2A       125.5840   86.7060  132.8830 O.co2     1 ATP501      0.0000 
     12 O3A       123.1530   86.7470  133.6490 O.3       1 ATP501      0.0000 
     13 O5'       124.6790   84.7690  134.1970 O.3       1 ATP501      0.0000 
     14 C5'       125.6890   85.0190  135.1660 C.3       1 ATP501      0.0000 
     15 C4'       126.2800   83.6920  135.6240 C.3       1 ATP501      0.0000 
     16 O4'       125.2370   82.7890  135.9840 O.3       1 ATP501      0.0000 
     17 C3'       127.0790   83.0340  134.5190 C.3       1 ATP501      0.0000 
     18 O3'       128.4460   82.9410  134.9180 O.3       1 ATP501      0.0000 
     19 C2'       126.5150   81.6430  134.3660 C.3       1 ATP501      0.0000 
     20 O2'       127.5530   80.6930  134.5990 O.3       1 ATP501      0.0000 
     21 C1'       125.4590   81.4910  135.4400 C.3       1 ATP501      0.0000 
     22 N9        124.1770   81.0130  134.8750 N.pl3     1 ATP501      0.0000 
     23 C8        123.0160   81.6770  134.9800 C.2       1 ATP501      0.0000 
     24 N7        122.0040   81.0070  134.3830 N.2       1 ATP501      0.0000 
     25 C5        122.5220   79.8770  133.8860 C.ar      1 ATP501      0.0000 
     26 C6        121.9960   78.7230  133.1370 C.ar      1 ATP501      0.0000 
     27 N6        120.6880   78.6580  132.8050 N.pl3     1 ATP501      0.0000 
     28 N1        122.8590   77.7440  132.8040 N.ar      1 ATP501      0.0000 
     29 C2        124.1590   77.8070  133.1340 C.ar      1 ATP501      0.0000 
     30 N3        124.7030   78.8270  133.8140 N.ar      1 ATP501      0.0000 
     31 C4        123.9510   79.8770  134.2140 C.ar      1 ATP501      0.0000 
@<TRIPOS>BOND
     1    1    2 ar   
     2    1    3 ar   
     3    1    4 ar   
     4    1    8 1    
     5    5    6 ar   
     6    5    7 ar   
     7    5    8 1    
     8    5   12 1    
     9    9   10 ar   
    10    9   11 ar   
    11    9   12 1    
    12    9   13 1    
    13   13   14 1    
    14   14   15 1    
    15   15   16 1    
    16   15   17 1    
    17   16   21 1    
    18   17   18 1    
    19   17   19 1    
    20   19   20 1    
    21   19   21 1    
    22   21   22 1    
    23   22   23 1    
    24   22   31 1    
    25   23   24 2    
    26   24   25 1    
    27   25   26 ar   
    28   25   31 ar   
    29   26   27 1    
    30   26   28 ar   
    31   28   29 ar   
    32   29   30 ar   
    33   30   31 ar   
@<TRIPOS>SUBSTRUCTURE
     1 ATP501      1 GROUP   
@<TRIPOS>SET
ATOM$ORANGE STATIC     ATOMS   COLORGROUP SYSTEM 
20 14 14 15 15 17 17 19 19 21 21 23 23 25 25 26 26 29 \
29 31 31 

