#    Name: 6ugd_4_ATP
#    Modification time : Fri May 22 19:31:19 2020

@<TRIPOS>MOLECULE
6ugd_4_ATP
   31    33     1     0     1
SMALL
NO_CHARGES


@<TRIPOS>ATOM
      1 PG        102.5310  102.7750  115.5720 P.3       1 ATP501      0.0000 
      2 O1G       102.0350  102.6960  116.9860 O.co2     1 ATP501      0.0000 
      3 O2G       104.0150  102.6000  115.4140 O.co2     1 ATP501      0.0000 
      4 O3G       101.9480  103.9160  114.7840 O.co2     1 ATP501      0.0000 
      5 PB        101.0960  101.5930  113.5080 P.3       1 ATP501      0.0000 
      6 O1B        99.7600  102.2150  113.8040 O.co2     1 ATP501      0.0000 
      7 O2B       102.0130  102.1940  112.4820 O.co2     1 ATP501      0.0000 
      8 O3B       101.9180  101.4700  114.8760 O.3       1 ATP501      0.0000 
      9 PA        101.0370   99.6880  111.5410 P.3       1 ATP501      0.0000 
     10 O1A       100.1980  100.6590  110.7620 O.co2     1 ATP501      0.0000 
     11 O2A       102.5070   99.5690  111.2450 O.co2     1 ATP501      0.0000 
     12 O3A       100.8450  100.0690  113.0820 O.3       1 ATP501      0.0000 
     13 O5'       100.3720   98.2390  111.4090 O.3       1 ATP501      0.0000 
     14 C5'       100.9400   97.1210  112.0720 C.3       1 ATP501      0.0000 
     15 C4'       100.2630   95.8890  111.5070 C.3       1 ATP501      0.0000 
     16 O4'        98.8810   95.9090  111.8440 O.3       1 ATP501      0.0000 
     17 C3'       100.3510   95.8990  109.9970 C.3       1 ATP501      0.0000 
     18 O3'       101.1590   94.8090  109.5560 O.3       1 ATP501      0.0000 
     19 C2'        98.9380   95.7090  109.5010 C.3       1 ATP501      0.0000 
     20 O2'        98.8840   94.5540  108.6630 O.3       1 ATP501      0.0000 
     21 C1'        98.0940   95.4850  110.7370 C.3       1 ATP501      0.0000 
     22 N9         96.8600   96.2970  110.6920 N.pl3     1 ATP501      0.0000 
     23 C8         96.5580   97.2740  111.5560 C.2       1 ATP501      0.0000 
     24 N7         95.3580   97.8320  111.2710 N.2       1 ATP501      0.0000 
     25 C5         94.8720   97.1970  110.2010 C.ar      1 ATP501      0.0000 
     26 C6         93.6480   97.2900  109.3880 C.ar      1 ATP501      0.0000 
     27 N6         92.6900   98.2000  109.6760 N.pl3     1 ATP501      0.0000 
     28 N1         93.5200   96.4380  108.3540 N.ar      1 ATP501      0.0000 
     29 C2         94.4670   95.5320  108.0610 C.ar      1 ATP501      0.0000 
     30 N3         95.6030   95.3940  108.7590 N.ar      1 ATP501      0.0000 
     31 C4         95.8590   96.1820  109.8240 C.ar      1 ATP501      0.0000 
@<TRIPOS>BOND
     1    1    2 ar   
     2    1    3 ar   
     3    1    4 ar   
     4    1    8 1    
     5    5    6 ar   
     6    5    7 ar   
     7    5    8 1    
     8    5   12 1    
     9    9   10 ar   
    10    9   11 ar   
    11    9   12 1    
    12    9   13 1    
    13   13   14 1    
    14   14   15 1    
    15   15   16 1    
    16   15   17 1    
    17   16   21 1    
    18   17   18 1    
    19   17   19 1    
    20   19   20 1    
    21   19   21 1    
    22   21   22 1    
    23   22   23 1    
    24   22   31 1    
    25   23   24 2    
    26   24   25 1    
    27   25   26 ar   
    28   25   31 ar   
    29   26   27 1    
    30   26   28 ar   
    31   28   29 ar   
    32   29   30 ar   
    33   30   31 ar   
@<TRIPOS>SUBSTRUCTURE
     1 ATP501      1 GROUP   
@<TRIPOS>SET
ATOM$ORANGE STATIC     ATOMS   COLORGROUP SYSTEM 
20 14 14 15 15 17 17 19 19 21 21 23 23 25 25 26 26 29 \
29 31 31 

