#    Name: 6ris_2_ATP
#    Modification time : Fri May 22 19:25:36 2020

@<TRIPOS>MOLECULE
6ris_2_ATP
   31    33     1     0     1
SMALL
NO_CHARGES


@<TRIPOS>ATOM
      1 PG         54.7210    6.4500   21.4000 P.3       1 ATP301      0.0000 
      2 O1G        56.1820    6.3150   21.7450 O.co2     1 ATP301      0.0000 
      3 O2G        54.4560    7.2630   20.1500 O.co2     1 ATP301      0.0000 
      4 O3G        53.8480    6.8160   22.5780 O.co2     1 ATP301      0.0000 
      5 PB         54.2880    4.3070   19.5550 P.3       1 ATP301      0.0000 
      6 O1B        52.9650    4.6360   18.9020 O.co2     1 ATP301      0.0000 
      7 O2B        55.5700    4.7050   18.8700 O.co2     1 ATP301      0.0000 
      8 O3B        54.2780    4.9290   21.0490 O.3       1 ATP301      0.0000 
      9 PA         53.4510    1.7440   20.6420 P.3       1 ATP301      0.0000 
     10 O1A        52.8220    2.5460   21.7580 O.co2     1 ATP301      0.0000 
     11 O2A        54.3130    0.5590   21.0070 O.co2     1 ATP301      0.0000 
     12 O3A        54.3930    2.7030   19.7380 O.3       1 ATP301      0.0000 
     13 O5'        52.2850    1.2700   19.6240 O.3       1 ATP301      0.0000 
     14 C5'        52.5610    0.5490   18.4210 C.3       1 ATP301      0.0000 
     15 C4'        52.6270   -0.9510   18.6950 C.3       1 ATP301      0.0000 
     16 O4'        51.3640   -1.5470   19.0230 O.3       1 ATP301      0.0000 
     17 C3'        53.1230   -1.7310   17.4850 C.3       1 ATP301      0.0000 
     18 O3'        54.5520   -1.8260   17.4820 O.3       1 ATP301      0.0000 
     19 C2'        52.4750   -3.0990   17.6240 C.3       1 ATP301      0.0000 
     20 O2'        53.4650   -4.0830   17.9440 O.3       1 ATP301      0.0000 
     21 C1'        51.4890   -2.9570   18.7800 C.3       1 ATP301      0.0000 
     22 N9         50.1790   -3.6300   18.5320 N.pl3     1 ATP301      0.0000 
     23 C8         49.4250   -4.1590   19.5150 C.2       1 ATP301      0.0000 
     24 N7         48.2930   -4.7320   19.0340 N.2       1 ATP301      0.0000 
     25 C5         48.3070   -4.5840   17.6970 C.ar      1 ATP301      0.0000 
     26 C6         47.4020   -4.9650   16.5830 C.ar      1 ATP301      0.0000 
     27 N6         46.2420   -5.6270   16.8170 N.pl3     1 ATP301      0.0000 
     28 N1         47.7720   -4.6310   15.3270 N.ar      1 ATP301      0.0000 
     29 C2         48.9240   -3.9730   15.0910 C.ar      1 ATP301      0.0000 
     30 N3         49.7880   -3.5980   16.0510 N.ar      1 ATP301      0.0000 
     31 C4         49.5550   -3.8700   17.3620 C.ar      1 ATP301      0.0000 
@<TRIPOS>BOND
     1    1    2 ar   
     2    1    3 ar   
     3    1    4 ar   
     4    1    8 1    
     5    5    6 ar   
     6    5    7 ar   
     7    5    8 1    
     8    5   12 1    
     9    9   10 ar   
    10    9   11 ar   
    11    9   12 1    
    12    9   13 1    
    13   13   14 1    
    14   14   15 1    
    15   15   16 1    
    16   15   17 1    
    17   16   21 1    
    18   17   18 1    
    19   17   19 1    
    20   19   20 1    
    21   19   21 1    
    22   21   22 1    
    23   22   23 1    
    24   22   31 1    
    25   23   24 2    
    26   24   25 1    
    27   25   26 ar   
    28   25   31 ar   
    29   26   27 1    
    30   26   28 ar   
    31   28   29 ar   
    32   29   30 ar   
    33   30   31 ar   
@<TRIPOS>SUBSTRUCTURE
     1 ATP301      1 GROUP   
@<TRIPOS>SET
ATOM$ORANGE STATIC     ATOMS   COLORGROUP SYSTEM 
20 14 14 15 15 17 17 19 19 21 21 23 23 25 25 26 26 29 \
29 31 31 

