#    Name: 6ris_2_ATP_CAVITY_N1_6
#    Modification time : Fri May 22 19:25:38 2020

@<TRIPOS>MOLECULE
6ris_2_ATP_CAVITY_N1_6
   74     0     5     0     0
SMALL
NO_CHARGES


@<TRIPOS>ATOM
      1 N          50.6000   -4.5300   17.3000 N.am      1 ALA2        0.0000 
      2 N          49.4800   -3.5700   19.4400 N.am      1 ALA2        0.0000 
      3 N          52.1400   -3.0800   17.4600 N.am      1 ALA2        0.0000 
      4 N          51.3200   -3.8700   18.4400 N.am      1 ALA2        0.0000 
      5 N          53.1700   -4.1600   17.4300 N.am      1 ALA2        0.0000 
      6 N          49.9800   -1.0300   19.6200 N.am      1 ALA2        0.0000 
      7 N          51.0100   -2.1200   19.6000 N.am      1 ALA2        0.0000 
      8 O          52.0500   -3.2100   19.5700 O.2       1 ALA2        0.0000 
      9 O          53.0800   -4.3000   19.5500 O.2       1 ALA2        0.0000 
     10 N          51.3000    2.3000   18.8200 N.am      1 ALA2        0.0000 
     11 N          50.4800    1.5100   19.8000 N.am      1 ALA2        0.0000 
     12 N          49.6700    0.7200   20.7800 N.am      1 ALA2        0.0000 
     13 N          51.5200    0.4200   19.7800 N.am      1 ALA2        0.0000 
     14 N          50.7000   -0.3700   20.7600 N.am      1 ALA2        0.0000 
     15 O          55.4000    4.1200   19.1200 O.2       1 ALA2        0.0000 
     16 O          54.8100    1.4500   21.0500 O.2       1 ALA2        0.0000 
     17 O          55.0900    5.8700   20.2800 O.2       1 ALA2        0.0000 
     18 O          54.5000    3.2000   22.2100 O.2       1 ALA2        0.0000 
     19 O          53.6800    2.4000   23.1900 O.2       1 ALA2        0.0000 
     20 O          55.2200    3.8600   23.3500 O.2       1 ALA2        0.0000 
     21 O          54.4000    3.0600   24.3300 O.2       1 ALA2        0.0000 
     22 OD1        53.8900   -3.5000   18.5700 O.co2     2 ASP3        0.0000 
     23 OD1        55.4300   -2.0500   18.7300 O.co2     2 ASP3        0.0000 
     24 OD1        54.6100   -2.8400   19.7100 O.co2     2 ASP3        0.0000 
     25 OD1        53.6500    4.5500   18.0000 O.co2     2 ASP3        0.0000 
     26 OD1        52.8400    3.7600   18.9800 O.co2     2 ASP3        0.0000 
     27 OD1        52.5300    5.5100   20.1400 O.co2     2 ASP3        0.0000 
     28 OD1        53.5600    4.4200   20.1200 O.co2     2 ASP3        0.0000 
     29 OD1        53.3700    4.1500   24.3500 O.co2     2 ASP3        0.0000 
     30 NZ         53.4600    0.2600   16.6600 N.4       3 LYS4        0.0000 
     31 NZ         52.6400   -0.5300   17.6400 N.4       3 LYS4        0.0000 
     32 NZ         53.6700   -1.6200   17.6200 N.4       3 LYS4        0.0000 
     33 NZ         55.2100   -0.1700   17.7800 N.4       3 LYS4        0.0000 
     34 NZ         54.4000   -0.9600   18.7500 N.4       3 LYS4        0.0000 
     35 NZ         56.9600   -0.5900   18.8900 N.4       3 LYS4        0.0000 
     36 NZ         58.0000   -1.6800   18.8700 N.4       3 LYS4        0.0000 
     37 CA         50.3800   -2.6500   16.3400 C.3       4 GLY6        0.0000 
     38 CA         49.5700   -3.4400   17.3200 C.3       4 GLY6        0.0000 
     39 CA         51.4200   -3.7400   16.3200 C.3       4 GLY6        0.0000 
     40 CA         51.9200   -1.1900   16.5000 C.3       4 GLY6        0.0000 
     41 CA         51.1100   -1.9900   17.4800 C.3       4 GLY6        0.0000 
     42 CA         50.2900   -2.7800   18.4600 C.3       4 GLY6        0.0000 
     43 CA         52.9500   -2.2800   16.4800 C.3       4 GLY6        0.0000 
     44 CA         51.6100    0.5500   17.6600 C.3       4 GLY6        0.0000 
     45 CA         50.8000   -0.2400   18.6400 C.3       4 GLY6        0.0000 
     46 CA         53.1500    2.0100   17.8200 C.3       4 GLY6        0.0000 
     47 CA         52.3300    1.2200   18.8000 C.3       4 GLY6        0.0000 
     48 CA         54.1800    0.9200   17.8000 C.3       4 GLY6        0.0000 
     49 CA         53.8700    2.6700   18.9600 C.3       4 GLY6        0.0000 
     50 CA         54.9000    1.5800   18.9400 C.3       4 GLY6        0.0000 
     51 CA         55.9300    0.4900   18.9100 C.3       4 GLY6        0.0000 
     52 CA         54.3700    5.2100   19.1400 C.3       4 GLY6        0.0000 
     53 CA         54.5900    3.3300   20.1000 C.3       4 GLY6        0.0000 
     54 CA         55.6200    2.2400   20.0700 C.3       4 GLY6        0.0000 
     55 CA         56.6500    1.1500   20.0500 C.3       4 GLY6        0.0000 
     56 CA         57.6900    0.0700   20.0300 C.3       4 GLY6        0.0000 
     57 CA         55.3100    3.9900   21.2300 C.3       4 GLY6        0.0000 
     58 DU         51.8300   -1.3300   18.6200 H         5 CUB7        0.0000 
     59 DU         52.8600   -2.4100   18.5900 H         5 CUB7        0.0000 
     60 DU         53.3600    0.1300   18.7800 H         5 CUB7        0.0000 
     61 DU         51.7300   -1.4600   20.7300 H         5 CUB7        0.0000 
     62 DU         53.5800   -1.7500   19.7300 H         5 CUB7        0.0000 
     63 DU         53.0500    1.8800   19.9400 H         5 CUB7        0.0000 
     64 DU         52.2400    1.0800   20.9200 H         5 CUB7        0.0000 
     65 DU         51.4200    0.2900   21.8900 H         5 CUB7        0.0000 
     66 DU         54.0900    0.7900   19.9100 H         5 CUB7        0.0000 
     67 DU         55.1200   -0.3000   19.8900 H         5 CUB7        0.0000 
     68 DU         56.1500   -1.3900   19.8700 H         5 CUB7        0.0000 
     69 DU         52.7400    3.6200   21.1000 H         5 CUB7        0.0000 
     70 DU         53.7800    2.5400   21.0700 H         5 CUB7        0.0000 
     71 DU         52.9600    1.7400   22.0500 H         5 CUB7        0.0000 
     72 DU         54.2800    5.0800   21.2600 H         5 CUB7        0.0000 
     73 DU         53.4600    4.2800   22.2300 H         5 CUB7        0.0000 
     74 DU         54.1900    4.9500   23.3700 H         5 CUB7        0.0000 
@<TRIPOS>BOND
@<TRIPOS>SUBSTRUCTURE
     1 ALA2        1 GROUP   
     2 ASP3       22 GROUP   
     3 LYS4       30 GROUP   
     4 GLY6       37 GROUP   
     5 CUB7       58 GROUP   
@<TRIPOS>SET

