#    Name: 6hxb_1_ACP
#    Modification time : Fri May 22 19:25:03 2020

@<TRIPOS>MOLECULE
6hxb_1_ACP
   31    33     1     0     1
SMALL
NO_CHARGES


@<TRIPOS>ATOM
      1 PG        170.7460  -15.8010   22.5490 P.3       1 ACP1004     0.0000 
      2 O1G       170.5030  -16.3690   21.1710 O.co2     1 ACP1004     0.0000 
      3 O2G       170.4400  -16.8440   23.5970 O.co2     1 ACP1004     0.0000 
      4 O3G       169.8300  -14.6190   22.7720 O.co2     1 ACP1004     0.0000 
      5 PB        173.6660  -15.7140   21.3750 P.3       1 ACP1004     0.0000 
      6 O1B       172.9460  -16.3440   20.2090 O.co2     1 ACP1004     0.0000 
      7 O2B       174.7090  -16.6730   21.8980 O.co2     1 ACP1004     0.0000 
      8 C3B       172.5130  -15.2510   22.7650 C.3       1 ACP1004     0.0000 
      9 PA        175.9710  -13.9790   21.2640 P.3       1 ACP1004     0.0000 
     10 O1A       176.2650  -12.5410   20.9110 O.co2     1 ACP1004     0.0000 
     11 O2A       176.1650  -14.1970   22.7450 O.co2     1 ACP1004     0.0000 
     12 O3A       174.4210  -14.3500   20.8510 O.3       1 ACP1004     0.0000 
     13 O5'       176.9740  -14.9840   20.4350 O.3       1 ACP1004     0.0000 
     14 C5'       178.0720  -14.4370   19.7690 C.3       1 ACP1004     0.0000 
     15 C4'       179.0940  -15.5740   19.5000 C.3       1 ACP1004     0.0000 
     16 O4'       179.9540  -15.6320   20.4790 O.3       1 ACP1004     0.0000 
     17 C3'       178.3650  -16.9340   19.4520 C.3       1 ACP1004     0.0000 
     18 O3'       178.5410  -17.5140   18.2380 O.3       1 ACP1004     0.0000 
     19 C2'       178.9890  -17.8130   20.5550 C.3       1 ACP1004     0.0000 
     20 O2'       179.5460  -19.0550   19.9380 O.3       1 ACP1004     0.0000 
     21 C1'       179.9560  -17.1240   21.1030 C.3       1 ACP1004     0.0000 
     22 N9        179.7680  -17.0390   22.5300 N.pl3     1 ACP1004     0.0000 
     23 C8        178.6080  -16.8670   23.1690 C.2       1 ACP1004     0.0000 
     24 N7        178.8580  -16.8390   24.4820 N.2       1 ACP1004     0.0000 
     25 C5        180.1780  -16.9930   24.6570 C.ar      1 ACP1004     0.0000 
     26 C6        180.9680  -17.0380   25.7900 C.ar      1 ACP1004     0.0000 
     27 N6        180.4810  -16.9190   27.1520 N.pl3     1 ACP1004     0.0000 
     28 N1        182.2770  -17.2020   25.6820 N.ar      1 ACP1004     0.0000 
     29 C2        182.8430  -17.3250   24.4600 C.ar      1 ACP1004     0.0000 
     30 N3        182.0730  -17.2800   23.3490 N.ar      1 ACP1004     0.0000 
     31 C4        180.7410  -17.1140   23.4510 C.ar      1 ACP1004     0.0000 
@<TRIPOS>BOND
     1    1    2 ar   
     2    1    3 ar   
     3    1    4 ar   
     4    1    8 1    
     5    5    6 ar   
     6    5    7 ar   
     7    5    8 1    
     8    5   12 1    
     9    9   10 ar   
    10    9   11 ar   
    11    9   12 1    
    12    9   13 1    
    13   13   14 1    
    14   14   15 1    
    15   15   16 1    
    16   15   17 1    
    17   16   21 1    
    18   17   18 1    
    19   17   19 1    
    20   19   20 1    
    21   19   21 1    
    22   21   22 1    
    23   22   23 1    
    24   22   31 1    
    25   23   24 2    
    26   24   25 1    
    27   25   26 ar   
    28   25   31 ar   
    29   26   27 1    
    30   26   28 ar   
    31   28   29 ar   
    32   29   30 ar   
    33   30   31 ar   
@<TRIPOS>SUBSTRUCTURE
     1 ACP1004     1 GROUP   
@<TRIPOS>SET
ATOM$ORANGE STATIC     ATOMS   COLORGROUP SYSTEM 
22 8 8 14 14 15 15 17 17 19 19 21 21 23 23 25 25 26 \
26 29 29 31 31 

