#    Name: 6jlj_3_PHO
#    Modification time : Fri May 22 19:27:56 2020

@<TRIPOS>MOLECULE
6jlj_3_PHO
   64    69     1     0     0
SMALL
NO_CHARGES


@<TRIPOS>ATOM
      1 CHA         1.8520    0.6930    7.9010 C.2       1 PHO411      0.0000 
      2 CHB         2.4340    1.6710    3.1820 C.2       1 PHO411      0.0000 
      3 CHC         5.0100    5.7440    4.3350 C.2       1 PHO411      0.0000 
      4 CHD         4.4250    4.8490    9.1840 C.2       1 PHO411      0.0000 
      5 NA          2.3630    1.3590    5.5890 N.2       1 PHO411      0.0000 
      6 C1A         1.7870    0.5140    6.4280 C.2       1 PHO411      0.0000 
      7 C2A         1.1060   -0.6580    5.7800 C.3       1 PHO411      0.0000 
      8 C3A         1.5000   -0.4210    4.3270 C.3       1 PHO411      0.0000 
      9 C4A         2.1350    0.9380    4.4180 C.2       1 PHO411      0.0000 
     10 CMA         2.5490   -1.4270    3.8800 C.3       1 PHO411      0.0000 
     11 CAA        -0.4050   -0.6480    5.9290 C.3       1 PHO411      0.0000 
     12 CBA        -0.9460   -1.9030    5.2500 C.3       1 PHO411      0.0000 
     13 CGA        -2.4370   -1.7480    5.1540 C.2       1 PHO411      0.0000 
     14 O1A        -3.0100   -0.7340    5.5200 O.2       1 PHO411      0.0000 
     15 O2A        -3.2000   -2.8390    4.6260 O.3       1 PHO411      0.0000 
     16 NB          3.7040    3.6290    4.0620 N.pl3     1 PHO411      0.0000 
     17 C1B         3.1780    2.9420    3.0250 C.2       1 PHO411      0.0000 
     18 C2B         3.4190    3.5590    1.6970 C.2       1 PHO411      0.0000 
     19 C3B         4.1870    4.7750    2.0610 C.2       1 PHO411      0.0000 
     20 C4B         4.2980    4.7140    3.5460 C.2       1 PHO411      0.0000 
     21 CMB         2.9920    3.0900    0.3350 C.3       1 PHO411      0.0000 
     22 CAB         4.7430    5.8460    1.2000 C.2       1 PHO411      0.0000 
     23 CBB         4.0000    6.4200    0.2700 C.2       1 PHO411      0.0000 
     24 NC          4.5560    4.9650    6.7000 N.2       1 PHO411      0.0000 
     25 C1C         5.1390    5.7870    5.8020 C.2       1 PHO411      0.0000 
     26 C2C         5.9030    6.9050    6.4140 C.2       1 PHO411      0.0000 
     27 C3C         5.7340    6.6890    7.8740 C.2       1 PHO411      0.0000 
     28 C4C         4.8860    5.4630    7.9190 C.2       1 PHO411      0.0000 
     29 CMC         6.6630    7.9900    5.7060 C.3       1 PHO411      0.0000 
     30 CAC         6.2630    7.5110    9.0380 C.3       1 PHO411      0.0000 
     31 CBC         5.0810    8.0470    9.8100 C.3       1 PHO411      0.0000 
     32 ND          3.2890    2.9780    8.0230 N.pl3     1 PHO411      0.0000 
     33 C1D         3.6140    3.6110    9.1660 C.2       1 PHO411      0.0000 
     34 C2D         3.1730    2.9760   10.4400 C.2       1 PHO411      0.0000 
     35 C3D         2.4530    1.8050    9.8670 C.2       1 PHO411      0.0000 
     36 C4D         2.5640    1.8710    8.4840 C.2       1 PHO411      0.0000 
     37 CMD         3.3070    3.2970   11.9030 C.3       1 PHO411      0.0000 
     38 CAD         1.6820    0.5950   10.2510 C.2       1 PHO411      0.0000 
     39 OBD         1.3900    0.2150   11.4450 O.2       1 PHO411      0.0000 
     40 CBD         1.2600   -0.0940    9.0090 C.3       1 PHO411      0.0000 
     41 CGD         1.6710   -1.5280    9.0100 C.2       1 PHO411      0.0000 
     42 O1D         0.8400   -2.3710    9.3170 O.2       1 PHO411      0.0000 
     43 O2D         3.0290   -1.8900    8.6450 O.3       1 PHO411      0.0000 
     44 CED         3.4130   -3.2610    8.5790 C.3       1 PHO411      0.0000 
     45 C1         -4.5460   -2.6870    4.2080 C.3       1 PHO411      0.0000 
     46 C2         -4.5600   -2.6500    2.6920 C.2       1 PHO411      0.0000 
     47 C3         -4.2570   -3.6990    1.9080 C.2       1 PHO411      0.0000 
     48 C4         -3.8620   -5.0230    2.5060 C.3       1 PHO411      0.0000 
     49 C5         -4.2990   -3.5580    0.3940 C.3       1 PHO411      0.0000 
     50 C6         -5.0180   -2.2860   -0.0710 C.3       1 PHO411      0.0000 
     51 C7         -4.7760   -2.1110   -1.5850 C.3       1 PHO411      0.0000 
     52 C8         -5.5790   -0.9670   -2.2260 C.3       1 PHO411      0.0000 
     53 C9         -7.0910   -1.2260   -2.1680 C.3       1 PHO411      0.0000 
     54 C10        -5.1100   -0.7470   -3.6740 C.3       1 PHO411      0.0000 
     55 C11        -5.9660    0.2790   -4.4070 C.3       1 PHO411      0.0000 
     56 C12        -5.9260    1.6610   -3.7440 C.3       1 PHO411      0.0000 
     57 C13        -4.4960    2.1490   -3.5110 C.3       1 PHO411      0.0000 
     58 C14        -4.4580    3.3570   -2.5800 C.3       1 PHO411      0.0000 
     59 C15        -3.8010    2.4240   -4.8400 C.3       1 PHO411      0.0000 
     60 C16        -2.4730    3.1680   -4.6650 C.3       1 PHO411      0.0000 
     61 C17        -1.7330    3.3140   -5.9990 C.3       1 PHO411      0.0000 
     62 C18        -0.3270    3.8840   -5.8060 C.3       1 PHO411      0.0000 
     63 C19        -0.3650    5.3630   -5.3890 C.3       1 PHO411      0.0000 
     64 C20         0.5180    3.6830   -7.0580 C.3       1 PHO411      0.0000 
@<TRIPOS>BOND
     1    1    6 2    
     2    1   36 1    
     3    1   40 1    
     4    2    9 1    
     5    2   17 2    
     6    3   20 2    
     7    3   25 1    
     8    4   28 2    
     9    4   33 1    
    10    5    6 1    
    11    5    9 2    
    12    6    7 1    
    13    7    8 1    
    14    7   11 1    
    15    8    9 1    
    16    8   10 1    
    17   11   12 1    
    18   12   13 1    
    19   13   14 2    
    20   13   15 1    
    21   15   45 1    
    22   16   17 1    
    23   16   20 1    
    24   17   18 1    
    25   18   19 2    
    26   18   21 1    
    27   19   20 1    
    28   19   22 1    
    29   22   23 2    
    30   24   25 2    
    31   24   28 1    
    32   25   26 1    
    33   26   27 2    
    34   26   29 1    
    35   27   28 1    
    36   27   30 1    
    37   30   31 1    
    38   32   33 1    
    39   32   36 1    
    40   33   34 2    
    41   34   35 1    
    42   34   37 1    
    43   35   36 2    
    44   35   38 1    
    45   38   39 2    
    46   38   40 1    
    47   40   41 1    
    48   41   42 2    
    49   41   43 1    
    50   43   44 1    
    51   45   46 1    
    52   46   47 2    
    53   47   48 1    
    54   47   49 1    
    55   49   50 1    
    56   50   51 1    
    57   51   52 1    
    58   52   53 1    
    59   52   54 1    
    60   54   55 1    
    61   55   56 1    
    62   56   57 1    
    63   57   58 1    
    64   57   59 1    
    65   59   60 1    
    66   60   61 1    
    67   61   62 1    
    68   62   63 1    
    69   62   64 1    
@<TRIPOS>SUBSTRUCTURE
     1 PHO411      1 GROUP   
@<TRIPOS>SET

