#    Name: 6jlj_1_PHO
#    Modification time : Fri May 22 19:27:42 2020

@<TRIPOS>MOLECULE
6jlj_1_PHO
   64    69     1     0     0
SMALL
NO_CHARGES


@<TRIPOS>ATOM
      1 CHA         9.9300  -57.9970  -32.2420 C.2       1 PHO408      0.0000 
      2 CHB        10.1470  -57.3730  -37.0580 C.2       1 PHO408      0.0000 
      3 CHC        12.0260  -52.8670  -36.3490 C.2       1 PHO408      0.0000 
      4 CHD        11.9860  -53.4780  -31.4180 C.2       1 PHO408      0.0000 
      5 NA         10.1160  -57.4180  -34.6400 N.2       1 PHO408      0.0000 
      6 C1A         9.7630  -58.2790  -33.6980 C.2       1 PHO408      0.0000 
      7 C2A         9.1790  -59.5680  -34.2130 C.3       1 PHO408      0.0000 
      8 C3A         9.5100  -59.4400  -35.6940 C.3       1 PHO408      0.0000 
      9 C4A         9.9550  -57.9990  -35.7510 C.2       1 PHO408      0.0000 
     10 CMA        10.6390  -60.3730  -36.1310 C.3       1 PHO408      0.0000 
     11 CAA         7.6690  -59.5240  -34.0440 C.3       1 PHO408      0.0000 
     12 CBA         7.0720  -60.8430  -34.5100 C.3       1 PHO408      0.0000 
     13 CGA         5.5740  -60.7470  -34.5930 C.2       1 PHO408      0.0000 
     14 O1A         4.9750  -59.7040  -34.3520 O.2       1 PHO408      0.0000 
     15 O2A         4.8310  -61.9190  -34.9950 O.3       1 PHO408      0.0000 
     16 NB         11.0710  -55.1610  -36.4350 N.pl3     1 PHO408      0.0000 
     17 C1B        10.6730  -56.0280  -37.3690 C.2       1 PHO408      0.0000 
     18 C2B        10.8150  -55.5270  -38.7570 C.2       1 PHO408      0.0000 
     19 C3B        11.3790  -54.1680  -38.5390 C.2       1 PHO408      0.0000 
     20 C4B        11.4930  -54.0570  -37.0570 C.2       1 PHO408      0.0000 
     21 CMB        10.4600  -56.2490  -40.0200 C.3       1 PHO408      0.0000 
     22 CAB        11.7630  -53.1140  -39.5110 C.2       1 PHO408      0.0000 
     23 CBB        11.1690  -53.0210  -40.6920 C.2       1 PHO408      0.0000 
     24 NC         11.7660  -53.4820  -33.9000 N.2       1 PHO408      0.0000 
     25 C1C        12.1400  -52.6580  -34.8900 C.2       1 PHO408      0.0000 
     26 C2C        12.8760  -51.4540  -34.4160 C.2       1 PHO408      0.0000 
     27 C3C        12.9260  -51.6310  -32.9480 C.2       1 PHO408      0.0000 
     28 C4C        12.2090  -52.9120  -32.7580 C.2       1 PHO408      0.0000 
     29 CMC        13.4280  -50.3330  -35.2550 C.3       1 PHO408      0.0000 
     30 CAC        13.5390  -50.7400  -31.8890 C.3       1 PHO408      0.0000 
     31 CBC        12.4620  -50.0360  -31.0890 C.3       1 PHO408      0.0000 
     32 ND         11.0030  -55.5240  -32.3590 N.pl3     1 PHO408      0.0000 
     33 C1D        11.3360  -54.7920  -31.2870 C.2       1 PHO408      0.0000 
     34 C2D        11.1420  -55.4020  -29.9430 C.2       1 PHO408      0.0000 
     35 C3D        10.5640  -56.7040  -30.3950 C.2       1 PHO408      0.0000 
     36 C4D        10.5150  -56.6970  -31.7780 C.2       1 PHO408      0.0000 
     37 CMD        11.4060  -54.9540  -28.5280 C.3       1 PHO408      0.0000 
     38 CAD        10.0150  -58.0020  -29.9090 C.2       1 PHO408      0.0000 
     39 OBD         9.9070  -58.3500  -28.6870 O.2       1 PHO408      0.0000 
     40 CBD         9.6210  -58.8390  -31.0670 C.3       1 PHO408      0.0000 
     41 CGD        10.5330  -60.0360  -31.1270 C.2       1 PHO408      0.0000 
     42 O1D        10.2580  -61.1050  -30.5900 O.2       1 PHO408      0.0000 
     43 O2D        11.7940  -59.9170  -31.8310 O.3       1 PHO408      0.0000 
     44 CED        12.6900  -61.0290  -31.8900 C.3       1 PHO408      0.0000 
     45 C1          3.4510  -61.7600  -35.2280 C.3       1 PHO408      0.0000 
     46 C2          3.2770  -61.3600  -36.6710 C.2       1 PHO408      0.0000 
     47 C3          2.2790  -60.5240  -36.9580 C.2       1 PHO408      0.0000 
     48 C4          1.4110  -60.0170  -35.8410 C.3       1 PHO408      0.0000 
     49 C5          2.0450  -60.0820  -38.3810 C.3       1 PHO408      0.0000 
     50 C6          2.1850  -58.5650  -38.4780 C.3       1 PHO408      0.0000 
     51 C7          1.7510  -58.0950  -39.8680 C.3       1 PHO408      0.0000 
     52 C8          2.3430  -56.7290  -40.2350 C.3       1 PHO408      0.0000 
     53 C9          2.1270  -55.7150  -39.1130 C.3       1 PHO408      0.0000 
     54 C10         1.7450  -56.2210  -41.5530 C.3       1 PHO408      0.0000 
     55 C11         1.9280  -57.2240  -42.6960 C.3       1 PHO408      0.0000 
     56 C12         3.3990  -57.3720  -43.0840 C.3       1 PHO408      0.0000 
     57 C13         3.5780  -58.3330  -44.2650 C.3       1 PHO408      0.0000 
     58 C14         3.2900  -59.7880  -43.8660 C.3       1 PHO408      0.0000 
     59 C15         4.9810  -58.2180  -44.8670 C.3       1 PHO408      0.0000 
     60 C16         5.1810  -56.9750  -45.7300 C.3       1 PHO408      0.0000 
     61 C17         6.6190  -56.8500  -46.2450 C.3       1 PHO408      0.0000 
     62 C18         6.7750  -55.6600  -47.1910 C.3       1 PHO408      0.0000 
     63 C19         8.1540  -55.6230  -47.8490 C.3       1 PHO408      0.0000 
     64 C20         6.4880  -54.3420  -46.4680 C.3       1 PHO408      0.0000 
@<TRIPOS>BOND
     1    1    6 2    
     2    1   36 1    
     3    1   40 1    
     4    2    9 1    
     5    2   17 2    
     6    3   20 2    
     7    3   25 1    
     8    4   28 2    
     9    4   33 1    
    10    5    6 1    
    11    5    9 2    
    12    6    7 1    
    13    7    8 1    
    14    7   11 1    
    15    8    9 1    
    16    8   10 1    
    17   11   12 1    
    18   12   13 1    
    19   13   14 2    
    20   13   15 1    
    21   15   45 1    
    22   16   17 1    
    23   16   20 1    
    24   17   18 1    
    25   18   19 2    
    26   18   21 1    
    27   19   20 1    
    28   19   22 1    
    29   22   23 2    
    30   24   25 2    
    31   24   28 1    
    32   25   26 1    
    33   26   27 2    
    34   26   29 1    
    35   27   28 1    
    36   27   30 1    
    37   30   31 1    
    38   32   33 1    
    39   32   36 1    
    40   33   34 2    
    41   34   35 1    
    42   34   37 1    
    43   35   36 2    
    44   35   38 1    
    45   38   39 2    
    46   38   40 1    
    47   40   41 1    
    48   41   42 2    
    49   41   43 1    
    50   43   44 1    
    51   45   46 1    
    52   46   47 2    
    53   47   48 1    
    54   47   49 1    
    55   49   50 1    
    56   50   51 1    
    57   51   52 1    
    58   52   53 1    
    59   52   54 1    
    60   54   55 1    
    61   55   56 1    
    62   56   57 1    
    63   57   58 1    
    64   57   59 1    
    65   59   60 1    
    66   60   61 1    
    67   61   62 1    
    68   62   63 1    
    69   62   64 1    
@<TRIPOS>SUBSTRUCTURE
     1 PHO408      1 GROUP   
@<TRIPOS>SET

