#    Name: 6jlj_4_PHO
#    Modification time : Fri May 22 19:28:07 2020

@<TRIPOS>MOLECULE
6jlj_4_PHO
   64    69     1     0     0
SMALL
NO_CHARGES


@<TRIPOS>ATOM
      1 CHA        24.7140   11.4920   10.9270 C.2       1 PHO401      0.0000 
      2 CHB        22.6080   15.4420    9.0310 C.2       1 PHO401      0.0000 
      3 CHC        20.0820   12.5120    5.9800 C.2       1 PHO401      0.0000 
      4 CHD        22.1100    8.4070    7.8880 C.2       1 PHO401      0.0000 
      5 NA         23.5840   13.3030    9.6900 N.2       1 PHO401      0.0000 
      6 C1A        24.4190   12.9150   10.6390 C.2       1 PHO401      0.0000 
      7 C2A        25.0710   14.0200   11.4070 C.3       1 PHO401      0.0000 
      8 C3A        24.1520   15.1660   11.0290 C.3       1 PHO401      0.0000 
      9 C4A        23.4280   14.5560    9.8630 C.2       1 PHO401      0.0000 
     10 CMA        23.1570   15.4790   12.1510 C.3       1 PHO401      0.0000 
     11 CAA        26.4640   14.2240   10.8190 C.3       1 PHO401      0.0000 
     12 CBA        27.1890   15.2770   11.6340 C.3       1 PHO401      0.0000 
     13 CGA        28.4730   15.7090   10.9690 C.2       1 PHO401      0.0000 
     14 O1A        28.8630   15.2230    9.9180 O.2       1 PHO401      0.0000 
     15 O2A        29.2550   16.7490   11.6070 O.3       1 PHO401      0.0000 
     16 NB         21.4820   13.7550    7.6160 N.pl3     1 PHO401      0.0000 
     17 C1B        21.6760   15.0410    7.9480 C.2       1 PHO401      0.0000 
     18 C2B        20.8720   16.0080    7.1440 C.2       1 PHO401      0.0000 
     19 C3B        20.1310   15.1030    6.2380 C.2       1 PHO401      0.0000 
     20 C4B        20.5890   13.7380    6.6240 C.2       1 PHO401      0.0000 
     21 CMB        20.8410   17.5130    7.2400 C.3       1 PHO401      0.0000 
     22 CAB        19.1430   15.3790    5.1720 C.2       1 PHO401      0.0000 
     23 CBB        19.1610   16.5120    4.5040 C.2       1 PHO401      0.0000 
     24 NC         21.3140   10.6250    7.1630 N.2       1 PHO401      0.0000 
     25 C1C        20.3720   11.0980    6.3400 C.2       1 PHO401      0.0000 
     26 C2C        19.5890   10.0360    5.6720 C.2       1 PHO401      0.0000 
     27 C3C        20.1660    8.7680    6.2060 C.2       1 PHO401      0.0000 
     28 C4C        21.2220    9.2800    7.1050 C.2       1 PHO401      0.0000 
     29 CMC        18.4860   10.2450    4.6690 C.3       1 PHO401      0.0000 
     30 CAC        19.7950    7.3220    5.9110 C.3       1 PHO401      0.0000 
     31 CBC        20.9460    6.5680    5.2720 C.3       1 PHO401      0.0000 
     32 ND         23.1290   10.3800    9.0460 N.pl3     1 PHO401      0.0000 
     33 C1D        23.0420    9.0430    8.8400 C.2       1 PHO401      0.0000 
     34 C2D        23.7950    8.1600    9.7680 C.2       1 PHO401      0.0000 
     35 C3D        24.4620    9.2160   10.5760 C.2       1 PHO401      0.0000 
     36 C4D        24.0400   10.4450   10.1070 C.2       1 PHO401      0.0000 
     37 CMD        23.9600    6.6660    9.9210 C.3       1 PHO401      0.0000 
     38 CAD        25.4190    9.4150   11.6920 C.2       1 PHO401      0.0000 
     39 OBD        26.0000    8.4800   12.3290 O.2       1 PHO401      0.0000 
     40 CBD        25.5910   10.8620   11.9420 C.3       1 PHO401      0.0000 
     41 CGD        25.0670   11.1810   13.3210 C.2       1 PHO401      0.0000 
     42 O1D        25.7740   11.2250   14.3150 O.2       1 PHO401      0.0000 
     43 O2D        23.6680   11.4580   13.5340 O.3       1 PHO401      0.0000 
     44 CED        23.2110   11.5370   14.8860 C.3       1 PHO401      0.0000 
     45 C1         30.4330   17.2000   10.9670 C.3       1 PHO401      0.0000 
     46 C2         30.0310   18.3650   10.1110 C.2       1 PHO401      0.0000 
     47 C3         30.4560   18.3720    8.8510 C.2       1 PHO401      0.0000 
     48 C4         31.3030   17.2410    8.3640 C.3       1 PHO401      0.0000 
     49 C5         30.0860   19.5150    7.9440 C.3       1 PHO401      0.0000 
     50 C6         29.3960   19.0200    6.6840 C.3       1 PHO401      0.0000 
     51 C7         29.1330   20.1990    5.7510 C.3       1 PHO401      0.0000 
     52 C8         28.1250   19.8470    4.6690 C.3       1 PHO401      0.0000 
     53 C9         28.4750   18.4940    4.0420 C.3       1 PHO401      0.0000 
     54 C10        28.0860   20.9640    3.6200 C.3       1 PHO401      0.0000 
     55 C11        27.7380   22.3340    4.2000 C.3       1 PHO401      0.0000 
     56 C12        26.2850   22.4330    4.6510 C.3       1 PHO401      0.0000 
     57 C13        25.9630   23.8470    5.1300 C.3       1 PHO401      0.0000 
     58 C14        26.8320   24.2290    6.3250 C.3       1 PHO401      0.0000 
     59 C15        24.4750   23.9570    5.4640 C.3       1 PHO401      0.0000 
     60 C16        23.6640   24.1800    4.1860 C.3       1 PHO401      0.0000 
     61 C17        22.1620   24.1080    4.4420 C.3       1 PHO401      0.0000 
     62 C18        21.3960   24.4880    3.1770 C.3       1 PHO401      0.0000 
     63 C19        19.9480   24.8560    3.5010 C.3       1 PHO401      0.0000 
     64 C20        21.4700   23.3810    2.1190 C.3       1 PHO401      0.0000 
@<TRIPOS>BOND
     1    1    6 2    
     2    1   36 1    
     3    1   40 1    
     4    2    9 1    
     5    2   17 2    
     6    3   20 2    
     7    3   25 1    
     8    4   28 2    
     9    4   33 1    
    10    5    6 1    
    11    5    9 2    
    12    6    7 1    
    13    7    8 1    
    14    7   11 1    
    15    8    9 1    
    16    8   10 1    
    17   11   12 1    
    18   12   13 1    
    19   13   14 2    
    20   13   15 1    
    21   15   45 1    
    22   16   17 1    
    23   16   20 1    
    24   17   18 1    
    25   18   19 2    
    26   18   21 1    
    27   19   20 1    
    28   19   22 1    
    29   22   23 2    
    30   24   25 2    
    31   24   28 1    
    32   25   26 1    
    33   26   27 2    
    34   26   29 1    
    35   27   28 1    
    36   27   30 1    
    37   30   31 1    
    38   32   33 1    
    39   32   36 1    
    40   33   34 2    
    41   34   35 1    
    42   34   37 1    
    43   35   36 2    
    44   35   38 1    
    45   38   39 2    
    46   38   40 1    
    47   40   41 1    
    48   41   42 2    
    49   41   43 1    
    50   43   44 1    
    51   45   46 1    
    52   46   47 2    
    53   47   48 1    
    54   47   49 1    
    55   49   50 1    
    56   50   51 1    
    57   51   52 1    
    58   52   53 1    
    59   52   54 1    
    60   54   55 1    
    61   55   56 1    
    62   56   57 1    
    63   57   58 1    
    64   57   59 1    
    65   59   60 1    
    66   60   61 1    
    67   61   62 1    
    68   62   63 1    
    69   62   64 1    
@<TRIPOS>SUBSTRUCTURE
     1 PHO401      1 GROUP   
@<TRIPOS>SET

