#    Name: 6gck_1_NAP
#    Modification time : Fri May 22 19:30:46 2020

@<TRIPOS>MOLECULE
6gck_1_NAP
   48    52     1     0     1
SMALL
NO_CHARGES


@<TRIPOS>ATOM
      1 PA         13.7520  -12.2840   11.6320 P.3       1 NAP301      0.0000 
      2 O1A        14.2430  -13.1150   10.4710 O.co2     1 NAP301      0.0000 
      3 O2A        13.3220  -12.9550   12.9260 O.co2     1 NAP301      0.0000 
      4 O5B        14.8950  -11.2120   12.0060 O.3       1 NAP301      0.0000 
      5 C5B        15.2390  -10.2050   11.0420 C.3       1 NAP301      0.0000 
      6 C4B        16.6870   -9.7580   11.1670 C.3       1 NAP301      0.0000 
      7 O4B        16.8360   -8.8110   12.2300 O.3       1 NAP301      0.0000 
      8 C3B        17.6650  -10.8730   11.5150 C.3       1 NAP301      0.0000 
      9 O3B        17.9880  -11.7240   10.3950 O.3       1 NAP301      0.0000 
     10 C2B        18.8410  -10.1100   12.1350 C.3       1 NAP301      0.0000 
     11 O2B        19.9760   -9.8580   11.2880 O.3       1 NAP301      0.0000 
     12 C1B        18.2190   -8.7860   12.5880 C.3       1 NAP301      0.0000 
     13 N9A        18.4900   -8.7350   14.0390 N.pl3     1 NAP301      0.0000 
     14 C8A        18.0390   -9.5700   15.0010 C.2       1 NAP301      0.0000 
     15 N7A        18.5610   -9.2440   16.2120 N.2       1 NAP301      0.0000 
     16 C5A        19.3700   -8.1790   16.0280 C.ar      1 NAP301      0.0000 
     17 C6A        20.2490   -7.3160   16.8740 C.ar      1 NAP301      0.0000 
     18 N6A        20.3720   -7.5180   18.2090 N.pl3     1 NAP301      0.0000 
     19 N1A        20.9200   -6.3110   16.2620 N.ar      1 NAP301      0.0000 
     20 C2A        20.8320   -6.0910   14.9330 C.ar      1 NAP301      0.0000 
     21 N3A        20.0720   -6.8280   14.0930 N.ar      1 NAP301      0.0000 
     22 C4A        19.3340   -7.8640   14.5810 C.ar      1 NAP301      0.0000 
     23 O3         12.6310  -11.2950   11.0230 O.3       1 NAP301      0.0000 
     24 PN         11.4910  -11.7730    9.9740 P.3       1 NAP301      0.0000 
     25 O1N        12.0840  -11.7520    8.5810 O.co2     1 NAP301      0.0000 
     26 O2N        10.8910  -13.0500   10.5270 O.co2     1 NAP301      0.0000 
     27 O5D        10.4320  -10.5640   10.1200 O.3       1 NAP301      0.0000 
     28 C5D        10.7220   -9.2370    9.6710 C.3       1 NAP301      0.0000 
     29 C4D         9.8840   -8.2160   10.4390 C.3       1 NAP301      0.0000 
     30 O4D         8.4890   -8.5740   10.4290 O.3       1 NAP301      0.0000 
     31 C3D        10.3250   -8.1190   11.9040 C.3       1 NAP301      0.0000 
     32 O3D        10.3740   -6.7550   12.3690 O.3       1 NAP301      0.0000 
     33 C2D         9.2700   -8.9160   12.6480 C.3       1 NAP301      0.0000 
     34 O2D         9.1270   -8.5460   14.0290 O.3       1 NAP301      0.0000 
     35 C1D         8.0180   -8.7200   11.7830 C.3       1 NAP301      0.0000 
     36 N1N         7.1140   -9.8650   11.9040 N.pl3     1 NAP301      0.0000 
     37 C2N         7.4400  -11.0280   11.2950 C.ar      1 NAP301      0.0000 
     38 C3N         6.6080  -12.1380   11.3770 C.ar      1 NAP301      0.0000 
     39 C7N         7.0020  -13.4330   10.6910 C.2       1 NAP301      0.0000 
     40 O7N         6.1830  -14.3420   10.6060 O.2       1 NAP301      0.0000 
     41 N7N         8.2420  -13.5960   10.2000 N.am      1 NAP301      0.0000 
     42 C4N         5.4180  -12.0130   12.1160 C.ar      1 NAP301      0.0000 
     43 C5N         5.0900  -10.8030   12.7440 C.ar      1 NAP301      0.0000 
     44 C6N         5.9700   -9.7260   12.6170 C.ar      1 NAP301      0.0000 
     45 P2B        21.2270  -10.8670   11.0860 P.3       1 NAP301      0.0000 
     46 O1X        22.0850  -10.0700   10.1200 O.co2     1 NAP301      0.0000 
     47 O2X        20.5910  -12.1030   10.4770 O.co2     1 NAP301      0.0000 
     48 O3X        21.8720  -11.0970   12.4350 O.co2     1 NAP301      0.0000 
@<TRIPOS>BOND
     1    1    2 ar   
     2    1    3 ar   
     3    1    4 1    
     4    1   23 1    
     5    4    5 1    
     6    5    6 1    
     7    6    7 1    
     8    6    8 1    
     9    7   12 1    
    10    8    9 1    
    11    8   10 1    
    12   10   11 1    
    13   10   12 1    
    14   11   45 1    
    15   12   13 1    
    16   13   14 1    
    17   13   22 1    
    18   14   15 2    
    19   15   16 1    
    20   16   17 ar   
    21   16   22 ar   
    22   17   18 1    
    23   17   19 ar   
    24   19   20 ar   
    25   20   21 ar   
    26   21   22 ar   
    27   23   24 1    
    28   24   25 ar   
    29   24   26 ar   
    30   24   27 1    
    31   27   28 1    
    32   28   29 1    
    33   29   30 1    
    34   29   31 1    
    35   30   35 1    
    36   31   32 1    
    37   31   33 1    
    38   33   34 1    
    39   33   35 1    
    40   35   36 1    
    41   36   37 ar   
    42   36   44 ar   
    43   37   38 ar   
    44   38   39 1    
    45   38   42 ar   
    46   39   40 2    
    47   39   41 am   
    48   42   43 ar   
    49   43   44 ar   
    50   45   46 ar   
    51   45   47 ar   
    52   45   48 ar   
@<TRIPOS>SUBSTRUCTURE
     1 NAP301      1 GROUP   
@<TRIPOS>SET
ATOM$ORANGE STATIC     ATOMS   COLORGROUP SYSTEM 
42 5 5 6 6 8 8 10 10 12 12 14 14 16 16 17 17 20 \
20 22 22 28 28 29 29 31 31 33 33 35 35 37 37 38 38 39 \
39 42 42 43 43 44 44 

