#    Name: 6gck_3_NAP
#    Modification time : Fri May 22 19:30:51 2020

@<TRIPOS>MOLECULE
6gck_3_NAP
   48    52     1     0     1
SMALL
NO_CHARGES


@<TRIPOS>ATOM
      1 PA          4.3430   13.2550   37.4200 P.3       1 NAP301      0.0000 
      2 O1A         4.0620   14.0980   38.6530 O.co2     1 NAP301      0.0000 
      3 O2A         5.0610   13.8560   36.2360 O.co2     1 NAP301      0.0000 
      4 O5B         4.9910   11.8660   37.8550 O.3       1 NAP301      0.0000 
      5 C5B         6.2510   11.8980   38.4410 C.3       1 NAP301      0.0000 
      6 C4B         6.2020   11.0490   39.6870 C.3       1 NAP301      0.0000 
      7 O4B         6.8810    9.8430   39.3470 O.3       1 NAP301      0.0000 
      8 C3B         7.0050   11.8290   40.7240 C.3       1 NAP301      0.0000 
      9 O3B         6.3630   11.8220   42.0300 O.3       1 NAP301      0.0000 
     10 C2B         8.3940   11.1750   40.6490 C.3       1 NAP301      0.0000 
     11 O2B         9.0080   10.8720   41.8990 O.3       1 NAP301      0.0000 
     12 C1B         8.2230    9.8780   39.8490 C.3       1 NAP301      0.0000 
     13 N9A         9.3200    9.8480   38.8380 N.pl3     1 NAP301      0.0000 
     14 C8A         9.5220   10.6440   37.7550 C.2       1 NAP301      0.0000 
     15 N7A        10.6780   10.3170   37.1130 N.2       1 NAP301      0.0000 
     16 C5A        11.2420    9.2840   37.7980 C.ar      1 NAP301      0.0000 
     17 C6A        12.4670    8.4400   37.7060 C.ar      1 NAP301      0.0000 
     18 N6A        13.3800    8.6010   36.7120 N.pl3     1 NAP301      0.0000 
     19 N1A        12.6460    7.4750   38.6530 N.ar      1 NAP301      0.0000 
     20 C2A        11.7740    7.2600   39.6630 C.ar      1 NAP301      0.0000 
     21 N3A        10.6440    7.9850   39.8230 N.ar      1 NAP301      0.0000 
     22 C4A        10.3390    8.9930   38.9440 C.ar      1 NAP301      0.0000 
     23 O3          3.0530   12.5080   36.8700 O.3       1 NAP301      0.0000 
     24 PN          1.5590   12.7520   37.3530 P.3       1 NAP301      0.0000 
     25 O1N         1.2210   14.0390   36.6470 O.co2     1 NAP301      0.0000 
     26 O2N         1.3500   12.5440   38.8370 O.co2     1 NAP301      0.0000 
     27 O5D         0.9420   11.4830   36.5530 O.3       1 NAP301      0.0000 
     28 C5D         1.0260   10.1460   37.0480 C.3       1 NAP301      0.0000 
     29 C4D         0.7630    9.1550   35.9140 C.3       1 NAP301      0.0000 
     30 O4D        -0.3710    9.5380   35.0970 O.3       1 NAP301      0.0000 
     31 C3D         1.9880    9.0650   35.0030 C.3       1 NAP301      0.0000 
     32 O3D         2.3520    7.7050   34.7490 O.3       1 NAP301      0.0000 
     33 C2D         1.5390    9.7400   33.7310 C.3       1 NAP301      0.0000 
     34 O2D         2.2560    9.3270   32.5610 O.3       1 NAP301      0.0000 
     35 C1D         0.0240    9.4990   33.7200 C.3       1 NAP301      0.0000 
     36 N1N        -0.6290   10.5710   32.9830 N.pl3     1 NAP301      0.0000 
     37 C2N        -0.7970   11.7720   33.6050 C.ar      1 NAP301      0.0000 
     38 C3N        -1.4030   12.8260   32.9290 C.ar      1 NAP301      0.0000 
     39 C7N        -1.5920   14.1640   33.6090 C.2       1 NAP301      0.0000 
     40 O7N        -2.3830   14.9450   33.1370 O.2       1 NAP301      0.0000 
     41 N7N        -0.8960   14.4980   34.7050 N.am      1 NAP301      0.0000 
     42 C4N        -1.8320   12.6020   31.6190 C.ar      1 NAP301      0.0000 
     43 C5N        -1.6450   11.3660   30.9870 C.ar      1 NAP301      0.0000 
     44 C6N        -1.0380   10.3380   31.7060 C.ar      1 NAP301      0.0000 
     45 P2B         9.8000   11.9740   42.7770 P.3       1 NAP301      0.0000 
     46 O1X         9.0100   13.2550   42.7160 O.co2     1 NAP301      0.0000 
     47 O2X         9.8270   11.2850   44.1380 O.co2     1 NAP301      0.0000 
     48 O3X        11.1430   12.1350   42.0810 O.co2     1 NAP301      0.0000 
@<TRIPOS>BOND
     1    1    2 ar   
     2    1    3 ar   
     3    1    4 1    
     4    1   23 1    
     5    4    5 1    
     6    5    6 1    
     7    6    7 1    
     8    6    8 1    
     9    7   12 1    
    10    8    9 1    
    11    8   10 1    
    12   10   11 1    
    13   10   12 1    
    14   11   45 1    
    15   12   13 1    
    16   13   14 1    
    17   13   22 1    
    18   14   15 2    
    19   15   16 1    
    20   16   17 ar   
    21   16   22 ar   
    22   17   18 1    
    23   17   19 ar   
    24   19   20 ar   
    25   20   21 ar   
    26   21   22 ar   
    27   23   24 1    
    28   24   25 ar   
    29   24   26 ar   
    30   24   27 1    
    31   27   28 1    
    32   28   29 1    
    33   29   30 1    
    34   29   31 1    
    35   30   35 1    
    36   31   32 1    
    37   31   33 1    
    38   33   34 1    
    39   33   35 1    
    40   35   36 1    
    41   36   37 ar   
    42   36   44 ar   
    43   37   38 ar   
    44   38   39 1    
    45   38   42 ar   
    46   39   40 2    
    47   39   41 am   
    48   42   43 ar   
    49   43   44 ar   
    50   45   46 ar   
    51   45   47 ar   
    52   45   48 ar   
@<TRIPOS>SUBSTRUCTURE
     1 NAP301      1 GROUP   
@<TRIPOS>SET
ATOM$ORANGE STATIC     ATOMS   COLORGROUP SYSTEM 
42 5 5 6 6 8 8 10 10 12 12 14 14 16 16 17 17 20 \
20 22 22 28 28 29 29 31 31 33 33 35 35 37 37 38 38 39 \
39 42 42 43 43 44 44 

