#    Name: 5zj9_4_FAD
#    Modification time : Fri May 22 19:24:55 2020

@<TRIPOS>MOLECULE
5zj9_4_FAD
   53    58     1     0     1
SMALL
NO_CHARGES


@<TRIPOS>ATOM
      1 PA        113.8530   23.2440   42.2560 P.3       1 FAD401      0.0000 
      2 O1A       114.2680   24.5840   42.7550 O.co2     1 FAD401      0.0000 
      3 O2A       114.5880   22.5120   41.1870 O.co2     1 FAD401      0.0000 
      4 O5B       114.9130   22.6270   43.3110 O.3       1 FAD401      0.0000 
      5 C5B       115.1880   21.2190   43.3510 C.3       1 FAD401      0.0000 
      6 C4B       116.0610   20.9170   44.5690 C.3       1 FAD401      0.0000 
      7 O4B       116.0580   19.4680   44.7820 O.3       1 FAD401      0.0000 
      8 C3B       117.5170   21.2530   44.2760 C.3       1 FAD401      0.0000 
      9 O3B       118.2380   21.3350   45.5080 O.3       1 FAD401      0.0000 
     10 C2B       117.9150   19.9860   43.5780 C.3       1 FAD401      0.0000 
     11 O2B       119.3390   19.9130   43.4260 O.3       1 FAD401      0.0000 
     12 C1B       117.4480   19.0650   44.6750 C.3       1 FAD401      0.0000 
     13 N9A       117.6030   17.6110   44.3560 N.pl3     1 FAD401      0.0000 
     14 C8A       116.9650   16.9640   43.3840 C.2       1 FAD401      0.0000 
     15 N7A       117.3520   15.6910   43.4080 N.2       1 FAD401      0.0000 
     16 C5A       118.2310   15.5430   44.3960 C.ar      1 FAD401      0.0000 
     17 C6A       118.9040   14.4730   44.8270 C.ar      1 FAD401      0.0000 
     18 N6A       118.6850   13.3310   44.1790 N.pl3     1 FAD401      0.0000 
     19 N1A       119.7580   14.5380   45.8560 N.ar      1 FAD401      0.0000 
     20 C2A       119.9390   15.7670   46.4900 C.ar      1 FAD401      0.0000 
     21 N3A       119.2240   16.8720   46.0200 N.ar      1 FAD401      0.0000 
     22 C4A       118.3860   16.7330   44.9830 C.ar      1 FAD401      0.0000 
     23 N1        107.1170   29.8280   39.5310 N.2       1 FAD401      0.0000 
     24 C2        106.3780   30.8860   40.0720 C.2       1 FAD401      0.0000 
     25 O2        105.6970   30.7060   41.0810 O.2       1 FAD401      0.0000 
     26 N3        106.4140   32.1460   39.4630 N.am      1 FAD401      0.0000 
     27 C4        107.1920   32.3430   38.3130 C.2       1 FAD401      0.0000 
     28 O4        107.2190   33.4530   37.7810 O.2       1 FAD401      0.0000 
     29 C4X       107.9260   31.2870   37.7810 C.2       1 FAD401      0.0000 
     30 N5        108.6650   31.4790   36.6790 N.2       1 FAD401      0.0000 
     31 C5X       109.3740   30.4670   36.1590 C.ar      1 FAD401      0.0000 
     32 C6        110.1400   30.6710   35.0170 C.ar      1 FAD401      0.0000 
     33 C7        110.8780   29.6240   34.4770 C.ar      1 FAD401      0.0000 
     34 C7M       111.6420   29.8350   33.3350 C.3       1 FAD401      0.0000 
     35 C8        110.8520   28.3710   35.0800 C.ar      1 FAD401      0.0000 
     36 C8M       111.5900   27.3160   34.5480 C.3       1 FAD401      0.0000 
     37 C9        110.0840   28.1700   36.2220 C.ar      1 FAD401      0.0000 
     38 C9A       109.3470   29.2160   36.7650 C.ar      1 FAD401      0.0000 
     39 N10       108.6030   29.0200   37.8650 N.pl3     1 FAD401      0.0000 
     40 C10       107.8930   30.0330   38.3840 C.2       1 FAD401      0.0000 
     41 C1'       108.5360   27.6790   38.4850 C.3       1 FAD401      0.0000 
     42 C2'       109.4830   27.5420   39.6760 C.3       1 FAD401      0.0000 
     43 O2'       110.8040   27.9130   39.2800 O.3       1 FAD401      0.0000 
     44 C3'       109.4810   26.0870   40.1520 C.3       1 FAD401      0.0000 
     45 O3'       108.1340   25.6200   40.2370 O.3       1 FAD401      0.0000 
     46 C4'       110.1350   25.9980   41.5330 C.3       1 FAD401      0.0000 
     47 O4'       111.4060   26.6520   41.5040 O.3       1 FAD401      0.0000 
     48 C5'       110.3280   24.5310   41.9260 C.3       1 FAD401      0.0000 
     49 O5'       111.3600   24.4500   42.9110 O.3       1 FAD401      0.0000 
     50 P         111.5300   23.1440   43.8210 P.3       1 FAD401      0.0000 
     51 O1P       111.9100   23.5680   45.1840 O.co2     1 FAD401      0.0000 
     52 O2P       110.3480   22.2780   43.6240 O.co2     1 FAD401      0.0000 
     53 O3P       112.7980   22.4050   43.1630 O.3       1 FAD401      0.0000 
@<TRIPOS>BOND
     1    1    2 ar   
     2    1    3 ar   
     3    1    4 1    
     4    1   53 1    
     5    4    5 1    
     6    5    6 1    
     7    6    7 1    
     8    6    8 1    
     9    7   12 1    
    10    8    9 1    
    11    8   10 1    
    12   10   11 1    
    13   10   12 1    
    14   12   13 1    
    15   13   14 1    
    16   13   22 1    
    17   14   15 2    
    18   15   16 1    
    19   16   17 ar   
    20   16   22 ar   
    21   17   18 1    
    22   17   19 ar   
    23   19   20 ar   
    24   20   21 ar   
    25   21   22 ar   
    26   23   24 1    
    27   23   40 2    
    28   24   25 2    
    29   24   26 am   
    30   26   27 am   
    31   27   28 2    
    32   27   29 1    
    33   29   30 2    
    34   29   40 1    
    35   30   31 1    
    36   31   32 ar   
    37   31   38 ar   
    38   32   33 ar   
    39   33   34 1    
    40   33   35 ar   
    41   35   36 1    
    42   35   37 ar   
    43   37   38 ar   
    44   38   39 1    
    45   39   40 1    
    46   39   41 1    
    47   41   42 1    
    48   42   43 1    
    49   42   44 1    
    50   44   45 1    
    51   44   46 1    
    52   46   47 1    
    53   46   48 1    
    54   48   49 1    
    55   49   50 1    
    56   50   51 ar   
    57   50   52 ar   
    58   50   53 1    
@<TRIPOS>SUBSTRUCTURE
     1 FAD401      1 GROUP   
@<TRIPOS>SET
ATOM$ORANGE STATIC     ATOMS   COLORGROUP SYSTEM 
54 5 5 6 6 8 8 10 10 12 12 14 14 16 16 17 17 20 \
20 22 22 24 24 27 27 29 29 31 31 32 32 33 33 34 34 35 \
35 36 36 37 37 38 38 40 40 41 41 42 42 44 44 46 46 48 \
48 

