#    Name: 5zj9_3_FAD
#    Modification time : Fri May 22 19:24:47 2020

@<TRIPOS>MOLECULE
5zj9_3_FAD
   53    58     1     0     1
SMALL
NO_CHARGES


@<TRIPOS>ATOM
      1 PA        111.8050   76.1510   34.4940 P.3       1 FAD401      0.0000 
      2 O1A       112.2580   74.8450   33.9380 O.co2     1 FAD401      0.0000 
      3 O2A       112.5740   76.8960   35.5300 O.co2     1 FAD401      0.0000 
      4 O5B       112.7280   76.8640   33.3650 O.3       1 FAD401      0.0000 
      5 C5B       113.0360   78.2630   33.4240 C.3       1 FAD401      0.0000 
      6 C4B       113.9000   78.6420   32.2200 C.3       1 FAD401      0.0000 
      7 O4B       113.7820   80.0880   32.0370 O.3       1 FAD401      0.0000 
      8 C3B       115.3770   78.4220   32.5180 C.3       1 FAD401      0.0000 
      9 O3B       116.1050   78.4000   31.2900 O.3       1 FAD401      0.0000 
     10 C2B       115.6760   79.7170   33.2140 C.3       1 FAD401      0.0000 
     11 O2B       117.0960   79.9030   33.3580 O.3       1 FAD401      0.0000 
     12 C1B       115.1290   80.5970   32.1240 C.3       1 FAD401      0.0000 
     13 N9A       115.1420   82.0500   32.4590 N.pl3     1 FAD401      0.0000 
     14 C8A       114.4140   82.6200   33.4160 C.2       1 FAD401      0.0000 
     15 N7A       114.6850   83.9220   33.4190 N.2       1 FAD401      0.0000 
     16 C5A       115.5810   84.1640   32.4660 C.ar      1 FAD401      0.0000 
     17 C6A       116.1670   85.2960   32.0740 C.ar      1 FAD401      0.0000 
     18 N6A       115.8180   86.4000   32.7300 N.pl3     1 FAD401      0.0000 
     19 N1A       117.0580   85.3250   31.0750 N.ar      1 FAD401      0.0000 
     20 C2A       117.3750   84.1300   30.4320 C.ar      1 FAD401      0.0000 
     21 N3A       116.7480   82.9570   30.8640 N.ar      1 FAD401      0.0000 
     22 C4A       115.8650   83.0030   31.8710 C.ar      1 FAD401      0.0000 
     23 N1        105.5250   69.0570   37.2170 N.2       1 FAD401      0.0000 
     24 C2        104.8990   67.9270   36.6780 C.2       1 FAD401      0.0000 
     25 O2        104.2060   68.0260   35.6670 O.2       1 FAD401      0.0000 
     26 N3        105.0630   66.6820   37.2870 N.am      1 FAD401      0.0000 
     27 C4        105.8520   66.5650   38.4350 C.2       1 FAD401      0.0000 
     28 O4        105.9880   65.4620   38.9620 O.2       1 FAD401      0.0000 
     29 C4X       106.4720   67.6900   38.9690 C.2       1 FAD401      0.0000 
     30 N5        107.2240   67.5710   40.0720 N.2       1 FAD401      0.0000 
     31 C5X       107.8260   68.6490   40.5910 C.ar      1 FAD401      0.0000 
     32 C6        108.6080   68.5170   41.7320 C.ar      1 FAD401      0.0000 
     33 C7        109.2390   69.6290   42.2780 C.ar      1 FAD401      0.0000 
     34 C7M       110.0170   69.4810   43.4210 C.3       1 FAD401      0.0000 
     35 C8        109.0860   70.8780   41.6790 C.ar      1 FAD401      0.0000 
     36 C8M       109.7130   71.9990   42.2150 C.3       1 FAD401      0.0000 
     37 C9        108.3040   71.0080   40.5360 C.ar      1 FAD401      0.0000 
     38 C9A       107.6740   69.8940   39.9890 C.ar      1 FAD401      0.0000 
     39 N10       106.9160   70.0160   38.8880 N.pl3     1 FAD401      0.0000 
     40 C10       106.3140   68.9350   38.3670 C.2       1 FAD401      0.0000 
     41 C1'       106.7270   71.3440   38.2600 C.3       1 FAD401      0.0000 
     42 C2'       107.6840   71.5700   37.0920 C.3       1 FAD401      0.0000 
     43 O2'       109.0300   71.3690   37.5300 O.3       1 FAD401      0.0000 
     44 C3'       107.5220   73.0030   36.5870 C.3       1 FAD401      0.0000 
     45 O3'       106.1320   73.3030   36.4450 O.3       1 FAD401      0.0000 
     46 C4'       108.2110   73.1520   35.2310 C.3       1 FAD401      0.0000 
     47 O4'       109.5430   72.6410   35.3100 O.3       1 FAD401      0.0000 
     48 C5'       108.2600   74.6310   34.8480 C.3       1 FAD401      0.0000 
     49 O5'       109.3560   74.8300   33.9560 O.3       1 FAD401      0.0000 
     50 P         109.4250   76.1270   33.0250 P.3       1 FAD401      0.0000 
     51 O1P       109.8280   75.6980   31.6700 O.co2     1 FAD401      0.0000 
     52 O2P       108.1880   76.9130   33.2120 O.co2     1 FAD401      0.0000 
     53 O3P       110.6430   76.9490   33.6800 O.3       1 FAD401      0.0000 
@<TRIPOS>BOND
     1    1    2 ar   
     2    1    3 ar   
     3    1    4 1    
     4    1   53 1    
     5    4    5 1    
     6    5    6 1    
     7    6    7 1    
     8    6    8 1    
     9    7   12 1    
    10    8    9 1    
    11    8   10 1    
    12   10   11 1    
    13   10   12 1    
    14   12   13 1    
    15   13   14 1    
    16   13   22 1    
    17   14   15 2    
    18   15   16 1    
    19   16   17 ar   
    20   16   22 ar   
    21   17   18 1    
    22   17   19 ar   
    23   19   20 ar   
    24   20   21 ar   
    25   21   22 ar   
    26   23   24 1    
    27   23   40 2    
    28   24   25 2    
    29   24   26 am   
    30   26   27 am   
    31   27   28 2    
    32   27   29 1    
    33   29   30 2    
    34   29   40 1    
    35   30   31 1    
    36   31   32 ar   
    37   31   38 ar   
    38   32   33 ar   
    39   33   34 1    
    40   33   35 ar   
    41   35   36 1    
    42   35   37 ar   
    43   37   38 ar   
    44   38   39 1    
    45   39   40 1    
    46   39   41 1    
    47   41   42 1    
    48   42   43 1    
    49   42   44 1    
    50   44   45 1    
    51   44   46 1    
    52   46   47 1    
    53   46   48 1    
    54   48   49 1    
    55   49   50 1    
    56   50   51 ar   
    57   50   52 ar   
    58   50   53 1    
@<TRIPOS>SUBSTRUCTURE
     1 FAD401      1 GROUP   
@<TRIPOS>SET
ATOM$ORANGE STATIC     ATOMS   COLORGROUP SYSTEM 
54 5 5 6 6 8 8 10 10 12 12 14 14 16 16 17 17 20 \
20 22 22 24 24 27 27 29 29 31 31 32 32 33 33 34 34 35 \
35 36 36 37 37 38 38 40 40 41 41 42 42 44 44 46 46 48 \
48 

