#    Name: 5zj9_1_FAD
#    Modification time : Fri May 22 19:24:40 2020

@<TRIPOS>MOLECULE
5zj9_1_FAD
   53    58     1     0     1
SMALL
NO_CHARGES


@<TRIPOS>ATOM
      1 PA        135.5900   24.1530   34.5290 P.3       1 FAD401      0.0000 
      2 O1A       135.1370   25.4570   33.9730 O.co2     1 FAD401      0.0000 
      3 O2A       134.8270   23.4070   35.5680 O.co2     1 FAD401      0.0000 
      4 O5B       134.6370   23.4510   33.4340 O.3       1 FAD401      0.0000 
      5 C5B       134.5130   22.0250   33.3830 C.3       1 FAD401      0.0000 
      6 C4B       133.6350   21.6410   32.1930 C.3       1 FAD401      0.0000 
      7 O4B       133.8010   20.2040   31.9720 O.3       1 FAD401      0.0000 
      8 C3B       132.1620   21.8010   32.5520 C.3       1 FAD401      0.0000 
      9 O3B       131.3690   21.7650   31.3630 O.3       1 FAD401      0.0000 
     10 C2B       131.9630   20.5080   33.2720 C.3       1 FAD401      0.0000 
     11 O2B       130.5670   20.2690   33.5000 O.3       1 FAD401      0.0000 
     12 C1B       132.4800   19.6450   32.1490 C.3       1 FAD401      0.0000 
     13 N9A       132.5130   18.1920   32.4760 N.pl3     1 FAD401      0.0000 
     14 C8A       133.2550   17.6210   33.4200 C.2       1 FAD401      0.0000 
     15 N7A       133.0060   16.3140   33.4020 N.2       1 FAD401      0.0000 
     16 C5A       132.1110   16.0710   32.4470 C.ar      1 FAD401      0.0000 
     17 C6A       131.5410   14.9370   32.0340 C.ar      1 FAD401      0.0000 
     18 N6A       131.9070   13.8240   32.6630 N.pl3     1 FAD401      0.0000 
     19 N1A       130.6470   14.9120   31.0380 N.ar      1 FAD401      0.0000 
     20 C2A       130.3060   16.1140   30.4180 C.ar      1 FAD401      0.0000 
     21 N3A       130.9170   17.2870   30.8710 N.ar      1 FAD401      0.0000 
     22 C4A       131.8050   17.2370   31.8750 C.ar      1 FAD401      0.0000 
     23 N1        141.9380   31.0900   37.4870 N.2       1 FAD401      0.0000 
     24 C2        142.5790   32.2190   36.9710 C.2       1 FAD401      0.0000 
     25 O2        143.2910   32.1150   35.9720 O.2       1 FAD401      0.0000 
     26 N3        142.4070   33.4610   37.5960 N.am      1 FAD401      0.0000 
     27 C4        141.5930   33.5670   38.7330 C.2       1 FAD401      0.0000 
     28 O4        141.4480   34.6620   39.2760 O.2       1 FAD401      0.0000 
     29 C4X       140.9590   32.4360   39.2410 C.2       1 FAD401      0.0000 
     30 N5        140.1830   32.5390   40.3300 N.2       1 FAD401      0.0000 
     31 C5X       139.5640   31.4550   40.8180 C.ar      1 FAD401      0.0000 
     32 C6        138.7550   31.5640   41.9450 C.ar      1 FAD401      0.0000 
     33 C7        138.1090   30.4420   42.4530 C.ar      1 FAD401      0.0000 
     34 C7M       137.3020   30.5600   43.5800 C.3       1 FAD401      0.0000 
     35 C8        138.2720   29.2060   41.8310 C.ar      1 FAD401      0.0000 
     36 C8M       137.6290   28.0760   42.3270 C.3       1 FAD401      0.0000 
     37 C9        139.0810   29.0990   40.7050 C.ar      1 FAD401      0.0000 
     38 C9A       139.7270   30.2210   40.1960 C.ar      1 FAD401      0.0000 
     39 N10       140.5100   30.1150   39.1110 N.pl3     1 FAD401      0.0000 
     40 C10       141.1260   31.2010   38.6220 C.2       1 FAD401      0.0000 
     41 C1'       140.7080   28.8000   38.4590 C.3       1 FAD401      0.0000 
     42 C2'       139.8150   28.6300   37.2290 C.3       1 FAD401      0.0000 
     43 O2'       138.4490   28.8340   37.5950 O.3       1 FAD401      0.0000 
     44 C3'       139.9820   27.2160   36.6690 C.3       1 FAD401      0.0000 
     45 O3'       141.3730   26.8920   36.5780 O.3       1 FAD401      0.0000 
     46 C4'       139.3430   27.1420   35.2790 C.3       1 FAD401      0.0000 
     47 O4'       137.9760   27.5580   35.3560 O.3       1 FAD401      0.0000 
     48 C5'       139.4140   25.7040   34.7580 C.3       1 FAD401      0.0000 
     49 O5'       138.1560   25.3480   34.1790 O.3       1 FAD401      0.0000 
     50 P         138.0540   24.1030   33.1700 P.3       1 FAD401      0.0000 
     51 O1P       137.7600   24.5970   31.8060 O.co2     1 FAD401      0.0000 
     52 O2P       139.2250   23.2310   33.3970 O.co2     1 FAD401      0.0000 
     53 O3P       136.7400   23.3390   33.7070 O.3       1 FAD401      0.0000 
@<TRIPOS>BOND
     1    1    2 ar   
     2    1    3 ar   
     3    1    4 1    
     4    1   53 1    
     5    4    5 1    
     6    5    6 1    
     7    6    7 1    
     8    6    8 1    
     9    7   12 1    
    10    8    9 1    
    11    8   10 1    
    12   10   11 1    
    13   10   12 1    
    14   12   13 1    
    15   13   14 1    
    16   13   22 1    
    17   14   15 2    
    18   15   16 1    
    19   16   17 ar   
    20   16   22 ar   
    21   17   18 1    
    22   17   19 ar   
    23   19   20 ar   
    24   20   21 ar   
    25   21   22 ar   
    26   23   24 1    
    27   23   40 2    
    28   24   25 2    
    29   24   26 am   
    30   26   27 am   
    31   27   28 2    
    32   27   29 1    
    33   29   30 2    
    34   29   40 1    
    35   30   31 1    
    36   31   32 ar   
    37   31   38 ar   
    38   32   33 ar   
    39   33   34 1    
    40   33   35 ar   
    41   35   36 1    
    42   35   37 ar   
    43   37   38 ar   
    44   38   39 1    
    45   39   40 1    
    46   39   41 1    
    47   41   42 1    
    48   42   43 1    
    49   42   44 1    
    50   44   45 1    
    51   44   46 1    
    52   46   47 1    
    53   46   48 1    
    54   48   49 1    
    55   49   50 1    
    56   50   51 ar   
    57   50   52 ar   
    58   50   53 1    
@<TRIPOS>SUBSTRUCTURE
     1 FAD401      1 GROUP   
@<TRIPOS>SET
ATOM$ORANGE STATIC     ATOMS   COLORGROUP SYSTEM 
54 5 5 6 6 8 8 10 10 12 12 14 14 16 16 17 17 20 \
20 22 22 24 24 27 27 29 29 31 31 32 32 33 33 34 34 35 \
35 36 36 37 37 38 38 40 40 41 41 42 42 44 44 46 46 48 \
48 

