#    Name: 6kcl_4_PHB_CAVITY_N1_4
#    Modification time : Fri May 22 19:26:02 2020

@<TRIPOS>MOLECULE
6kcl_4_PHB_CAVITY_N1_4
   23     0     6     0     0
SMALL
NO_CHARGES


@<TRIPOS>ATOM
      1 N         -11.6700   -0.4700  -48.2400 N.am      1 ALA2        0.0000 
      2 OD1       -14.8300    0.6400  -46.7400 O.co2     2 ASP3        0.0000 
      3 OD1       -16.1000    2.2100  -46.0700 O.co2     2 ASP3        0.0000 
      4 OD1       -15.4000    1.8900  -47.3600 O.co2     2 ASP3        0.0000 
      5 NZ        -16.6700    3.4500  -46.6800 N.4       3 LYS4        0.0000 
      6 NZ        -17.2300    4.7000  -47.3000 N.4       3 LYS4        0.0000 
      7 NZ        -15.9000    6.4000  -48.7400 N.4       3 LYS4        0.0000 
      8 CZ        -14.9000    2.9800  -45.6100 C.ar      4 PHE5        0.0000 
      9 CZ        -14.2000    2.6600  -46.9000 C.ar      4 PHE5        0.0000 
     10 CZ        -16.1600    4.5500  -44.9400 C.ar      4 PHE5        0.0000 
     11 CZ        -15.4700    4.2300  -46.2200 C.ar      4 PHE5        0.0000 
     12 CZ        -14.7700    3.9100  -47.5100 C.ar      4 PHE5        0.0000 
     13 CZ        -16.0300    5.4700  -46.8400 C.ar      4 PHE5        0.0000 
     14 CZ        -15.3300    5.1500  -48.1300 C.ar      4 PHE5        0.0000 
     15 CZ        -13.0000    3.4300  -46.4400 C.ar      4 PHE5        0.0000 
     16 CA        -13.6300    1.4200  -46.2800 C.3       5 GLY6        0.0000 
     17 CA        -12.9300    1.1000  -47.5700 C.3       5 GLY6        0.0000 
     18 DU        -14.1300    0.3200  -48.0300 H         6 CUB7        0.0000 
     19 DU        -14.7000    1.5700  -48.6400 H         6 CUB7        0.0000 
     20 DU        -15.9700    3.1300  -47.9700 H         6 CUB7        0.0000 
     21 DU        -16.5300    4.3800  -48.5900 H         6 CUB7        0.0000 
     22 DU        -12.2300    0.7800  -48.8600 H         6 CUB7        0.0000 
     23 DU        -13.5000    2.3400  -48.1800 H         6 CUB7        0.0000 
@<TRIPOS>BOND
@<TRIPOS>SUBSTRUCTURE
     1 ALA2        1 GROUP   
     2 ASP3        2 GROUP   
     3 LYS4        5 GROUP   
     4 PHE5        8 GROUP   
     5 GLY6       16 GROUP   
     6 CUB7       18 GROUP   
@<TRIPOS>SET

