#    Name: 6kcl_6_ATP
#    Modification time : Fri May 22 19:26:09 2020

@<TRIPOS>MOLECULE
6kcl_6_ATP
   31    33     1     0     1
SMALL
NO_CHARGES


@<TRIPOS>ATOM
      1 PG        -43.2030    4.2190   -7.2720 P.3       1 ATP803      0.0000 
      2 O1G       -43.8210    3.5540   -6.0630 O.co2     1 ATP803      0.0000 
      3 O2G       -42.8180    3.2490   -8.3660 O.co2     1 ATP803      0.0000 
      4 O3G       -42.1390    5.2440   -6.9340 O.co2     1 ATP803      0.0000 
      5 PB        -45.7530    4.4750   -8.5310 P.3       1 ATP803      0.0000 
      6 O1B       -45.5220    4.0140   -9.9520 O.co2     1 ATP803      0.0000 
      7 O2B       -46.3230    3.5070   -7.5180 O.co2     1 ATP803      0.0000 
      8 O3B       -44.3910    5.1020   -7.9250 O.3       1 ATP803      0.0000 
      9 PA        -46.8490    6.7780   -9.8200 P.3       1 ATP803      0.0000 
     10 O1A       -47.4840    6.0480  -10.9900 O.co2     1 ATP803      0.0000 
     11 O2A       -45.5020    7.4460  -10.0030 O.co2     1 ATP803      0.0000 
     12 O3A       -46.7350    5.7590   -8.5690 O.3       1 ATP803      0.0000 
     13 O5'       -47.8950    7.8800   -9.2530 O.3       1 ATP803      0.0000 
     14 C5'       -47.4860    9.2090   -8.9060 C.3       1 ATP803      0.0000 
     15 C4'       -48.0490    9.6640   -7.5610 C.3       1 ATP803      0.0000 
     16 O4'       -46.9900   10.1740   -6.7400 O.3       1 ATP803      0.0000 
     17 C3'       -49.0670   10.7870   -7.7180 C.3       1 ATP803      0.0000 
     18 O3'       -50.2770   10.4270   -7.0360 O.3       1 ATP803      0.0000 
     19 C2'       -48.4330   12.0310   -7.1080 C.3       1 ATP803      0.0000 
     20 O2'       -49.3040   12.6670   -6.1710 O.3       1 ATP803      0.0000 
     21 C1'       -47.2060   11.5400   -6.3590 C.3       1 ATP803      0.0000 
     22 N9        -45.9980   12.3900   -6.6110 N.pl3     1 ATP803      0.0000 
     23 C8        -45.3820   13.1380   -5.6670 C.2       1 ATP803      0.0000 
     24 N7        -44.3040   13.8040   -6.1580 N.2       1 ATP803      0.0000 
     25 C5        -44.2080   13.4820   -7.4620 C.ar      1 ATP803      0.0000 
     26 C6        -43.2920   13.8330   -8.5790 C.ar      1 ATP803      0.0000 
     27 N6        -42.2520   14.6790   -8.3870 N.pl3     1 ATP803      0.0000 
     28 N1        -43.5350   13.2850   -9.7930 N.ar      1 ATP803      0.0000 
     29 C2        -44.5660   12.4400   -9.9980 C.ar      1 ATP803      0.0000 
     30 N3        -45.4360   12.0780   -9.0330 N.ar      1 ATP803      0.0000 
     31 C4        -45.3190   12.5520   -7.7620 C.ar      1 ATP803      0.0000 
@<TRIPOS>BOND
     1    1    2 ar   
     2    1    3 ar   
     3    1    4 ar   
     4    1    8 1    
     5    5    6 ar   
     6    5    7 ar   
     7    5    8 1    
     8    5   12 1    
     9    9   10 ar   
    10    9   11 ar   
    11    9   12 1    
    12    9   13 1    
    13   13   14 1    
    14   14   15 1    
    15   15   16 1    
    16   15   17 1    
    17   16   21 1    
    18   17   18 1    
    19   17   19 1    
    20   19   20 1    
    21   19   21 1    
    22   21   22 1    
    23   22   23 1    
    24   22   31 1    
    25   23   24 2    
    26   24   25 1    
    27   25   26 ar   
    28   25   31 ar   
    29   26   27 1    
    30   26   28 ar   
    31   28   29 ar   
    32   29   30 ar   
    33   30   31 ar   
@<TRIPOS>SUBSTRUCTURE
     1 ATP803      1 GROUP   
@<TRIPOS>SET
ATOM$ORANGE STATIC     ATOMS   COLORGROUP SYSTEM 
20 14 14 15 15 17 17 19 19 21 21 23 23 25 25 26 26 29 \
29 31 31 

