#    Name: 6kcl_3_PE0_CAVITY_N1_ALL
#    Modification time : Fri May 22 19:25:55 2020

@<TRIPOS>MOLECULE
6kcl_3_PE0_CAVITY_N1_ALL
   75     0     7     0     0
SMALL
NO_CHARGES


@<TRIPOS>ATOM
      1 OG        -15.3300   -0.4500  -48.4900 O.3       1 SER1        0.0000 
      2 OG        -14.6300   -0.7700  -49.7700 O.3       1 SER1        0.0000 
      3 OG        -13.5700   -0.9200  -47.4100 O.3       1 SER1        0.0000 
      4 OG        -12.8700   -1.2400  -48.7000 O.3       1 SER1        0.0000 
      5 N         -20.1300    2.0600  -49.9700 N.am      2 ALA2        0.0000 
      6 N         -18.6000    2.3400  -54.4500 N.am      2 ALA2        0.0000 
      7 N         -19.1700    3.5900  -55.0600 N.am      2 ALA2        0.0000 
      8 O         -18.4700    3.2700  -56.3500 O.2       2 ALA2        0.0000 
      9 N         -17.1000    0.0200  -49.5600 N.am      2 ALA2        0.0000 
     10 N         -16.4000   -0.3000  -50.8500 N.am      2 ALA2        0.0000 
     11 N         -17.6700    1.2700  -50.1800 N.am      2 ALA2        0.0000 
     12 N         -18.9300    2.8300  -49.5100 N.am      2 ALA2        0.0000 
     13 N         -18.2300    2.5100  -50.8000 N.am      2 ALA2        0.0000 
     14 N         -18.8000    3.7500  -51.4100 N.am      2 ALA2        0.0000 
     15 N         -18.1000    3.4300  -52.7000 N.am      2 ALA2        0.0000 
     16 N         -17.0300    3.2800  -50.3400 N.am      2 ALA2        0.0000 
     17 N         -11.6700   -0.4700  -48.2400 N.am      2 ALA2        0.0000 
     18 OD1       -18.3700    1.5800  -48.8900 O.co2     3 ASP3        0.0000 
     19 OD1       -16.0300   -0.1300  -47.2000 O.co2     3 ASP3        0.0000 
     20 OD1       -16.6000    1.1100  -47.8100 O.co2     3 ASP3        0.0000 
     21 OD1       -17.8700    2.6800  -47.1400 O.co2     3 ASP3        0.0000 
     22 OD1       -17.1700    2.3600  -48.4300 O.co2     3 ASP3        0.0000 
     23 OD1       -16.9300    1.6000  -42.8800 O.co2     3 ASP3        0.0000 
     24 OD1       -14.8300    0.6400  -46.7400 O.co2     3 ASP3        0.0000 
     25 OD1       -17.5000    2.8500  -43.4900 O.co2     3 ASP3        0.0000 
     26 OD1       -16.8000    2.5300  -44.7800 O.co2     3 ASP3        0.0000 
     27 OD1       -16.1000    2.2100  -46.0700 O.co2     3 ASP3        0.0000 
     28 OD1       -15.4000    1.8900  -47.3600 O.co2     3 ASP3        0.0000 
     29 OD1       -15.7300    2.3800  -42.4200 O.co2     3 ASP3        0.0000 
     30 NZ        -17.7300    3.6000  -49.0500 N.4       4 LYS4        0.0000 
     31 NZ        -19.0000    5.1700  -48.3800 N.4       4 LYS4        0.0000 
     32 NZ        -18.3000    4.8500  -49.6600 N.4       4 LYS4        0.0000 
     33 NZ        -17.6000    4.5300  -50.9500 N.4       4 LYS4        0.0000 
     34 NZ        -17.3600    3.7700  -45.4000 N.4       4 LYS4        0.0000 
     35 NZ        -16.6700    3.4500  -46.6800 N.4       4 LYS4        0.0000 
     36 NZ        -17.9300    5.0200  -46.0100 N.4       4 LYS4        0.0000 
     37 NZ        -17.2300    4.7000  -47.3000 N.4       4 LYS4        0.0000 
     38 NZ        -17.8000    5.9400  -47.9200 N.4       4 LYS4        0.0000 
     39 NZ        -17.1000    5.6200  -49.2000 N.4       4 LYS4        0.0000 
     40 NZ        -15.9000    6.4000  -48.7400 N.4       4 LYS4        0.0000 
     41 CZ        -17.0300   -2.3200  -50.6900 C.ar      5 PHE5        0.0000 
     42 CZ        -16.3400   -2.6400  -51.9800 C.ar      5 PHE5        0.0000 
     43 CZ        -16.5300   -1.2200  -48.9500 C.ar      5 PHE5        0.0000 
     44 CZ        -15.8300   -1.5400  -50.2300 C.ar      5 PHE5        0.0000 
     45 CZ        -15.6000    3.3000  -44.3200 C.ar      5 PHE5        0.0000 
     46 CZ        -14.9000    2.9800  -45.6100 C.ar      5 PHE5        0.0000 
     47 CZ        -14.2000    2.6600  -46.9000 C.ar      5 PHE5        0.0000 
     48 CZ        -16.1600    4.5500  -44.9400 C.ar      5 PHE5        0.0000 
     49 CZ        -15.4700    4.2300  -46.2200 C.ar      5 PHE5        0.0000 
     50 CZ        -14.7700    3.9100  -47.5100 C.ar      5 PHE5        0.0000 
     51 CZ        -16.7300    5.7900  -45.5500 C.ar      5 PHE5        0.0000 
     52 CZ        -16.0300    5.4700  -46.8400 C.ar      5 PHE5        0.0000 
     53 CZ        -15.3300    5.1500  -48.1300 C.ar      5 PHE5        0.0000 
     54 CZ        -13.0000    3.4300  -46.4400 C.ar      5 PHE5        0.0000 
     55 CA        -18.3000   -0.7500  -50.0200 C.3       6 GLY6        0.0000 
     56 CA        -19.5000    4.0700  -50.1200 C.3       6 GLY6        0.0000 
     57 CA        -18.6700    4.6800  -53.3200 C.3       6 GLY6        0.0000 
     58 CA        -17.4700    5.4500  -52.8600 C.3       6 GLY6        0.0000 
     59 CA        -17.6300    1.9200  -41.5900 C.3       6 GLY6        0.0000 
     60 CA        -18.2000    3.1700  -42.2000 C.3       6 GLY6        0.0000 
     61 CA        -18.0600    4.0900  -44.1100 C.3       6 GLY6        0.0000 
     62 CA        -13.6300    1.4200  -46.2800 C.3       6 GLY6        0.0000 
     63 CA        -12.9300    1.1000  -47.5700 C.3       6 GLY6        0.0000 
     64 CA        -17.0000    3.9400  -41.7400 C.3       6 GLY6        0.0000 
     65 CA        -16.3000    3.6200  -43.0300 C.3       6 GLY6        0.0000 
     66 CA        -16.8600    4.8600  -43.6500 C.3       6 GLY6        0.0000 
     67 CA        -16.6000    6.7100  -47.4600 C.3       6 GLY6        0.0000 
     68 DU        -15.9000    0.7900  -49.1000 H         7 CUB7        0.0000 
     69 DU        -16.4700    2.0400  -49.7200 H         7 CUB7        0.0000 
     70 DU        -14.1300    0.3200  -48.0300 H         7 CUB7        0.0000 
     71 DU        -14.7000    1.5700  -48.6400 H         7 CUB7        0.0000 
     72 DU        -15.9700    3.1300  -47.9700 H         7 CUB7        0.0000 
     73 DU        -16.5300    4.3800  -48.5900 H         7 CUB7        0.0000 
     74 DU        -12.2300    0.7800  -48.8600 H         7 CUB7        0.0000 
     75 DU        -13.5000    2.3400  -48.1800 H         7 CUB7        0.0000 
@<TRIPOS>BOND
@<TRIPOS>SUBSTRUCTURE
     1 SER1        1 GROUP   
     2 ALA2        5 GROUP   
     3 ASP3       18 GROUP   
     4 LYS4       30 GROUP   
     5 PHE5       41 GROUP   
     6 GLY6       55 GROUP   
     7 CUB7       68 GROUP   
@<TRIPOS>SET

