#    Name: 6kcl_1_PE0_CAVITY_N1_6
#    Modification time : Fri May 22 19:25:41 2020

@<TRIPOS>MOLECULE
6kcl_1_PE0_CAVITY_N1_6
   90     0     7     0     0
SMALL
NO_CHARGES


@<TRIPOS>ATOM
      1 OG         -5.7100  -38.4100  -39.0800 O.3       1 SER1        0.0000 
      2 OG         -4.5100  -37.6400  -38.6200 O.3       1 SER1        0.0000 
      3 OG         -3.8100  -37.9600  -39.9100 O.3       1 SER1        0.0000 
      4 OG         -5.0800  -36.4000  -39.2400 O.3       1 SER1        0.0000 
      5 OG         -4.3800  -36.7100  -40.5300 O.3       1 SER1        0.0000 
      6 OG         -3.6800  -37.0300  -41.8100 O.3       1 SER1        0.0000 
      7 OG         -6.2100  -33.9100  -40.4700 O.3       1 SER1        0.0000 
      8 OG         -5.0100  -33.1300  -40.0100 O.3       1 SER1        0.0000 
      9 N          -2.8100  -41.3700  -36.7700 N.am      2 ALA2        0.0000 
     10 O          -4.9400  -35.4700  -41.1400 O.2       2 ALA2        0.0000 
     11 N          -6.9100  -33.5900  -39.1800 N.am      2 ALA2        0.0000 
     12 N          -0.9100  -40.9200  -37.6000 N.am      2 ALA2        0.0000 
     13 N          -1.4800  -39.6800  -38.2200 N.am      2 ALA2        0.0000 
     14 N          -2.0500  -38.4300  -38.8300 N.am      2 ALA2        0.0000 
     15 N          -2.6100  -37.1900  -39.4500 N.am      2 ALA2        0.0000 
     16 N          -1.9100  -37.5100  -40.7400 N.am      2 ALA2        0.0000 
     17 N          -3.1800  -35.9400  -40.0700 N.am      2 ALA2        0.0000 
     18 N          -2.4800  -36.2600  -41.3500 N.am      2 ALA2        0.0000 
     19 O          -3.7400  -34.7000  -40.6800 O.2       2 ALA2        0.0000 
     20 N          -0.7100  -36.7300  -40.2800 N.am      2 ALA2        0.0000 
     21 OD1        -2.1100  -36.0900  -37.7000 O.co2     3 ASP3        0.0000 
     22 OD1        -1.4100  -36.4100  -38.9900 O.co2     3 ASP3        0.0000 
     23 OD1        -3.3800  -34.5300  -37.0300 O.co2     3 ASP3        0.0000 
     24 OD1        -2.6800  -34.8500  -38.3200 O.co2     3 ASP3        0.0000 
     25 OD1        -1.9800  -35.1700  -39.6100 O.co2     3 ASP3        0.0000 
     26 OD1        -3.2400  -33.6000  -38.9300 O.co2     3 ASP3        0.0000 
     27 OD1        -2.5400  -33.9200  -40.2200 O.co2     3 ASP3        0.0000 
     28 OD1        -1.6100  -35.0000  -35.9500 O.co2     3 ASP3        0.0000 
     29 OD1        -0.9100  -35.3200  -37.2400 O.co2     3 ASP3        0.0000 
     30 OD1        -2.8800  -33.4300  -35.2800 O.co2     3 ASP3        0.0000 
     31 OD1        -0.4100  -34.2300  -35.4900 O.co2     3 ASP3        0.0000 
     32 OD1        -1.6800  -32.6600  -34.8200 O.co2     3 ASP3        0.0000 
     33 NZ         -0.9800  -38.5800  -36.4700 N.4       4 LYS4        0.0000 
     34 NZ         -0.2800  -38.9000  -37.7600 N.4       4 LYS4        0.0000 
     35 NZ         -1.5400  -37.3400  -37.0900 N.4       4 LYS4        0.0000 
     36 NZ         -0.8500  -37.6600  -38.3700 N.4       4 LYS4        0.0000 
     37 NZ         -1.0400  -36.2400  -35.3400 N.4       4 LYS4        0.0000 
     38 NZ          0.1600  -35.4700  -34.8800 N.4       4 LYS4        0.0000 
     39 CZ         -6.5400  -39.0200  -35.8900 C.ar      5 PHE5        0.0000 
     40 CZ         -7.1100  -37.7700  -36.5000 C.ar      5 PHE5        0.0000 
     41 CZ         -4.0800  -39.8100  -36.1000 C.ar      5 PHE5        0.0000 
     42 CZ         -4.6400  -38.5600  -36.7200 C.ar      5 PHE5        0.0000 
     43 CZ         -5.9100  -37.0000  -36.0500 C.ar      5 PHE5        0.0000 
     44 CZ         -5.2100  -37.3200  -37.3300 C.ar      5 PHE5        0.0000 
     45 CZ         -2.8800  -39.0400  -35.6400 C.ar      5 PHE5        0.0000 
     46 CZ         -3.4400  -37.7900  -36.2600 C.ar      5 PHE5        0.0000 
     47 CZ         -4.0100  -36.5500  -36.8700 C.ar      5 PHE5        0.0000 
     48 CZ         -2.2400  -37.0200  -35.8000 C.ar      5 PHE5        0.0000 
     49 CZ         -3.5100  -35.4500  -35.1300 C.ar      5 PHE5        0.0000 
     50 CZ         -2.8100  -35.7700  -36.4100 C.ar      5 PHE5        0.0000 
     51 CZ         -1.7400  -35.9200  -34.0500 C.ar      5 PHE5        0.0000 
     52 CZ         -3.0100  -34.3600  -33.3800 C.ar      5 PHE5        0.0000 
     53 CZ         -2.3100  -34.6800  -34.6700 C.ar      5 PHE5        0.0000 
     54 CA         -5.2800  -40.5800  -36.5600 C.3       6 GLY6        0.0000 
     55 CA         -5.8400  -39.3400  -37.1800 C.3       6 GLY6        0.0000 
     56 CA         -5.1400  -39.6600  -38.4600 C.3       6 GLY6        0.0000 
     57 CA         -7.8100  -37.4500  -35.2200 C.3       6 GLY6        0.0000 
     58 CA         -8.3800  -36.2100  -35.8300 C.3       6 GLY6        0.0000 
     59 CA         -8.9400  -34.9700  -36.4500 C.3       6 GLY6        0.0000 
     60 CA         -8.2400  -35.2800  -37.7400 C.3       6 GLY6        0.0000 
     61 CA         -3.5100  -41.0500  -35.4800 C.3       6 GLY6        0.0000 
     62 CA         -3.3800  -40.1300  -37.3900 C.3       6 GLY6        0.0000 
     63 CA         -3.9400  -38.8800  -38.0000 C.3       6 GLY6        0.0000 
     64 CA         -7.1800  -35.4400  -35.3700 C.3       6 GLY6        0.0000 
     65 CA         -6.4800  -35.7600  -36.6600 C.3       6 GLY6        0.0000 
     66 CA         -7.0400  -34.5100  -37.2800 C.3       6 GLY6        0.0000 
     67 CA         -6.3400  -34.8300  -38.5700 C.3       6 GLY6        0.0000 
     68 CA         -7.6100  -33.2700  -37.8900 C.3       6 GLY6        0.0000 
     69 CA         -1.6100  -40.6000  -36.3100 C.3       6 GLY6        0.0000 
     70 CA         -2.1800  -39.3600  -36.9300 C.3       6 GLY6        0.0000 
     71 CA         -5.2800  -34.9800  -36.2000 C.3       6 GLY6        0.0000 
     72 CA         -4.5800  -35.3000  -37.4900 C.3       6 GLY6        0.0000 
     73 CA         -5.1400  -34.0600  -38.1100 C.3       6 GLY6        0.0000 
     74 CA         -1.6800  -38.2600  -35.1800 C.3       6 GLY6        0.0000 
     75 CA         -4.0800  -34.2100  -35.7400 C.3       6 GLY6        0.0000 
     76 CA         -0.5400  -35.1500  -33.5900 C.3       6 GLY6        0.0000 
     77 CA         -1.8100  -33.5900  -32.9200 C.3       6 GLY6        0.0000 
     78 CA         -1.1100  -33.9100  -34.2100 C.3       6 GLY6        0.0000 
     79 DU         -6.4100  -38.0900  -37.7900 H         7 CUB7        0.0000 
     80 DU         -7.6800  -36.5300  -37.1200 H         7 CUB7        0.0000 
     81 DU         -6.9800  -36.8500  -38.4100 H         7 CUB7        0.0000 
     82 DU         -7.5400  -35.6000  -39.0300 H         7 CUB7        0.0000 
     83 DU         -6.8400  -35.9200  -40.3100 H         7 CUB7        0.0000 
     84 DU         -8.1100  -34.3600  -39.6400 H         7 CUB7        0.0000 
     85 DU         -5.7800  -36.0800  -37.9500 H         7 CUB7        0.0000 
     86 DU         -5.6400  -35.1500  -39.8500 H         7 CUB7        0.0000 
     87 DU         -2.7400  -38.1100  -37.5400 H         7 CUB7        0.0000 
     88 DU         -3.3100  -36.8700  -38.1600 H         7 CUB7        0.0000 
     89 DU         -3.8800  -35.6200  -38.7800 H         7 CUB7        0.0000 
     90 DU         -4.4400  -34.3800  -39.3900 H         7 CUB7        0.0000 
@<TRIPOS>BOND
@<TRIPOS>SUBSTRUCTURE
     1 SER1        1 GROUP   
     2 ALA2        9 GROUP   
     3 ASP3       21 GROUP   
     4 LYS4       33 GROUP   
     5 PHE5       39 GROUP   
     6 GLY6       54 GROUP   
     7 CUB7       79 GROUP   
@<TRIPOS>SET

