#    Name: 6kcl_2_PHB
#    Modification time : Fri May 22 19:25:46 2020

@<TRIPOS>MOLECULE
6kcl_2_PHB
   10    10     1     0     0
SMALL
NO_CHARGES


@<TRIPOS>ATOM
      1 C1'       -10.6660  -34.9450  -36.1340 C.2       1 PHB802      0.0000 
      2 O1'       -11.0690  -34.2530  -37.0750 O.co2     1 PHB802      0.0000 
      3 O2'       -11.3460  -35.1100  -35.1110 O.co2     1 PHB802      0.0000 
      4 C1         -9.3480  -35.6160  -36.2350 C.ar      1 PHB802      0.0000 
      5 C2         -8.6240  -35.4790  -37.4130 C.ar      1 PHB802      0.0000 
      6 C3         -7.3970  -36.0900  -37.5480 C.ar      1 PHB802      0.0000 
      7 C4         -6.9180  -36.8430  -36.4860 C.ar      1 PHB802      0.0000 
      8 C5         -7.6320  -36.9860  -35.2930 C.ar      1 PHB802      0.0000 
      9 C6         -8.8720  -36.3660  -35.1660 C.ar      1 PHB802      0.0000 
     10 O4         -5.7160  -37.4400  -36.6290 O.3       1 PHB802      0.0000 
@<TRIPOS>BOND
     1    1    2 ar   
     2    1    3 ar   
     3    1    4 1    
     4    4    5 ar   
     5    4    9 ar   
     6    5    6 ar   
     7    6    7 ar   
     8    7    8 ar   
     9    7   10 1    
    10    8    9 ar   
@<TRIPOS>SUBSTRUCTURE
     1 PHB802      1 GROUP   
@<TRIPOS>SET

