#    Name: 6kcl_3_PE0
#    Modification time : Fri May 22 19:25:54 2020

@<TRIPOS>MOLECULE
6kcl_3_PE0
   12    13     1     0     0
SMALL
NO_CHARGES


@<TRIPOS>ATOM
      1 C1        -16.2490    2.8800  -43.4700 C.ar      1 PE0801      0.0000 
      2 C4        -15.9940    2.8360  -42.0210 C.2       1 PE0801      0.0000 
      3 O4        -14.8780    2.4850  -41.6100 O.2       1 PE0801      0.0000 
      4 N2        -16.9910    3.1660  -41.1780 N.am      1 PE0801      0.0000 
      5 C3        -18.2220    3.5400  -41.6470 C.2       1 PE0801      0.0000 
      6 N6        -19.1950    3.8690  -40.7670 N.pl3     1 PE0801      0.0000 
      7 N1        -18.5130    3.6020  -42.9740 N.2       1 PE0801      0.0000 
      8 C2        -17.5860    3.2970  -43.9020 C.ar      1 PE0801      0.0000 
      9 N3        -17.8320    3.3550  -45.2200 N.ar      1 PE0801      0.0000 
     10 C6        -16.8750    3.0410  -46.1040 C.ar      1 PE0801      0.0000 
     11 C5        -15.5980    2.6600  -45.6990 C.ar      1 PE0801      0.0000 
     12 N4        -15.3090    2.5770  -44.3900 N.ar      1 PE0801      0.0000 
@<TRIPOS>BOND
     1    1    2 1    
     2    1    8 ar   
     3    1   12 ar   
     4    2    3 2    
     5    2    4 am   
     6    4    5 1    
     7    5    6 1    
     8    5    7 2    
     9    7    8 1    
    10    8    9 ar   
    11    9   10 ar   
    12   10   11 ar   
    13   11   12 ar   
@<TRIPOS>SUBSTRUCTURE
     1 PE0801      1 GROUP   
@<TRIPOS>SET

