#    Name: 6kcl_3_PE0_CAVITY_N1_4
#    Modification time : Fri May 22 19:25:55 2020

@<TRIPOS>MOLECULE
6kcl_3_PE0_CAVITY_N1_4
   46     0     6     0     0
SMALL
NO_CHARGES


@<TRIPOS>ATOM
      1 N         -18.9300    2.8300  -49.5100 N.am      1 ALA2        0.0000 
      2 OD1       -18.3700    1.5800  -48.8900 O.co2     2 ASP3        0.0000 
      3 OD1       -16.0300   -0.1300  -47.2000 O.co2     2 ASP3        0.0000 
      4 OD1       -16.6000    1.1100  -47.8100 O.co2     2 ASP3        0.0000 
      5 OD1       -17.8700    2.6800  -47.1400 O.co2     2 ASP3        0.0000 
      6 OD1       -17.1700    2.3600  -48.4300 O.co2     2 ASP3        0.0000 
      7 OD1       -16.9300    1.6000  -42.8800 O.co2     2 ASP3        0.0000 
      8 OD1       -14.8300    0.6400  -46.7400 O.co2     2 ASP3        0.0000 
      9 OD1       -17.5000    2.8500  -43.4900 O.co2     2 ASP3        0.0000 
     10 OD1       -16.8000    2.5300  -44.7800 O.co2     2 ASP3        0.0000 
     11 OD1       -16.1000    2.2100  -46.0700 O.co2     2 ASP3        0.0000 
     12 OD1       -15.4000    1.8900  -47.3600 O.co2     2 ASP3        0.0000 
     13 OD1       -15.7300    2.3800  -42.4200 O.co2     2 ASP3        0.0000 
     14 NZ        -17.7300    3.6000  -49.0500 N.4       3 LYS4        0.0000 
     15 NZ        -19.0000    5.1700  -48.3800 N.4       3 LYS4        0.0000 
     16 NZ        -17.3600    3.7700  -45.4000 N.4       3 LYS4        0.0000 
     17 NZ        -16.6700    3.4500  -46.6800 N.4       3 LYS4        0.0000 
     18 NZ        -17.9300    5.0200  -46.0100 N.4       3 LYS4        0.0000 
     19 NZ        -17.2300    4.7000  -47.3000 N.4       3 LYS4        0.0000 
     20 NZ        -17.8000    5.9400  -47.9200 N.4       3 LYS4        0.0000 
     21 CZ        -15.6000    3.3000  -44.3200 C.ar      4 PHE5        0.0000 
     22 CZ        -14.9000    2.9800  -45.6100 C.ar      4 PHE5        0.0000 
     23 CZ        -14.2000    2.6600  -46.9000 C.ar      4 PHE5        0.0000 
     24 CZ        -16.1600    4.5500  -44.9400 C.ar      4 PHE5        0.0000 
     25 CZ        -15.4700    4.2300  -46.2200 C.ar      4 PHE5        0.0000 
     26 CZ        -14.7700    3.9100  -47.5100 C.ar      4 PHE5        0.0000 
     27 CZ        -16.7300    5.7900  -45.5500 C.ar      4 PHE5        0.0000 
     28 CZ        -16.0300    5.4700  -46.8400 C.ar      4 PHE5        0.0000 
     29 CZ        -15.3300    5.1500  -48.1300 C.ar      4 PHE5        0.0000 
     30 CZ        -13.0000    3.4300  -46.4400 C.ar      4 PHE5        0.0000 
     31 CA        -17.6300    1.9200  -41.5900 C.3       5 GLY6        0.0000 
     32 CA        -18.2000    3.1700  -42.2000 C.3       5 GLY6        0.0000 
     33 CA        -18.0600    4.0900  -44.1100 C.3       5 GLY6        0.0000 
     34 CA        -13.6300    1.4200  -46.2800 C.3       5 GLY6        0.0000 
     35 CA        -12.9300    1.1000  -47.5700 C.3       5 GLY6        0.0000 
     36 CA        -17.0000    3.9400  -41.7400 C.3       5 GLY6        0.0000 
     37 CA        -16.3000    3.6200  -43.0300 C.3       5 GLY6        0.0000 
     38 CA        -16.8600    4.8600  -43.6500 C.3       5 GLY6        0.0000 
     39 CA        -16.6000    6.7100  -47.4600 C.3       5 GLY6        0.0000 
     40 DU        -15.9000    0.7900  -49.1000 H         6 CUB7        0.0000 
     41 DU        -16.4700    2.0400  -49.7200 H         6 CUB7        0.0000 
     42 DU        -14.1300    0.3200  -48.0300 H         6 CUB7        0.0000 
     43 DU        -14.7000    1.5700  -48.6400 H         6 CUB7        0.0000 
     44 DU        -15.9700    3.1300  -47.9700 H         6 CUB7        0.0000 
     45 DU        -16.5300    4.3800  -48.5900 H         6 CUB7        0.0000 
     46 DU        -13.5000    2.3400  -48.1800 H         6 CUB7        0.0000 
@<TRIPOS>BOND
@<TRIPOS>SUBSTRUCTURE
     1 ALA2        1 GROUP   
     2 ASP3        2 GROUP   
     3 LYS4       14 GROUP   
     4 PHE5       21 GROUP   
     5 GLY6       31 GROUP   
     6 CUB7       40 GROUP   
@<TRIPOS>SET

