#    Name: 6kcl_4_PHB
#    Modification time : Fri May 22 19:26:01 2020

@<TRIPOS>MOLECULE
6kcl_4_PHB
   10    10     1     0     0
SMALL
NO_CHARGES


@<TRIPOS>ATOM
      1 C1'        -8.1500    2.3560  -46.7210 C.2       1 PHB802      0.0000 
      2 O1'        -7.7870    1.3090  -47.3000 O.co2     1 PHB802      0.0000 
      3 O2'        -7.3530    3.0420  -46.0450 O.co2     1 PHB802      0.0000 
      4 C1         -9.5380    2.8570  -46.9290 C.ar      1 PHB802      0.0000 
      5 C2        -10.4150    2.1430  -47.7540 C.ar      1 PHB802      0.0000 
      6 C3        -11.7090    2.6360  -47.9880 C.ar      1 PHB802      0.0000 
      7 C4        -12.0900    3.8550  -47.3950 C.ar      1 PHB802      0.0000 
      8 C5        -11.1990    4.5720  -46.5750 C.ar      1 PHB802      0.0000 
      9 C6         -9.9160    4.0700  -46.3440 C.ar      1 PHB802      0.0000 
     10 O4        -13.3490    4.3460  -47.6040 O.3       1 PHB802      0.0000 
@<TRIPOS>BOND
     1    1    2 ar   
     2    1    3 ar   
     3    1    4 1    
     4    4    5 ar   
     5    4    9 ar   
     6    5    6 ar   
     7    6    7 ar   
     8    7    8 ar   
     9    7   10 1    
    10    8    9 ar   
@<TRIPOS>SUBSTRUCTURE
     1 PHB802      1 GROUP   
@<TRIPOS>SET

