#    Name: 6kcl_2_PHB_CAVITY_N1_4
#    Modification time : Fri May 22 19:25:47 2020

@<TRIPOS>MOLECULE
6kcl_2_PHB_CAVITY_N1_4
   74     0     6     0     0
SMALL
NO_CHARGES


@<TRIPOS>ATOM
      1 OG         -5.7100  -38.4100  -39.0800 O.3       1 SER1        0.0000 
      2 OG         -4.5100  -37.6400  -38.6200 O.3       1 SER1        0.0000 
      3 OG         -3.8100  -37.9600  -39.9100 O.3       1 SER1        0.0000 
      4 OG         -5.0800  -36.4000  -39.2400 O.3       1 SER1        0.0000 
      5 OG         -6.2100  -33.9100  -40.4700 O.3       1 SER1        0.0000 
      6 O         -10.7100  -34.4900  -37.5300 O.2       2 ALA2        0.0000 
      7 N         -10.5800  -33.5700  -39.4300 N.am      2 ALA2        0.0000 
      8 N          -9.0700  -35.8900  -34.5500 N.am      2 ALA2        0.0000 
      9 N          -8.6800  -33.1200  -40.2600 N.am      2 ALA2        0.0000 
     10 N          -6.9100  -33.5900  -39.1800 N.am      2 ALA2        0.0000 
     11 OD1       -10.7800  -37.7600  -36.7500 O.co2     3 ASP3        0.0000 
     12 OD1       -10.2700  -36.6600  -35.0000 O.co2     3 ASP3        0.0000 
     13 OD1        -9.5800  -36.9800  -36.2900 O.co2     3 ASP3        0.0000 
     14 OD1       -10.8400  -35.4200  -35.6200 O.co2     3 ASP3        0.0000 
     15 OD1       -10.1400  -35.7400  -36.9100 O.co2     3 ASP3        0.0000 
     16 OD1        -2.1100  -36.0900  -37.7000 O.co2     3 ASP3        0.0000 
     17 OD1        -3.3800  -34.5300  -37.0300 O.co2     3 ASP3        0.0000 
     18 CZ         -5.9800  -40.2600  -35.2700 C.ar      4 PHE5        0.0000 
     19 CZ         -6.5400  -39.0200  -35.8900 C.ar      4 PHE5        0.0000 
     20 CZ         -7.1100  -37.7700  -36.5000 C.ar      4 PHE5        0.0000 
     21 CZ         -4.0800  -39.8100  -36.1000 C.ar      4 PHE5        0.0000 
     22 CZ         -4.6400  -38.5600  -36.7200 C.ar      4 PHE5        0.0000 
     23 CZ         -5.9100  -37.0000  -36.0500 C.ar      4 PHE5        0.0000 
     24 CZ         -5.2100  -37.3200  -37.3300 C.ar      4 PHE5        0.0000 
     25 CZ         -2.8800  -39.0400  -35.6400 C.ar      4 PHE5        0.0000 
     26 CZ         -3.4400  -37.7900  -36.2600 C.ar      4 PHE5        0.0000 
     27 CZ         -4.0100  -36.5500  -36.8700 C.ar      4 PHE5        0.0000 
     28 CZ         -2.2400  -37.0200  -35.8000 C.ar      4 PHE5        0.0000 
     29 CZ         -3.5100  -35.4500  -35.1300 C.ar      4 PHE5        0.0000 
     30 CZ         -2.8100  -35.7700  -36.4100 C.ar      4 PHE5        0.0000 
     31 CA         -9.5100  -39.3200  -37.4200 C.3       5 GLY6        0.0000 
     32 CA         -7.1800  -41.0400  -35.7300 C.3       5 GLY6        0.0000 
     33 CA         -7.7400  -39.7900  -36.3500 C.3       5 GLY6        0.0000 
     34 CA         -7.0400  -40.1100  -37.6400 C.3       5 GLY6        0.0000 
     35 CA         -9.0100  -38.2300  -35.6800 C.3       5 GLY6        0.0000 
     36 CA         -8.3100  -38.5500  -36.9600 C.3       5 GLY6        0.0000 
     37 CA        -10.0100  -34.8100  -38.8100 C.3       5 GLY6        0.0000 
     38 CA         -5.2800  -40.5800  -36.5600 C.3       5 GLY6        0.0000 
     39 CA         -5.8400  -39.3400  -37.1800 C.3       5 GLY6        0.0000 
     40 CA         -5.1400  -39.6600  -38.4600 C.3       5 GLY6        0.0000 
     41 CA         -7.8100  -37.4500  -35.2200 C.3       5 GLY6        0.0000 
     42 CA         -8.3800  -36.2100  -35.8300 C.3       5 GLY6        0.0000 
     43 CA         -9.6400  -34.6500  -35.1600 C.3       5 GLY6        0.0000 
     44 CA         -8.9400  -34.9700  -36.4500 C.3       5 GLY6        0.0000 
     45 CA         -8.2400  -35.2800  -37.7400 C.3       5 GLY6        0.0000 
     46 CA         -9.5100  -33.7200  -37.0700 C.3       5 GLY6        0.0000 
     47 CA         -8.8100  -34.0400  -38.3500 C.3       5 GLY6        0.0000 
     48 CA         -3.3800  -40.1300  -37.3900 C.3       5 GLY6        0.0000 
     49 CA         -3.9400  -38.8800  -38.0000 C.3       5 GLY6        0.0000 
     50 CA         -7.1800  -35.4400  -35.3700 C.3       5 GLY6        0.0000 
     51 CA         -6.4800  -35.7600  -36.6600 C.3       5 GLY6        0.0000 
     52 CA         -7.0400  -34.5100  -37.2800 C.3       5 GLY6        0.0000 
     53 CA         -6.3400  -34.8300  -38.5700 C.3       5 GLY6        0.0000 
     54 CA         -7.6100  -33.2700  -37.8900 C.3       5 GLY6        0.0000 
     55 CA         -5.2800  -34.9800  -36.2000 C.3       5 GLY6        0.0000 
     56 CA         -4.5800  -35.3000  -37.4900 C.3       5 GLY6        0.0000 
     57 CA         -5.1400  -34.0600  -38.1100 C.3       5 GLY6        0.0000 
     58 CA         -4.0800  -34.2100  -35.7400 C.3       5 GLY6        0.0000 
     59 DU         -7.6100  -38.8700  -38.2500 H         6 CUB7        0.0000 
     60 DU         -8.8800  -37.3000  -37.5800 H         6 CUB7        0.0000 
     61 DU         -9.4400  -36.0600  -38.2000 H         6 CUB7        0.0000 
     62 DU         -9.3100  -35.1300  -40.1000 H         6 CUB7        0.0000 
     63 DU         -6.4100  -38.0900  -37.7900 H         6 CUB7        0.0000 
     64 DU         -7.6800  -36.5300  -37.1200 H         6 CUB7        0.0000 
     65 DU         -6.9800  -36.8500  -38.4100 H         6 CUB7        0.0000 
     66 DU         -7.5400  -35.6000  -39.0300 H         6 CUB7        0.0000 
     67 DU         -6.8400  -35.9200  -40.3100 H         6 CUB7        0.0000 
     68 DU         -8.1100  -34.3600  -39.6400 H         6 CUB7        0.0000 
     69 DU         -5.7800  -36.0800  -37.9500 H         6 CUB7        0.0000 
     70 DU         -5.6400  -35.1500  -39.8500 H         6 CUB7        0.0000 
     71 DU         -2.7400  -38.1100  -37.5400 H         6 CUB7        0.0000 
     72 DU         -3.3100  -36.8700  -38.1600 H         6 CUB7        0.0000 
     73 DU         -3.8800  -35.6200  -38.7800 H         6 CUB7        0.0000 
     74 DU         -4.4400  -34.3800  -39.3900 H         6 CUB7        0.0000 
@<TRIPOS>BOND
@<TRIPOS>SUBSTRUCTURE
     1 SER1        1 GROUP   
     2 ALA2        6 GROUP   
     3 ASP3       11 GROUP   
     4 PHE5       18 GROUP   
     5 GLY6       31 GROUP   
     6 CUB7       59 GROUP   
@<TRIPOS>SET

