#    Name: 6kcl_1_PE0
#    Modification time : Fri May 22 19:25:40 2020

@<TRIPOS>MOLECULE
6kcl_1_PE0
   12    13     1     0     0
SMALL
NO_CHARGES


@<TRIPOS>ATOM
      1 C1         -2.1510  -34.0760  -34.5200 C.ar      1 PE0801      0.0000 
      2 C4         -2.2090  -33.2430  -33.2940 C.2       1 PE0801      0.0000 
      3 O4         -3.2650  -32.6540  -32.9580 O.2       1 PE0801      0.0000 
      4 N2         -1.0930  -33.1300  -32.5580 N.am      1 PE0801      0.0000 
      5 C3          0.0610  -33.7420  -32.8950 C.2       1 PE0801      0.0000 
      6 N6          1.1250  -33.5550  -32.0880 N.pl3     1 PE0801      0.0000 
      7 N1          0.2020  -34.5180  -34.0070 N.2       1 PE0801      0.0000 
      8 C2         -0.8540  -34.7230  -34.8390 C.ar      1 PE0801      0.0000 
      9 N3         -0.7750  -35.4980  -35.9590 N.ar      1 PE0801      0.0000 
     10 C6         -1.8580  -35.6320  -36.7420 C.ar      1 PE0801      0.0000 
     11 C5         -3.0910  -35.0350  -36.4320 C.ar      1 PE0801      0.0000 
     12 N4         -3.2210  -34.2620  -35.3380 N.ar      1 PE0801      0.0000 
@<TRIPOS>BOND
     1    1    2 1    
     2    1    8 ar   
     3    1   12 ar   
     4    2    3 2    
     5    2    4 am   
     6    4    5 1    
     7    5    6 1    
     8    5    7 2    
     9    7    8 1    
    10    8    9 ar   
    11    9   10 ar   
    12   10   11 ar   
    13   11   12 ar   
@<TRIPOS>SUBSTRUCTURE
     1 PE0801      1 GROUP   
@<TRIPOS>SET

