#    Name: 6kcl_1_PE0_CAVITY_N1_4
#    Modification time : Fri May 22 19:25:41 2020

@<TRIPOS>MOLECULE
6kcl_1_PE0_CAVITY_N1_4
   52     0     7     0     0
SMALL
NO_CHARGES


@<TRIPOS>ATOM
      1 OG         -4.5100  -37.6400  -38.6200 O.3       1 SER1        0.0000 
      2 OG         -5.0800  -36.4000  -39.2400 O.3       1 SER1        0.0000 
      3 N          -2.0500  -38.4300  -38.8300 N.am      2 ALA2        0.0000 
      4 N          -2.6100  -37.1900  -39.4500 N.am      2 ALA2        0.0000 
      5 N          -3.1800  -35.9400  -40.0700 N.am      2 ALA2        0.0000 
      6 N          -0.7100  -36.7300  -40.2800 N.am      2 ALA2        0.0000 
      7 OD1        -2.1100  -36.0900  -37.7000 O.co2     3 ASP3        0.0000 
      8 OD1        -1.4100  -36.4100  -38.9900 O.co2     3 ASP3        0.0000 
      9 OD1        -3.3800  -34.5300  -37.0300 O.co2     3 ASP3        0.0000 
     10 OD1        -2.6800  -34.8500  -38.3200 O.co2     3 ASP3        0.0000 
     11 OD1        -1.9800  -35.1700  -39.6100 O.co2     3 ASP3        0.0000 
     12 OD1        -3.2400  -33.6000  -38.9300 O.co2     3 ASP3        0.0000 
     13 OD1        -2.5400  -33.9200  -40.2200 O.co2     3 ASP3        0.0000 
     14 OD1        -1.6100  -35.0000  -35.9500 O.co2     3 ASP3        0.0000 
     15 OD1        -0.9100  -35.3200  -37.2400 O.co2     3 ASP3        0.0000 
     16 OD1        -2.8800  -33.4300  -35.2800 O.co2     3 ASP3        0.0000 
     17 OD1        -0.4100  -34.2300  -35.4900 O.co2     3 ASP3        0.0000 
     18 OD1        -1.6800  -32.6600  -34.8200 O.co2     3 ASP3        0.0000 
     19 NZ         -0.9800  -38.5800  -36.4700 N.4       4 LYS4        0.0000 
     20 NZ         -0.2800  -38.9000  -37.7600 N.4       4 LYS4        0.0000 
     21 NZ         -1.5400  -37.3400  -37.0900 N.4       4 LYS4        0.0000 
     22 NZ         -0.8500  -37.6600  -38.3700 N.4       4 LYS4        0.0000 
     23 NZ         -1.0400  -36.2400  -35.3400 N.4       4 LYS4        0.0000 
     24 NZ          0.1600  -35.4700  -34.8800 N.4       4 LYS4        0.0000 
     25 CZ         -4.6400  -38.5600  -36.7200 C.ar      5 PHE5        0.0000 
     26 CZ         -5.9100  -37.0000  -36.0500 C.ar      5 PHE5        0.0000 
     27 CZ         -5.2100  -37.3200  -37.3300 C.ar      5 PHE5        0.0000 
     28 CZ         -2.8800  -39.0400  -35.6400 C.ar      5 PHE5        0.0000 
     29 CZ         -3.4400  -37.7900  -36.2600 C.ar      5 PHE5        0.0000 
     30 CZ         -4.0100  -36.5500  -36.8700 C.ar      5 PHE5        0.0000 
     31 CZ         -2.2400  -37.0200  -35.8000 C.ar      5 PHE5        0.0000 
     32 CZ         -3.5100  -35.4500  -35.1300 C.ar      5 PHE5        0.0000 
     33 CZ         -2.8100  -35.7700  -36.4100 C.ar      5 PHE5        0.0000 
     34 CZ         -1.7400  -35.9200  -34.0500 C.ar      5 PHE5        0.0000 
     35 CZ         -3.0100  -34.3600  -33.3800 C.ar      5 PHE5        0.0000 
     36 CZ         -2.3100  -34.6800  -34.6700 C.ar      5 PHE5        0.0000 
     37 CA         -6.4800  -35.7600  -36.6600 C.3       6 GLY6        0.0000 
     38 CA         -6.3400  -34.8300  -38.5700 C.3       6 GLY6        0.0000 
     39 CA         -2.1800  -39.3600  -36.9300 C.3       6 GLY6        0.0000 
     40 CA         -5.2800  -34.9800  -36.2000 C.3       6 GLY6        0.0000 
     41 CA         -4.5800  -35.3000  -37.4900 C.3       6 GLY6        0.0000 
     42 CA         -5.1400  -34.0600  -38.1100 C.3       6 GLY6        0.0000 
     43 CA         -1.6800  -38.2600  -35.1800 C.3       6 GLY6        0.0000 
     44 CA         -4.0800  -34.2100  -35.7400 C.3       6 GLY6        0.0000 
     45 CA         -0.5400  -35.1500  -33.5900 C.3       6 GLY6        0.0000 
     46 CA         -1.8100  -33.5900  -32.9200 C.3       6 GLY6        0.0000 
     47 CA         -1.1100  -33.9100  -34.2100 C.3       6 GLY6        0.0000 
     48 DU         -5.7800  -36.0800  -37.9500 H         7 CUB7        0.0000 
     49 DU         -2.7400  -38.1100  -37.5400 H         7 CUB7        0.0000 
     50 DU         -3.3100  -36.8700  -38.1600 H         7 CUB7        0.0000 
     51 DU         -3.8800  -35.6200  -38.7800 H         7 CUB7        0.0000 
     52 DU         -4.4400  -34.3800  -39.3900 H         7 CUB7        0.0000 
@<TRIPOS>BOND
@<TRIPOS>SUBSTRUCTURE
     1 SER1        1 GROUP   
     2 ALA2        3 GROUP   
     3 ASP3        7 GROUP   
     4 LYS4       19 GROUP   
     5 PHE5       25 GROUP   
     6 GLY6       37 GROUP   
     7 CUB7       48 GROUP   
@<TRIPOS>SET

