#    Name: 6kcl_6_ATP_CAVITY_N1_12
#    Modification time : Fri May 22 19:26:11 2020

@<TRIPOS>MOLECULE
6kcl_6_ATP_CAVITY_N1_12
   83     0     7     0     0
SMALL
NO_CHARGES


@<TRIPOS>ATOM
      1 OG        -42.7100    8.1000   -6.0800 O.3       1 SER1        0.0000 
      2 OG        -43.9800    9.6600   -5.4000 O.3       1 SER1        0.0000 
      3 OG        -43.2800    9.3400   -6.6900 O.3       1 SER1        0.0000 
      4 OG        -43.8400   10.5900   -7.3100 O.3       1 SER1        0.0000 
      5 OG        -42.7800   10.4300   -4.9400 O.3       1 SER1        0.0000 
      6 O         -50.4100    7.9600  -10.2200 O.2       2 ALA2        0.0000 
      7 O         -50.1100   10.4700   -5.4400 O.2       2 ALA2        0.0000 
      8 O         -49.4100   10.1500   -6.7300 O.2       2 ALA2        0.0000 
      9 O         -49.9800   11.3900   -7.3400 O.2       2 ALA2        0.0000 
     10 O         -49.2800   11.0700   -8.6300 O.2       2 ALA2        0.0000 
     11 N         -48.7800   12.1700   -6.8800 N.am      2 ALA2        0.0000 
     12 O         -43.5400    7.4900   -2.8800 O.2       2 ALA2        0.0000 
     13 N         -45.6800   13.3900   -7.2500 N.am      2 ALA2        0.0000 
     14 O         -43.9100   12.9200   -6.1800 O.2       2 ALA2        0.0000 
     15 O         -44.4800   14.1700   -6.7900 O.2       2 ALA2        0.0000 
     16 N         -43.7800   13.8500   -8.0800 N.am      2 ALA2        0.0000 
     17 O         -43.0800   13.5300   -9.3700 O.2       2 ALA2        0.0000 
     18 OD1       -47.9500    7.1700  -10.4300 O.co2     3 ASP3        0.0000 
     19 OD1       -49.2100    8.7400   -9.7600 O.co2     3 ASP3        0.0000 
     20 OD1       -47.4400    8.2600   -8.6900 O.co2     3 ASP3        0.0000 
     21 OD1       -48.0100    9.5100   -9.3000 O.co2     3 ASP3        0.0000 
     22 OD1       -45.6800    7.7900   -7.6100 O.co2     3 ASP3        0.0000 
     23 OD1       -46.8100   10.2800   -8.8400 O.co2     3 ASP3        0.0000 
     24 OD1       -46.1100    9.9600  -10.1300 O.co2     3 ASP3        0.0000 
     25 OD1       -43.9100    7.3200   -6.5400 O.co2     3 ASP3        0.0000 
     26 OD1       -44.4800    8.5700   -7.1500 O.co2     3 ASP3        0.0000 
     27 NZ        -50.2400    9.5400   -3.5400 N.4       4 LYS4        0.0000 
     28 NZ        -45.5400    8.7200   -9.5200 N.4       4 LYS4        0.0000 
     29 NZ        -44.3400    9.4900   -9.0600 N.4       4 LYS4        0.0000 
     30 NZ        -44.9100   10.7400   -9.6700 N.4       4 LYS4        0.0000 
     31 NZ        -43.7100   11.5100   -9.2100 N.4       4 LYS4        0.0000 
     32 CZ        -49.0400   10.3200   -3.0800 C.ar      5 PHE5        0.0000 
     33 CZ        -48.3400   10.0000   -4.3600 C.ar      5 PHE5        0.0000 
     34 CZ        -47.6400    9.6800   -5.6500 C.ar      5 PHE5        0.0000 
     35 CZ        -48.9100   11.2400   -4.9800 C.ar      5 PHE5        0.0000 
     36 CZ        -45.3100    7.9600   -3.9600 C.ar      5 PHE5        0.0000 
     37 CZ        -45.8800    9.2100   -4.5800 C.ar      5 PHE5        0.0000 
     38 CZ        -46.4400   10.4500   -5.1900 C.ar      5 PHE5        0.0000 
     39 CZ        -47.0100   11.7000   -5.8100 C.ar      5 PHE5        0.0000 
     40 CZ        -42.8400    7.1700   -4.1700 C.ar      5 PHE5        0.0000 
     41 CZ        -44.1100    8.7400   -3.5000 C.ar      5 PHE5        0.0000 
     42 CZ        -44.6800    9.9800   -4.1200 C.ar      5 PHE5        0.0000 
     43 CZ        -44.5400   10.9100   -6.0200 C.ar      5 PHE5        0.0000 
     44 CZ        -45.8100   12.4700   -5.3500 C.ar      5 PHE5        0.0000 
     45 CZ        -44.4100   11.8300   -7.9200 C.ar      5 PHE5        0.0000 
     46 CZ        -42.9100    9.5100   -3.0400 C.ar      5 PHE5        0.0000 
     47 CZ        -42.2100    9.1900   -4.3300 C.ar      5 PHE5        0.0000 
     48 CZ        -43.3400   11.6800   -5.5600 C.ar      5 PHE5        0.0000 
     49 CZ        -44.6100   13.2400   -4.8900 C.ar      5 PHE5        0.0000 
     50 CZ        -43.2100   12.6000   -7.4700 C.ar      5 PHE5        0.0000 
     51 CA        -50.9800    9.2100  -10.8400 C.3       6 GLY6        0.0000 
     52 CA        -50.6100    9.3700   -7.1900 C.3       6 GLY6        0.0000 
     53 CA        -49.9100    9.0600   -8.4800 C.3       6 GLY6        0.0000 
     54 CA        -50.4800   10.3000   -9.0900 C.3       6 GLY6        0.0000 
     55 CA        -49.7800    9.9800  -10.3800 C.3       6 GLY6        0.0000 
     56 CA        -49.5400    9.2200   -4.8200 C.3       6 GLY6        0.0000 
     57 CA        -48.0800   11.8500   -8.1700 C.3       6 GLY6        0.0000 
     58 CA        -47.3800   11.5300   -9.4600 C.3       6 GLY6        0.0000 
     59 CA        -46.8800   12.6200   -7.7100 C.3       6 GLY6        0.0000 
     60 CA        -46.1800   12.3000   -9.0000 C.3       6 GLY6        0.0000 
     61 CA        -45.4800   11.9800  -10.2900 C.3       6 GLY6        0.0000 
     62 CA        -44.9800   13.0700   -8.5400 C.3       6 GLY6        0.0000 
     63 CA        -44.2800   12.7600   -9.8300 C.3       6 GLY6        0.0000 
     64 CA        -44.8400   14.0000  -10.4500 C.3       6 GLY6        0.0000 
     65 CA        -42.3400    8.2600   -2.4200 C.3       6 GLY6        0.0000 
     66 CA        -44.3400   15.0900   -8.7000 C.3       6 GLY6        0.0000 
     67 CA        -43.6400   14.7700   -9.9900 C.3       6 GLY6        0.0000 
     68 DU        -48.1400    8.5800   -7.4000 H         7 CUB7        0.0000 
     69 DU        -48.7100    9.8300   -8.0200 H         7 CUB7        0.0000 
     70 DU        -47.0800    8.4300   -5.0400 H         7 CUB7        0.0000 
     71 DU        -46.3800    8.1100   -6.3200 H         7 CUB7        0.0000 
     72 DU        -46.9400    9.3600   -6.9400 H         7 CUB7        0.0000 
     73 DU        -46.2400    9.0400   -8.2300 H         7 CUB7        0.0000 
     74 DU        -48.2100   10.9200   -6.2700 H         7 CUB7        0.0000 
     75 DU        -47.5100   10.6000   -7.5600 H         7 CUB7        0.0000 
     76 DU        -44.6100    7.6400   -5.2500 H         7 CUB7        0.0000 
     77 DU        -45.1800    8.8900   -5.8600 H         7 CUB7        0.0000 
     78 DU        -45.7400   10.1300   -6.4800 H         7 CUB7        0.0000 
     79 DU        -45.0400    9.8100   -7.7700 H         7 CUB7        0.0000 
     80 DU        -46.3100   11.3800   -7.1000 H         7 CUB7        0.0000 
     81 DU        -45.6100   11.0600   -8.3800 H         7 CUB7        0.0000 
     82 DU        -43.4100    8.4200   -4.7900 H         7 CUB7        0.0000 
     83 DU        -45.1100   12.1500   -6.6400 H         7 CUB7        0.0000 
@<TRIPOS>BOND
@<TRIPOS>SUBSTRUCTURE
     1 SER1        1 GROUP   
     2 ALA2        6 GROUP   
     3 ASP3       18 GROUP   
     4 LYS4       27 GROUP   
     5 PHE5       32 GROUP   
     6 GLY6       51 GROUP   
     7 CUB7       68 GROUP   
@<TRIPOS>SET

