#    Name: 6sti_1_754
#    Modification time : Fri May 22 19:30:20 2020

@<TRIPOS>MOLECULE
6sti_1_754
   29    30     1     0     0
SMALL
NO_CHARGES


@<TRIPOS>ATOM
      1 C1        -18.3530   -0.9860  -32.2260 C.ar      1 754501      0.0000 
      2 O1        -18.9840    0.1560  -28.2720 O.3       1 754501      0.0000 
      3 C2        -19.0300    0.2190  -31.9520 C.ar      1 754501      0.0000 
      4 O2        -19.0100  -10.2730  -29.3920 O.co2     1 754501      0.0000 
      5 C3        -17.9390   -1.7860  -31.1520 C.ar      1 754501      0.0000 
      6 O3        -20.6630   -9.3760  -30.5330 O.co2     1 754501      0.0000 
      7 C4        -18.0390   -1.4680  -33.6410 C.3       1 754501      0.0000 
      8 C5        -19.2440    0.6010  -30.6340 C.ar      1 754501      0.0000 
      9 C6        -19.5420    1.1540  -33.0570 C.3       1 754501      0.0000 
     10 C7        -18.8030   -0.1850  -29.5890 C.ar      1 754501      0.0000 
     11 C8        -18.1290   -1.3840  -29.8230 C.ar      1 754501      0.0000 
     12 C9        -18.8390   -0.6540  -34.6840 C.3       1 754501      0.0000 
     13 C10       -18.8440    0.8420  -34.3850 C.3       1 754501      0.0000 
     14 C11       -17.5560   -2.1830  -28.6710 C.2       1 754501      0.0000 
     15 C12       -21.3990    0.1190  -28.1820 C.3       1 754501      0.0000 
     16 C13       -18.4430   -2.9390  -33.8070 C.3       1 754501      0.0000 
     17 C14       -16.5280   -1.3380  -33.9180 C.3       1 754501      0.0000 
     18 C15       -21.0740    1.0380  -33.1880 C.3       1 754501      0.0000 
     19 C16       -19.2370    2.6160  -32.6920 C.3       1 754501      0.0000 
     20 C17       -17.8780   -3.4830  -28.4380 C.2       1 754501      0.0000 
     21 C18       -16.5820   -1.4540  -27.7880 C.3       1 754501      0.0000 
     22 C19       -18.7140   -4.3870  -29.1900 C.2       1 754501      0.0000 
     23 C20       -18.8750   -5.6690  -28.7970 C.2       1 754501      0.0000 
     24 C21       -19.6380   -6.7130  -29.4550 C.2       1 754501      0.0000 
     25 C22       -19.2640   -7.9830  -29.1870 C.2       1 754501      0.0000 
     26 C23       -20.6290   -6.3000  -30.5130 C.3       1 754501      0.0000 
     27 C24       -19.7050   -9.2620  -29.7880 C.2       1 754501      0.0000 
     28 C25       -20.1430    0.9250  -27.9210 C.3       1 754501      0.0000 
     29 C26       -21.3810   -1.2600  -27.5700 C.3       1 754501      0.0000 
@<TRIPOS>BOND
     1    1    3 ar   
     2    1    5 ar   
     3    1    7 1    
     4    2   10 1    
     5    2   28 1    
     6    3    8 ar   
     7    3    9 1    
     8    4   27 ar   
     9    5   11 ar   
    10    6   27 ar   
    11    7   12 1    
    12    7   16 1    
    13    7   17 1    
    14    8   10 ar   
    15    9   13 1    
    16    9   18 1    
    17    9   19 1    
    18   10   11 ar   
    19   11   14 1    
    20   12   13 1    
    21   14   20 2    
    22   14   21 1    
    23   15   28 1    
    24   15   29 1    
    25   20   22 1    
    26   22   23 2    
    27   23   24 1    
    28   24   25 2    
    29   24   26 1    
    30   25   27 1    
@<TRIPOS>SUBSTRUCTURE
     1 754501      1 GROUP   
@<TRIPOS>SET

