#    Name: 5ugv_2_NAD
#    Modification time : Fri May 22 19:13:40 2020

@<TRIPOS>MOLECULE
5ugv_2_NAD
   44    48     1     0     1
SMALL
NO_CHARGES


@<TRIPOS>ATOM
      1 PA         36.6760   62.6460   57.4180 P.3       1 NAD301      0.0000 
      2 O1A        35.4380   63.4350   57.8040 O.co2     1 NAD301      0.0000 
      3 O2A        36.8400   61.1710   57.7190 O.co2     1 NAD301      0.0000 
      4 O5B        37.9250   63.4090   58.0920 O.3       1 NAD301      0.0000 
      5 C5B        37.9700   64.8240   58.1960 C.3       1 NAD301      0.0000 
      6 C4B        38.6580   65.1070   59.5080 C.3       1 NAD301      0.0000 
      7 O4B        39.0140   66.4900   59.5250 O.3       1 NAD301      0.0000 
      8 C3B        37.7630   64.8260   60.7270 C.3       1 NAD301      0.0000 
      9 O3B        38.4470   63.9770   61.6450 O.3       1 NAD301      0.0000 
     10 C2B        37.5270   66.2000   61.3280 C.3       1 NAD301      0.0000 
     11 O2B        37.4110   66.1910   62.7470 O.3       1 NAD301      0.0000 
     12 C1B        38.7840   66.9390   60.8530 C.3       1 NAD301      0.0000 
     13 N9A        38.7020   68.3890   60.9130 N.pl3     1 NAD301      0.0000 
     14 C8A        37.6300   69.1320   60.6300 C.2       1 NAD301      0.0000 
     15 N7A        37.8920   70.4420   60.8120 N.2       1 NAD301      0.0000 
     16 C5A        39.1570   70.5370   61.1990 C.ar      1 NAD301      0.0000 
     17 C6A        40.0670   71.6390   61.5300 C.ar      1 NAD301      0.0000 
     18 N6A        39.6210   72.9030   61.4750 N.pl3     1 NAD301      0.0000 
     19 N1A        41.3320   71.3370   61.8980 N.ar      1 NAD301      0.0000 
     20 C2A        41.7650   70.0610   61.9640 C.ar      1 NAD301      0.0000 
     21 N3A        40.9810   69.0030   61.6620 N.ar      1 NAD301      0.0000 
     22 C4A        39.6900   69.1810   61.2850 C.ar      1 NAD301      0.0000 
     23 O3         36.8860   62.8830   55.8360 O.3       1 NAD301      0.0000 
     24 PN         37.8870   62.0430   54.8840 P.3       1 NAD301      0.0000 
     25 O1N        37.1550   60.8570   54.2730 O.co2     1 NAD301      0.0000 
     26 O2N        39.1940   61.7300   55.6020 O.co2     1 NAD301      0.0000 
     27 O5D        38.0910   63.1170   53.7000 O.3       1 NAD301      0.0000 
     28 C5D        38.6090   64.4320   53.9440 C.3       1 NAD301      0.0000 
     29 C4D        38.4430   65.3750   52.7490 C.3       1 NAD301      0.0000 
     30 O4D        39.2980   65.0090   51.6640 O.3       1 NAD301      0.0000 
     31 C3D        37.0400   65.4050   52.1480 C.3       1 NAD301      0.0000 
     32 O3D        36.7020   66.7710   51.8690 O.3       1 NAD301      0.0000 
     33 C2D        37.1140   64.5800   50.8650 C.3       1 NAD301      0.0000 
     34 O2D        36.1980   65.0230   49.8490 O.3       1 NAD301      0.0000 
     35 C1D        38.5780   64.7450   50.4510 C.3       1 NAD301      0.0000 
     36 N1N        39.2010   63.6030   49.7310 N.pl3     1 NAD301      0.0000 
     37 C2N        40.0650   63.9180   48.7520 C.ar      1 NAD301      0.0000 
     38 C3N        40.7460   62.9680   47.9830 C.ar      1 NAD301      0.0000 
     39 C7N        41.7320   63.4270   46.9280 C.2       1 NAD301      0.0000 
     40 O7N        42.4540   62.5600   46.4110 O.2       1 NAD301      0.0000 
     41 N7N        41.8710   64.7380   46.6070 N.am      1 NAD301      0.0000 
     42 C4N        40.5460   61.4820   48.2460 C.ar      1 NAD301      0.0000 
     43 C5N        39.5880   61.2470   49.3300 C.ar      1 NAD301      0.0000 
     44 C6N        38.9660   62.2980   50.0260 C.ar      1 NAD301      0.0000 
@<TRIPOS>BOND
     1    1    2 ar   
     2    1    3 ar   
     3    1    4 1    
     4    1   23 1    
     5    4    5 1    
     6    5    6 1    
     7    6    7 1    
     8    6    8 1    
     9    7   12 1    
    10    8    9 1    
    11    8   10 1    
    12   10   11 1    
    13   10   12 1    
    14   12   13 1    
    15   13   14 1    
    16   13   22 1    
    17   14   15 2    
    18   15   16 1    
    19   16   17 ar   
    20   16   22 ar   
    21   17   18 1    
    22   17   19 ar   
    23   19   20 ar   
    24   20   21 ar   
    25   21   22 ar   
    26   23   24 1    
    27   24   25 ar   
    28   24   26 ar   
    29   24   27 1    
    30   27   28 1    
    31   28   29 1    
    32   29   30 1    
    33   29   31 1    
    34   30   35 1    
    35   31   32 1    
    36   31   33 1    
    37   33   34 1    
    38   33   35 1    
    39   35   36 1    
    40   36   37 ar   
    41   36   44 ar   
    42   37   38 ar   
    43   38   39 1    
    44   38   42 ar   
    45   39   40 2    
    46   39   41 am   
    47   42   43 ar   
    48   43   44 ar   
@<TRIPOS>SUBSTRUCTURE
     1 NAD301      1 GROUP   
@<TRIPOS>SET
ATOM$ORANGE STATIC     ATOMS   COLORGROUP SYSTEM 
42 5 5 6 6 8 8 10 10 12 12 14 14 16 16 17 17 20 \
20 22 22 28 28 29 29 31 31 33 33 35 35 37 37 38 38 39 \
39 42 42 43 43 44 44 

