#    Name: 6iwr_1_UD2_CAVITY_N1_6
#    Modification time : Fri May 22 19:31:57 2020

@<TRIPOS>MOLECULE
6iwr_1_UD2_CAVITY_N1_6
   64     0     6     0     0
SMALL
NO_CHARGES


@<TRIPOS>ATOM
      1 OG         64.8300  149.4800    3.3300 O.3       1 SER1        0.0000 
      2 OG         63.6400  150.6800    5.3100 O.3       1 SER1        0.0000 
      3 OG         65.5200  150.0800    4.5300 O.3       1 SER1        0.0000 
      4 OG         64.5000  149.4500    5.4300 O.3       1 SER1        0.0000 
      5 O          62.2700  145.8200    2.8700 O.2       2 ALA2        0.0000 
      6 O          63.1200  144.5900    2.9900 O.2       2 ALA2        0.0000 
      7 O          62.1000  147.6400    3.9400 O.2       2 ALA2        0.0000 
      8 O          62.9500  146.4100    4.0600 O.2       2 ALA2        0.0000 
      9 O          63.8100  145.1900    4.1800 O.2       2 ALA2        0.0000 
     10 O          64.6600  143.9600    4.3000 O.2       2 ALA2        0.0000 
     11 N          63.6400  143.3300    5.2000 N.am      2 ALA2        0.0000 
     12 O          65.5200  142.7300    4.4200 O.2       2 ALA2        0.0000 
     13 N          64.5000  142.1100    5.3200 N.am      2 ALA2        0.0000 
     14 O          62.7900  148.2300    5.1400 O.2       2 ALA2        0.0000 
     15 O          63.6400  147.0100    5.2600 O.2       2 ALA2        0.0000 
     16 O          63.4800  148.8300    6.3300 O.2       2 ALA2        0.0000 
     17 O          63.3100  146.9800    7.3500 O.2       2 ALA2        0.0000 
     18 N          67.0600  149.4500    5.8400 N.am      2 ALA2        0.0000 
     19 NZ         63.9800  147.0400    3.1600 N.4       3 LYS4        0.0000 
     20 NZ         64.8300  145.8100    3.2800 N.4       3 LYS4        0.0000 
     21 NZ         64.6700  147.6300    4.3500 N.4       3 LYS4        0.0000 
     22 NZ         65.5200  146.4100    4.4700 N.4       3 LYS4        0.0000 
     23 NZ         66.3800  148.8500    4.6500 N.4       3 LYS4        0.0000 
     24 CZ         63.1200  148.2600    3.0400 C.ar      4 PHE5        0.0000 
     25 CZ         63.8100  148.8600    4.2300 C.ar      4 PHE5        0.0000 
     26 CA         63.2900  146.4400    1.9700 C.3       5 GLY6        0.0000 
     27 CA         64.1400  145.2100    2.0900 C.3       5 GLY6        0.0000 
     28 CA         65.0000  143.9900    2.2100 C.3       5 GLY6        0.0000 
     29 CA         62.7900  144.5600    5.0800 C.3       5 GLY6        0.0000 
     30 CA         65.6900  144.5800    3.4000 C.3       5 GLY6        0.0000 
     31 CA         66.5400  143.3600    3.5200 C.3       5 GLY6        0.0000 
     32 CA         67.4000  142.1300    3.6400 C.3       5 GLY6        0.0000 
     33 CA         63.4700  145.1600    6.2800 C.3       5 GLY6        0.0000 
     34 CA         66.3700  145.1800    4.5900 C.3       5 GLY6        0.0000 
     35 CA         64.3300  143.9300    6.4000 C.3       5 GLY6        0.0000 
     36 CA         63.3100  143.3000    7.3000 C.3       5 GLY6        0.0000 
     37 CA         67.2300  143.9500    4.7100 C.3       5 GLY6        0.0000 
     38 CA         65.1800  142.7000    6.5200 C.3       5 GLY6        0.0000 
     39 CA         68.0800  142.7200    4.8300 C.3       5 GLY6        0.0000 
     40 CA         66.0400  141.4800    6.6400 C.3       5 GLY6        0.0000 
     41 CA         63.1400  145.1300    8.3700 C.3       5 GLY6        0.0000 
     42 CA         67.0600  145.7700    5.7900 C.3       5 GLY6        0.0000 
     43 CA         65.0200  144.5200    7.5900 C.3       5 GLY6        0.0000 
     44 CA         63.9900  143.9000    8.4900 C.3       5 GLY6        0.0000 
     45 CA         67.9200  144.5500    5.9100 C.3       5 GLY6        0.0000 
     46 CA         65.8700  143.3000    7.7100 C.3       5 GLY6        0.0000 
     47 CA         66.7300  142.0700    7.8300 C.3       5 GLY6        0.0000 
     48 CA         63.8300  145.7200    9.5600 C.3       5 GLY6        0.0000 
     49 CA         64.6800  144.5000    9.6800 C.3       5 GLY6        0.0000 
     50 DU         66.3700  141.5000    4.5400 H         6 CUB7        0.0000 
     51 DU         64.5000  145.7800    5.3800 H         6 CUB7        0.0000 
     52 DU         65.3500  144.5500    5.5000 H         6 CUB7        0.0000 
     53 DU         66.2100  143.3300    5.6200 H         6 CUB7        0.0000 
     54 DU         67.0600  142.1000    5.7400 H         6 CUB7        0.0000 
     55 DU         65.3500  148.2300    5.5500 H         6 CUB7        0.0000 
     56 DU         64.3300  147.6000    6.4500 H         6 CUB7        0.0000 
     57 DU         66.2100  147.0000    5.6700 H         6 CUB7        0.0000 
     58 DU         65.1800  146.3800    6.5700 H         6 CUB7        0.0000 
     59 DU         64.1600  145.7500    7.4700 H         6 CUB7        0.0000 
     60 DU         66.0400  145.1500    6.6900 H         6 CUB7        0.0000 
     61 DU         66.8900  143.9200    6.8100 H         6 CUB7        0.0000 
     62 DU         64.1600  149.4300    7.5200 H         6 CUB7        0.0000 
     63 DU         66.0400  148.8200    6.7400 H         6 CUB7        0.0000 
     64 DU         63.9900  147.5700    8.5400 H         6 CUB7        0.0000 
@<TRIPOS>BOND
@<TRIPOS>SUBSTRUCTURE
     1 SER1        1 GROUP   
     2 ALA2        5 GROUP   
     3 LYS4       19 GROUP   
     4 PHE5       24 GROUP   
     5 GLY6       26 GROUP   
     6 CUB7       50 GROUP   
@<TRIPOS>SET

