#    Name: 6iwr_1_UD2
#    Modification time : Fri May 22 19:31:55 2020

@<TRIPOS>MOLECULE
6iwr_1_UD2
   39    41     1     0     0
SMALL
NO_CHARGES


@<TRIPOS>ATOM
      1 C1'        66.8910  150.2040    7.3420 C.3       1 UD2704      0.0000 
      2 C2'        66.6970  150.8270    5.9880 C.3       1 UD2704      0.0000 
      3 C3'        66.1460  149.7600    4.9500 C.3       1 UD2704      0.0000 
      4 C4'        66.9970  148.4950    4.9560 C.3       1 UD2704      0.0000 
      5 C5'        67.0770  147.9230    6.3850 C.3       1 UD2704      0.0000 
      6 C6'        67.9210  146.6490    6.4250 C.3       1 UD2704      0.0000 
      7 C7'        66.2780  153.3020    6.2020 C.2       1 UD2704      0.0000 
      8 C8'        65.1970  154.4230    6.1030 C.3       1 UD2704      0.0000 
      9 N2'        65.8050  152.0270    6.0260 N.am      1 UD2704      0.0000 
     10 O1'        65.5490  149.8830    7.8630 O.3       1 UD2704      0.0000 
     11 O3'        66.1870  150.3430    3.5730 O.3       1 UD2704      0.0000 
     12 O4'        68.3930  148.8050    4.4900 O.3       1 UD2704      0.0000 
     13 O5'        67.7240  148.9140    7.3250 O.3       1 UD2704      0.0000 
     14 O6'        68.1900  146.2820    7.7960 O.3       1 UD2704      0.0000 
     15 O7'        67.4590  153.5970    6.4560 O.2       1 UD2704      0.0000 
     16 N1         63.9410  158.7310   12.0040 N.am      1 UD2704      0.0000 
     17 C2         63.4520  159.9810   11.8860 C.2       1 UD2704      0.0000 
     18 N3         62.1330  160.2710   12.4650 N.am      1 UD2704      0.0000 
     19 C4         61.3570  159.2450   13.1730 C.2       1 UD2704      0.0000 
     20 C5         61.8930  157.9490   13.2950 C.2       1 UD2704      0.0000 
     21 C6         63.1610  157.7120   12.7090 C.2       1 UD2704      0.0000 
     22 O2         64.0850  160.8760   11.3010 O.2       1 UD2704      0.0000 
     23 O4         60.2370  159.4990   13.6720 O.2       1 UD2704      0.0000 
     24 C1B        65.3120  158.3430   11.4550 C.3       1 UD2704      0.0000 
     25 C2B        66.4030  158.2360   12.5980 C.3       1 UD2704      0.0000 
     26 O2'        66.9520  159.5830   12.9530 O.3       1 UD2704      0.0000 
     27 C3B        67.5160  157.3440   11.8890 C.3       1 UD2704      0.0000 
     28 C4B        66.6220  156.3500   11.0630 C.3       1 UD2704      0.0000 
     29 O4B        65.1400  156.8710   11.2060 O.3       1 UD2704      0.0000 
     30 O3B        68.3020  158.2280   10.9460 O.3       1 UD2704      0.0000 
     31 C5B        66.5250  154.8610   11.4700 C.3       1 UD2704      0.0000 
     32 O5B        65.6520  154.2310   10.4280 O.3       1 UD2704      0.0000 
     33 PA         64.9530  152.7080   10.7580 P.3       1 UD2704      0.0000 
     34 O1A        65.9600  152.1040   11.7620 O.co2     1 UD2704      0.0000 
     35 O2A        63.3950  152.6820   11.0470 O.co2     1 UD2704      0.0000 
     36 O3A        65.1740  151.7160    9.3330 O.3       1 UD2704      0.0000 
     37 PB         65.4040  150.1270    9.7130 P.3       1 UD2704      0.0000 
     38 O1B        66.9080  149.7250    9.8780 O.co2     1 UD2704      0.0000 
     39 O2B        64.2290  149.1700    9.4720 O.co2     1 UD2704      0.0000 
@<TRIPOS>BOND
     1    1    2 1    
     2    1   10 1    
     3    1   13 1    
     4    2    3 1    
     5    2    9 1    
     6    3    4 1    
     7    3   11 1    
     8    4    5 1    
     9    4   12 1    
    10    5    6 1    
    11    5   13 1    
    12    6   14 1    
    13    7    8 1    
    14    7    9 am   
    15    7   15 2    
    16   10   37 1    
    17   16   17 1    
    18   16   21 1    
    19   16   24 1    
    20   17   18 1    
    21   17   22 2    
    22   18   19 1    
    23   19   20 1    
    24   19   23 2    
    25   20   21 2    
    26   24   25 1    
    27   24   29 1    
    28   25   26 1    
    29   25   27 1    
    30   27   28 1    
    31   27   30 1    
    32   28   29 1    
    33   28   31 1    
    34   31   32 1    
    35   32   33 1    
    36   33   34 ar   
    37   33   35 ar   
    38   33   36 1    
    39   36   37 1    
    40   37   38 ar   
    41   37   39 ar   
@<TRIPOS>SUBSTRUCTURE
     1 UD2704      1 GROUP   
@<TRIPOS>SET

