#    Name: 5o6j_2_MYA
#    Modification time : Fri May 22 19:17:09 2020

@<TRIPOS>MOLECULE
5o6j_2_MYA
   63    65     1     0     0
SMALL
NO_CHARGES


@<TRIPOS>ATOM
      1 S1        -21.7720   55.8800  -17.6460 S.3       1 MYA2001     0.0000 
      2 C2        -20.3050   56.8820  -17.6710 C.3       1 MYA2001     0.0000 
      3 C3        -19.9900   57.3090  -19.0710 C.3       1 MYA2001     0.0000 
      4 N4        -18.6490   57.9550  -19.1430 N.am      1 MYA2001     0.0000 
      5 C5        -18.4230   59.2750  -19.0620 C.2       1 MYA2001     0.0000 
      6 O5        -19.3820   60.0860  -18.9040 O.2       1 MYA2001     0.0000 
      7 C6        -16.9850   59.7640  -19.1280 C.3       1 MYA2001     0.0000 
      8 C7        -16.8770   61.1370  -19.8250 C.3       1 MYA2001     0.0000 
      9 N8        -17.4100   61.0460  -21.1830 N.am      1 MYA2001     0.0000 
     10 C9        -17.0000   60.3200  -22.1720 C.2       1 MYA2001     0.0000 
     11 O9        -16.0480   59.5450  -22.0750 O.2       1 MYA2001     0.0000 
     12 C10       -17.7040   60.3730  -23.5050 C.3       1 MYA2001     0.0000 
     13 O10       -18.3600   61.6440  -23.5450 O.3       1 MYA2001     0.0000 
     14 C11       -18.6670   59.2110  -23.7250 C.3       1 MYA2001     0.0000 
     15 C12       -19.5090   59.3850  -24.9860 C.3       1 MYA2001     0.0000 
     16 C13       -19.6630   58.9820  -22.5810 C.3       1 MYA2001     0.0000 
     17 C14       -17.7330   57.9420  -23.9150 C.3       1 MYA2001     0.0000 
     18 N1A       -24.0760   56.0530  -22.2430 N.ar      1 MYA2001     0.0000 
     19 O1A       -18.9190   58.8250  -29.4180 O.co2     1 MYA2001     0.0000 
     20 P1A       -19.9450   59.8600  -29.3680 P.3       1 MYA2001     0.0000 
     21 C1X       -24.6330   58.2440  -26.8220 C.3       1 MYA2001     0.0000 
     22 C2A       -24.6450   55.5970  -23.3730 C.ar      1 MYA2001     0.0000 
     23 O2A       -19.8730   60.8610  -30.5150 O.co2     1 MYA2001     0.0000 
     24 P2A       -18.7350   60.9180  -27.0500 P.3       1 MYA2001     0.0000 
     25 C2M       -21.3600   54.2680  -18.1090 C.2       1 MYA2001     0.0000 
     26 O2M       -20.1880   53.9590  -18.1770 O.2       1 MYA2001     0.0000 
     27 C2X       -25.1890   59.5400  -27.3830 C.3       1 MYA2001     0.0000 
     28 O2X       -26.5070   59.6810  -26.9160 O.3       1 MYA2001     0.0000 
     29 N3A       -24.7480   56.2990  -24.4850 N.ar      1 MYA2001     0.0000 
     30 O3A       -19.9180   60.5960  -27.9060 O.3       1 MYA2001     0.0000 
     31 C3M       -22.3810   53.3290  -18.5390 C.3       1 MYA2001     0.0000 
     32 C3X       -25.0310   59.3910  -28.8770 C.3       1 MYA2001     0.0000 
     33 O3X       -25.9280   58.3940  -29.2120 O.3       1 MYA2001     0.0000 
     34 P3X       -27.2340   58.8630  -30.0310 P.3       1 MYA2001     0.0000 
     35 C4A       -24.1440   57.4790  -24.4940 C.ar      1 MYA2001     0.0000 
     36 O4A       -19.1380   62.0920  -26.1320 O.co2     1 MYA2001     0.0000 
     37 C4M       -22.3400   53.2150  -20.0680 C.3       1 MYA2001     0.0000 
     38 C4X       -23.6140   58.7980  -28.9720 C.3       1 MYA2001     0.0000 
     39 O4X       -23.4510   58.1340  -27.6710 O.3       1 MYA2001     0.0000 
     40 C5A       -23.5070   58.0110  -23.3480 C.ar      1 MYA2001     0.0000 
     41 O5A       -17.4660   61.1130  -27.7730 O.co2     1 MYA2001     0.0000 
     42 C5M       -23.5070   52.3940  -20.6180 C.3       1 MYA2001     0.0000 
     43 C5X       -22.5930   59.8260  -29.2260 C.3       1 MYA2001     0.0000 
     44 O5X       -21.2730   59.1230  -29.3280 O.3       1 MYA2001     0.0000 
     45 C6A       -23.3850   57.2100  -22.2190 C.ar      1 MYA2001     0.0000 
     46 N6A       -22.7950   57.6710  -21.0640 N.pl3     1 MYA2001     0.0000 
     47 O6A       -18.6440   59.6120  -26.0780 O.3       1 MYA2001     0.0000 
     48 C6M       -23.4190   52.1990  -22.1640 C.3       1 MYA2001     0.0000 
     49 N7A       -23.0350   59.2620  -23.6160 N.2       1 MYA2001     0.0000 
     50 O7A       -27.7880   60.0400  -29.1820 O.co2     1 MYA2001     0.0000 
     51 C7M       -24.6010   51.4280  -22.7530 C.3       1 MYA2001     0.0000 
     52 C8A       -23.3520   59.4770  -24.9660 C.2       1 MYA2001     0.0000 
     53 O8A       -26.7760   59.3360  -31.3850 O.co2     1 MYA2001     0.0000 
     54 C8M       -24.5300   49.9280  -22.4020 C.3       1 MYA2001     0.0000 
     55 N9A       -24.1130   58.4420  -25.4410 N.pl3     1 MYA2001     0.0000 
     56 O9A       -28.1900   57.7790  -30.0480 O.co2     1 MYA2001     0.0000 
     57 C9M       -25.6850   49.1930  -23.0940 C.3       1 MYA2001     0.0000 
     58 CAM       -25.6600   47.6740  -22.8670 C.3       1 MYA2001     0.0000 
     59 CBM       -24.4280   46.9500  -23.5960 C.3       1 MYA2001     0.0000 
     60 CCM       -24.4050   45.4340  -23.1980 C.3       1 MYA2001     0.0000 
     61 CDM       -25.6500   44.6150  -23.7040 C.3       1 MYA2001     0.0000 
     62 CEM       -25.4630   43.1130  -23.4370 C.3       1 MYA2001     0.0000 
     63 CFM       -26.6670   42.2360  -23.7620 C.3       1 MYA2001     0.0000 
@<TRIPOS>BOND
     1    1    2 1    
     2    1   25 1    
     3    2    3 1    
     4    3    4 1    
     5    4    5 am   
     6    5    6 2    
     7    5    7 1    
     8    7    8 1    
     9    8    9 1    
    10    9   10 am   
    11   10   11 2    
    12   10   12 1    
    13   12   13 1    
    14   12   14 1    
    15   14   15 1    
    16   14   16 1    
    17   14   17 1    
    18   15   47 1    
    19   18   22 ar   
    20   18   45 ar   
    21   19   20 ar   
    22   20   23 ar   
    23   20   30 1    
    24   20   44 1    
    25   21   27 1    
    26   21   39 1    
    27   21   55 1    
    28   22   29 ar   
    29   24   30 1    
    30   24   36 ar   
    31   24   41 ar   
    32   24   47 1    
    33   25   26 2    
    34   25   31 1    
    35   27   28 1    
    36   27   32 1    
    37   29   35 ar   
    38   31   37 1    
    39   32   33 1    
    40   32   38 1    
    41   33   34 1    
    42   34   50 ar   
    43   34   53 ar   
    44   34   56 ar   
    45   35   40 ar   
    46   35   55 1    
    47   37   42 1    
    48   38   39 1    
    49   38   43 1    
    50   40   45 ar   
    51   40   49 1    
    52   42   48 1    
    53   43   44 1    
    54   45   46 1    
    55   48   51 1    
    56   49   52 2    
    57   51   54 1    
    58   52   55 1    
    59   54   57 1    
    60   57   58 1    
    61   58   59 1    
    62   59   60 1    
    63   60   61 1    
    64   61   62 1    
    65   62   63 1    
@<TRIPOS>SUBSTRUCTURE
     1 MYA2001     1 GROUP   
@<TRIPOS>SET

