#    Name: 5o6j_1_MYA
#    Modification time : Fri May 22 19:17:02 2020

@<TRIPOS>MOLECULE
5o6j_1_MYA
   63    65     1     0     0
SMALL
NO_CHARGES


@<TRIPOS>ATOM
      1 S1        -19.3330    8.9310  -12.0160 S.3       1 MYA2001     0.0000 
      2 C2        -17.6610    8.2010  -12.0510 C.3       1 MYA2001     0.0000 
      3 C3        -17.3350    7.6920  -10.6260 C.3       1 MYA2001     0.0000 
      4 N4        -15.9870    7.1950  -10.5120 N.am      1 MYA2001     0.0000 
      5 C5        -15.5520    5.9220  -10.5810 C.2       1 MYA2001     0.0000 
      6 O5        -16.4280    5.0380  -10.7410 O.2       1 MYA2001     0.0000 
      7 C6        -14.0820    5.7070  -10.4610 C.3       1 MYA2001     0.0000 
      8 C7        -13.7710    4.3770   -9.7100 C.3       1 MYA2001     0.0000 
      9 N8        -14.2960    4.3560   -8.3660 N.am      1 MYA2001     0.0000 
     10 C9        -13.9590    5.1860   -7.3720 C.2       1 MYA2001     0.0000 
     11 O9        -13.0150    5.9780   -7.5700 O.2       1 MYA2001     0.0000 
     12 C10       -14.6630    4.9690   -6.0610 C.3       1 MYA2001     0.0000 
     13 O10       -15.2700    3.6430   -6.0780 O.3       1 MYA2001     0.0000 
     14 C11       -15.8270    5.9910   -5.9110 C.3       1 MYA2001     0.0000 
     15 C12       -16.6170    5.6690   -4.6170 C.3       1 MYA2001     0.0000 
     16 C13       -16.8160    6.1030   -7.1070 C.3       1 MYA2001     0.0000 
     17 C14       -15.1760    7.3480   -5.6370 C.3       1 MYA2001     0.0000 
     18 N1A       -21.6120    8.5890   -7.3980 N.ar      1 MYA2001     0.0000 
     19 O1A       -16.0530    6.3610   -0.1730 O.co2     1 MYA2001     0.0000 
     20 P1A       -17.0180    5.2740   -0.2400 P.3       1 MYA2001     0.0000 
     21 C1X       -21.7280    6.2610   -2.7560 C.3       1 MYA2001     0.0000 
     22 C2A       -22.1890    8.9670   -6.2340 C.ar      1 MYA2001     0.0000 
     23 O2A       -16.9740    4.2030    0.8700 O.co2     1 MYA2001     0.0000 
     24 P2A       -15.7300    4.2870   -2.5420 P.3       1 MYA2001     0.0000 
     25 C2M       -19.0760   10.5960  -11.5400 C.2       1 MYA2001     0.0000 
     26 O2M       -17.9340   10.9970  -11.5020 O.2       1 MYA2001     0.0000 
     27 C2X       -22.2560    4.9190   -2.2740 C.3       1 MYA2001     0.0000 
     28 O2X       -23.5750    4.6860   -2.7470 O.3       1 MYA2001     0.0000 
     29 N3A       -22.2040    8.2160   -5.0830 N.ar      1 MYA2001     0.0000 
     30 O3A       -17.0600    4.5460   -1.6980 O.3       1 MYA2001     0.0000 
     31 C3M       -20.2240   11.4560  -11.0670 C.3       1 MYA2001     0.0000 
     32 C3X       -22.1010    5.2000   -0.7620 C.3       1 MYA2001     0.0000 
     33 O3X       -23.1750    6.0650   -0.4450 O.3       1 MYA2001     0.0000 
     34 P3X       -24.4140    5.4340    0.4180 P.3       1 MYA2001     0.0000 
     35 C4A       -21.4660    7.0980   -5.0850 C.ar      1 MYA2001     0.0000 
     36 O4A       -16.1740    3.0720   -3.4400 O.co2     1 MYA2001     0.0000 
     37 C4M       -20.1710   11.4760   -9.5280 C.3       1 MYA2001     0.0000 
     38 C4X       -20.7660    5.9480   -0.6310 C.3       1 MYA2001     0.0000 
     39 O4X       -20.6050    6.5480   -1.9180 O.3       1 MYA2001     0.0000 
     40 C5A       -20.7700    6.6990   -6.2300 C.ar      1 MYA2001     0.0000 
     41 O5A       -14.4720    4.1670   -1.8690 O.co2     1 MYA2001     0.0000 
     42 C5M       -21.4000   12.2690   -9.0210 C.3       1 MYA2001     0.0000 
     43 C5X       -19.6750    4.9950   -0.3280 C.3       1 MYA2001     0.0000 
     44 O5X       -18.4870    5.8030   -0.2890 O.3       1 MYA2001     0.0000 
     45 C6A       -20.8370    7.4720   -7.3880 C.ar      1 MYA2001     0.0000 
     46 N6A       -20.2270    7.0900   -8.5610 N.pl3     1 MYA2001     0.0000 
     47 O6A       -15.6830    5.5800   -3.5480 O.3       1 MYA2001     0.0000 
     48 C6M       -21.1880   12.5130   -7.5120 C.3       1 MYA2001     0.0000 
     49 N7A       -20.1800    5.5360   -5.9750 N.2       1 MYA2001     0.0000 
     50 O7A       -24.8530    4.2200   -0.3890 O.co2     1 MYA2001     0.0000 
     51 C7M       -22.5020   13.0890   -6.9470 C.3       1 MYA2001     0.0000 
     52 C8A       -20.4220    5.2640   -4.6570 C.2       1 MYA2001     0.0000 
     53 O8A       -23.8850    5.0940    1.8020 O.co2     1 MYA2001     0.0000 
     54 C8M       -22.6800   14.5770   -7.2030 C.3       1 MYA2001     0.0000 
     55 N9A       -21.2380    6.2200   -4.1440 N.pl3     1 MYA2001     0.0000 
     56 O9A       -25.4310    6.4820    0.5260 O.co2     1 MYA2001     0.0000 
     57 C9M       -23.9420   15.1360   -6.5130 C.3       1 MYA2001     0.0000 
     58 CAM       -24.0520   16.6660   -6.8020 C.3       1 MYA2001     0.0000 
     59 CBM       -23.0140   17.5720   -6.0790 C.3       1 MYA2001     0.0000 
     60 CCM       -23.0850   19.0610   -6.4680 C.3       1 MYA2001     0.0000 
     61 CDM       -24.4110   19.7220   -5.9600 C.3       1 MYA2001     0.0000 
     62 CEM       -24.2410   21.1960   -6.2120 C.3       1 MYA2001     0.0000 
     63 CFM       -25.5580   21.9470   -5.9300 C.3       1 MYA2001     0.0000 
@<TRIPOS>BOND
     1    1    2 1    
     2    1   25 1    
     3    2    3 1    
     4    3    4 1    
     5    4    5 am   
     6    5    6 2    
     7    5    7 1    
     8    7    8 1    
     9    8    9 1    
    10    9   10 am   
    11   10   11 2    
    12   10   12 1    
    13   12   13 1    
    14   12   14 1    
    15   14   15 1    
    16   14   16 1    
    17   14   17 1    
    18   15   47 1    
    19   18   22 ar   
    20   18   45 ar   
    21   19   20 ar   
    22   20   23 ar   
    23   20   30 1    
    24   20   44 1    
    25   21   27 1    
    26   21   39 1    
    27   21   55 1    
    28   22   29 ar   
    29   24   30 1    
    30   24   36 ar   
    31   24   41 ar   
    32   24   47 1    
    33   25   26 2    
    34   25   31 1    
    35   27   28 1    
    36   27   32 1    
    37   29   35 ar   
    38   31   37 1    
    39   32   33 1    
    40   32   38 1    
    41   33   34 1    
    42   34   50 ar   
    43   34   53 ar   
    44   34   56 ar   
    45   35   40 ar   
    46   35   55 1    
    47   37   42 1    
    48   38   39 1    
    49   38   43 1    
    50   40   45 ar   
    51   40   49 1    
    52   42   48 1    
    53   43   44 1    
    54   45   46 1    
    55   48   51 1    
    56   49   52 2    
    57   51   54 1    
    58   52   55 1    
    59   54   57 1    
    60   57   58 1    
    61   58   59 1    
    62   59   60 1    
    63   60   61 1    
    64   61   62 1    
    65   62   63 1    
@<TRIPOS>SUBSTRUCTURE
     1 MYA2001     1 GROUP   
@<TRIPOS>SET

