#    Name: 5un1_1_Y01_CAVITY_N1_8
#    Modification time : Fri May 22 19:14:43 2020

@<TRIPOS>MOLECULE
5un1_1_Y01_CAVITY_N1_8
   42     0     4     0     0
SMALL
NO_CHARGES


@<TRIPOS>ATOM
      1 O         -35.4400  -33.7800   48.1000 O.2       1 ALA2        0.0000 
      2 N         -23.7100  -30.1100   43.9000 N.am      1 ALA2        0.0000 
      3 O         -34.5100  -32.0800   48.9700 O.2       1 ALA2        0.0000 
      4 O         -34.1600  -30.7100   48.4900 O.2       1 ALA2        0.0000 
      5 N         -28.2800  -28.8300   48.8800 N.am      1 ALA2        0.0000 
      6 N         -27.9200  -27.4500   48.4000 N.am      1 ALA2        0.0000 
      7 N         -26.7200  -30.3900   50.2500 N.am      1 ALA2        0.0000 
      8 N         -25.6500  -26.2600   48.8200 N.am      1 ALA2        0.0000 
      9 N         -27.7000  -28.5100   50.2300 N.am      1 ALA2        0.0000 
     10 N         -26.9900  -25.7500   49.2700 N.am      1 ALA2        0.0000 
     11 N         -27.4800  -29.5600   52.0500 N.am      1 ALA2        0.0000 
     12 N         -27.1300  -28.1900   51.5700 N.am      1 ALA2        0.0000 
     13 O         -28.8200  -29.0600   52.5000 O.2       1 ALA2        0.0000 
     14 N         -25.8400  -25.1100   51.9600 N.am      1 ALA2        0.0000 
     15 N         -27.5300  -25.9900   52.8900 N.am      1 ALA2        0.0000 
     16 N         -26.6000  -24.2900   53.7600 N.am      1 ALA2        0.0000 
     17 OD1       -32.8500  -31.3000   43.0700 O.co2     2 ASP3        0.0000 
     18 CA        -34.1100  -34.2800   47.6500 C.3       3 GLY6        0.0000 
     19 CA        -33.0400  -30.1500   46.2200 C.3       3 GLY6        0.0000 
     20 CA        -35.0900  -32.4000   47.6300 C.3       3 GLY6        0.0000 
     21 CA        -24.4800  -29.2800   45.7000 C.3       3 GLY6        0.0000 
     22 CA        -25.8200  -28.7800   46.1500 C.3       3 GLY6        0.0000 
     23 CA        -27.1600  -28.2800   46.6000 C.3       3 GLY6        0.0000 
     24 CA        -23.9000  -28.9600   47.0500 C.3       3 GLY6        0.0000 
     25 CA        -25.2400  -28.4600   47.5000 C.3       3 GLY6        0.0000 
     26 CA        -26.9400  -29.3300   48.4300 C.3       3 GLY6        0.0000 
     27 CA        -26.5800  -27.9600   47.9500 C.3       3 GLY6        0.0000 
     28 CA        -21.9900  -29.1500   47.9400 C.3       3 GLY6        0.0000 
     29 CA        -23.3300  -28.6400   48.3900 C.3       3 GLY6        0.0000 
     30 CA        -25.0200  -29.5200   49.3200 C.3       3 GLY6        0.0000 
     31 CA        -24.6700  -28.1400   48.8400 C.3       3 GLY6        0.0000 
     32 CA        -26.3600  -29.0100   49.7800 C.3       3 GLY6        0.0000 
     33 CA        -28.6800  -26.6300   50.2000 C.3       3 GLY6        0.0000 
     34 CA        -28.4600  -27.6800   52.0300 C.3       3 GLY6        0.0000 
     35 DU        -26.0100  -27.6400   49.3000 H         4 CUB7        0.0000 
     36 DU        -27.3400  -27.1300   49.7500 H         4 CUB7        0.0000 
     37 DU        -25.7900  -28.6900   51.1200 H         4 CUB7        0.0000 
     38 DU        -25.4300  -27.3100   50.6400 H         4 CUB7        0.0000 
     39 DU        -25.0700  -25.9400   50.1600 H         4 CUB7        0.0000 
     40 DU        -26.7700  -26.8100   51.1000 H         4 CUB7        0.0000 
     41 DU        -24.5000  -25.6200   51.5100 H         4 CUB7        0.0000 
     42 DU        -26.1900  -26.4900   52.4400 H         4 CUB7        0.0000 
@<TRIPOS>BOND
@<TRIPOS>SUBSTRUCTURE
     1 ALA2        1 GROUP   
     2 ASP3       17 GROUP   
     3 GLY6       18 GROUP   
     4 CUB7       35 GROUP   
@<TRIPOS>SET

