#    Name: 5un1_1_Y01_CAVITY_N1_6
#    Modification time : Fri May 22 19:14:43 2020

@<TRIPOS>MOLECULE
5un1_1_Y01_CAVITY_N1_6
   13     0     3     0     0
SMALL
NO_CHARGES


@<TRIPOS>ATOM
      1 N         -26.7200  -30.3900   50.2500 N.am      1 ALA2        0.0000 
      2 N         -27.7000  -28.5100   50.2300 N.am      1 ALA2        0.0000 
      3 N         -27.4800  -29.5600   52.0500 N.am      1 ALA2        0.0000 
      4 N         -27.1300  -28.1900   51.5700 N.am      1 ALA2        0.0000 
      5 O         -28.8200  -29.0600   52.5000 O.2       1 ALA2        0.0000 
      6 CA        -34.1100  -34.2800   47.6500 C.3       2 GLY6        0.0000 
      7 CA        -25.0200  -29.5200   49.3200 C.3       2 GLY6        0.0000 
      8 CA        -26.3600  -29.0100   49.7800 C.3       2 GLY6        0.0000 
      9 CA        -28.4600  -27.6800   52.0300 C.3       2 GLY6        0.0000 
     10 DU        -25.7900  -28.6900   51.1200 H         3 CUB7        0.0000 
     11 DU        -25.4300  -27.3100   50.6400 H         3 CUB7        0.0000 
     12 DU        -26.7700  -26.8100   51.1000 H         3 CUB7        0.0000 
     13 DU        -26.1900  -26.4900   52.4400 H         3 CUB7        0.0000 
@<TRIPOS>BOND
@<TRIPOS>SUBSTRUCTURE
     1 ALA2        1 GROUP   
     2 GLY6        6 GROUP   
     3 CUB7       10 GROUP   
@<TRIPOS>SET

