#    Name: 5un1_1_Y01_CAVITY_N1_4
#    Modification time : Fri May 22 19:14:43 2020

@<TRIPOS>MOLECULE
5un1_1_Y01_CAVITY_N1_4
    1     0     1     0     0
SMALL
NO_CHARGES


@<TRIPOS>ATOM
      1 N         -27.4800  -29.5600   52.0500 N.am      1 ALA2        0.0000 
@<TRIPOS>BOND
@<TRIPOS>SUBSTRUCTURE
     1 ALA2        1 GROUP   
@<TRIPOS>SET

