#    Name: 5un1_1_Y01
#    Modification time : Fri May 22 19:14:42 2020

@<TRIPOS>MOLECULE
5un1_1_Y01
   35    39     1     0     0
SMALL
NO_CHARGES


@<TRIPOS>ATOM
      1 CAA       -25.3840  -31.4490   54.4830 C.3       1 Y011001     0.0000 
      2 CBA       -24.5090  -32.4030   55.3150 C.3       1 Y011001     0.0000 
      3 CAB       -25.0990  -32.7150   56.7090 C.3       1 Y011001     0.0000 
      4 CAN       -24.2700  -33.7000   54.4800 C.3       1 Y011001     0.0000 
      5 CAJ       -25.4630  -34.6880   54.6480 C.3       1 Y011001     0.0000 
      6 CAO       -24.9510  -36.0650   55.2010 C.3       1 Y011001     0.0000 
      7 CBB       -26.0960  -37.2110   54.9880 C.3       1 Y011001     0.0000 
      8 CAC       -27.4820  -36.5280   55.3860 C.3       1 Y011001     0.0000 
      9 CBE       -25.8680  -37.8510   53.7410 C.3       1 Y011001     0.0000 
     10 CAP       -25.6990  -39.4600   53.9360 C.3       1 Y011001     0.0000 
     11 CAQ       -26.0220  -40.2000   52.3060 C.3       1 Y011001     0.0000 
     12 CBG       -26.3560  -38.8530   51.3090 C.3       1 Y011001     0.0000 
     13 CBI       -26.9860  -37.7910   52.4160 C.3       1 Y011001     0.0000 
     14 CAE       -28.3130  -38.5290   52.8630 C.3       1 Y011001     0.0000 
     15 CAU       -27.2640  -36.6890   51.9080 C.3       1 Y011001     0.0000 
     16 CAS       -27.7470  -36.6800   50.8470 C.3       1 Y011001     0.0000 
     17 CBF       -27.2100  -37.7570   49.8420 C.3       1 Y011001     0.0000 
     18 CBD       -26.9080  -38.9320   50.4750 C.3       1 Y011001     0.0000 
     19 CAK       -26.5560  -39.8740   49.7030 Du        1 Y011001     0.0000 
     20 CAI       -27.6370  -40.0610   48.4400 Du        1 Y011001     0.0000 
     21 CAZ       -28.0940  -38.8670   47.8420 Du        1 Y011001     0.0000 
     22 CAV       -27.2550  -38.3130   46.6220 Du        1 Y011001     0.0000 
     23 CBH       -28.4450  -37.9550   48.6880 C.3       1 Y011001     0.0000 
     24 CAD       -29.6960  -38.4330   49.4410 C.3       1 Y011001     0.0000 
     25 CAT       -28.8230  -36.4270   48.1250 C.3       1 Y011001     0.0000 
     26 CAR       -28.1070  -36.0530   46.8470 C.3       1 Y011001     0.0000 
     27 CBC       -28.0400  -37.1180   45.9770 Du        1 Y011001     0.0000 
     28 OAW       -29.4010  -37.6820   45.6000 Du        1 Y011001     0.0000 
     29 CAY       -29.4590  -38.1840   44.2450 Du        1 Y011001     0.0000 
     30 OAG       -28.4380  -38.4650   43.6920 Du        1 Y011001     0.0000 
     31 CAM       -30.8020  -38.3150   43.4550 Du        1 Y011001     0.0000 
     32 CAL       -31.2230  -39.7230   42.9610 Du        1 Y011001     0.0000 
     33 CAX       -32.0360  -40.3460   44.1110 Du        1 Y011001     0.0000 
     34 OAH       -32.8460  -39.6340   44.8140 Du        1 Y011001     0.0000 
     35 OAF       -31.8430  -41.5830   44.3500 Du        1 Y011001     0.0000 
@<TRIPOS>BOND
     1    1    2 1    
     2    2    3 1    
     3    2    4 1    
     4    4    5 1    
     5    5    6 1    
     6    6    7 1    
     7    7    8 1    
     8    7    9 1    
     9    9   10 1    
    10    9   13 1    
    11   10   11 1    
    12   11   12 1    
    13   12   13 1    
    14   12   18 1    
    15   12   19 du   
    16   13   14 1    
    17   13   15 1    
    18   15   16 1    
    19   16   17 1    
    20   17   18 1    
    21   17   23 1    
    22   18   19 du   
    23   19   20 du   
    24   20   21 du   
    25   21   22 du   
    26   21   23 du   
    27   22   27 du   
    28   23   24 1    
    29   23   25 1    
    30   25   26 1    
    31   26   27 du   
    32   27   28 du   
    33   28   29 du   
    34   29   30 du   
    35   29   31 du   
    36   31   32 du   
    37   32   33 du   
    38   33   34 du   
    39   33   35 du   
@<TRIPOS>SUBSTRUCTURE
     1 Y011001     1 GROUP   
@<TRIPOS>SET

