#    Name: 6jbk_4_ATP
#    Modification time : Fri May 22 19:28:03 2020

@<TRIPOS>MOLECULE
6jbk_4_ATP
   31    33     1     0     1
SMALL
NO_CHARGES


@<TRIPOS>ATOM
      1 PG         15.1570   20.9730  -22.8690 P.3       1 ATP401      0.0000 
      2 O1G        16.5860   21.4580  -22.8940 O.co2     1 ATP401      0.0000 
      3 O2G        15.0930   19.5260  -22.4200 O.co2     1 ATP401      0.0000 
      4 O3G        14.1390   21.8780  -22.2280 O.co2     1 ATP401      0.0000 
      5 PB         13.8290   19.8940  -25.2160 P.3       1 ATP401      0.0000 
      6 O1B        13.0500   19.0350  -24.2520 O.co2     1 ATP401      0.0000 
      7 O2B        13.0590   20.5810  -26.3280 O.co2     1 ATP401      0.0000 
      8 O3B        14.6980   21.0190  -24.4250 O.3       1 ATP401      0.0000 
      9 PA         14.9720   17.6700  -26.6000 P.3       1 ATP401      0.0000 
     10 O1A        15.3600   16.5990  -25.6150 O.co2     1 ATP401      0.0000 
     11 O2A        13.6430   17.5590  -27.3170 O.co2     1 ATP401      0.0000 
     12 O3A        15.0830   19.0930  -25.8610 O.3       1 ATP401      0.0000 
     13 O5'        16.1120   17.7660  -27.7200 O.3       1 ATP401      0.0000 
     14 C5'        16.0770   18.8440  -28.6490 C.3       1 ATP401      0.0000 
     15 C4'        17.5100   19.2030  -28.9730 C.3       1 ATP401      0.0000 
     16 O4'        18.1910   18.0090  -29.3520 O.3       1 ATP401      0.0000 
     17 C3'        17.6190   20.2020  -30.1180 C.3       1 ATP401      0.0000 
     18 O3'        18.5800   21.2110  -29.7610 O.3       1 ATP401      0.0000 
     19 C2'        18.1460   19.3640  -31.2690 C.3       1 ATP401      0.0000 
     20 O2'        18.9760   20.1230  -32.1530 O.3       1 ATP401      0.0000 
     21 C1'        18.9180   18.2660  -30.5480 C.3       1 ATP401      0.0000 
     22 N9         19.0000   17.0460  -31.3690 N.pl3     1 ATP401      0.0000 
     23 C8         17.9430   16.3410  -31.8230 C.2       1 ATP401      0.0000 
     24 N7         18.3690   15.2800  -32.5400 N.2       1 ATP401      0.0000 
     25 C5         19.7220   15.3050  -32.5470 C.ar      1 ATP401      0.0000 
     26 C6         20.8090   14.4860  -33.1340 C.ar      1 ATP401      0.0000 
     27 N6         20.5190   13.3840  -33.8730 N.pl3     1 ATP401      0.0000 
     28 N1         22.0870   14.8680  -32.9010 N.ar      1 ATP401      0.0000 
     29 C2         22.3900   15.9570  -32.1740 C.ar      1 ATP401      0.0000 
     30 N3         21.4530   16.7460  -31.6240 N.ar      1 ATP401      0.0000 
     31 C4         20.1340   16.4760  -31.7730 C.ar      1 ATP401      0.0000 
@<TRIPOS>BOND
     1    1    2 ar   
     2    1    3 ar   
     3    1    4 ar   
     4    1    8 1    
     5    5    6 ar   
     6    5    7 ar   
     7    5    8 1    
     8    5   12 1    
     9    9   10 ar   
    10    9   11 ar   
    11    9   12 1    
    12    9   13 1    
    13   13   14 1    
    14   14   15 1    
    15   15   16 1    
    16   15   17 1    
    17   16   21 1    
    18   17   18 1    
    19   17   19 1    
    20   19   20 1    
    21   19   21 1    
    22   21   22 1    
    23   22   23 1    
    24   22   31 1    
    25   23   24 2    
    26   24   25 1    
    27   25   26 ar   
    28   25   31 ar   
    29   26   27 1    
    30   26   28 ar   
    31   28   29 ar   
    32   29   30 ar   
    33   30   31 ar   
@<TRIPOS>SUBSTRUCTURE
     1 ATP401      1 GROUP   
@<TRIPOS>SET
ATOM$ORANGE STATIC     ATOMS   COLORGROUP SYSTEM 
20 14 14 15 15 17 17 19 19 21 21 23 23 25 25 26 26 29 \
29 31 31 

