#    Name: 6jbk_3_ATP
#    Modification time : Fri May 22 19:27:56 2020

@<TRIPOS>MOLECULE
6jbk_3_ATP
   31    33     1     0     1
SMALL
NO_CHARGES


@<TRIPOS>ATOM
      1 PG         -0.6770  -17.4630  -22.9300 P.3       1 ATP401      0.0000 
      2 O1G         0.6900  -16.8300  -22.9280 O.co2     1 ATP401      0.0000 
      3 O2G        -0.6760  -18.9010  -22.4860 O.co2     1 ATP401      0.0000 
      4 O3G        -1.7630  -16.6380  -22.2960 O.co2     1 ATP401      0.0000 
      5 PB         -1.8220  -18.7000  -25.2670 P.3       1 ATP401      0.0000 
      6 O1B        -2.3570  -19.6610  -24.2480 O.co2     1 ATP401      0.0000 
      7 O2B        -2.7580  -18.1460  -26.3230 O.co2     1 ATP401      0.0000 
      8 O3B        -1.0720  -17.4870  -24.4990 O.3       1 ATP401      0.0000 
      9 PA         -0.5850  -20.8330  -26.6650 P.3       1 ATP401      0.0000 
     10 O1A        -0.1200  -21.8150  -25.6180 O.co2     1 ATP401      0.0000 
     11 O2A        -1.9080  -21.0620  -27.3610 O.co2     1 ATP401      0.0000 
     12 O3A        -0.5610  -19.3480  -26.0410 O.3       1 ATP401      0.0000 
     13 O5'         0.5730  -20.6510  -27.7580 O.3       1 ATP401      0.0000 
     14 C5'         0.4520  -19.6820  -28.7900 C.3       1 ATP401      0.0000 
     15 C4'         1.8410  -19.1040  -29.0390 C.3       1 ATP401      0.0000 
     16 O4'         2.7720  -20.1540  -29.3320 O.3       1 ATP401      0.0000 
     17 C3'         1.8540  -18.1290  -30.2140 C.3       1 ATP401      0.0000 
     18 O3'         2.6530  -16.9970  -29.8360 O.3       1 ATP401      0.0000 
     19 C2'         2.5430  -18.8980  -31.3280 C.3       1 ATP401      0.0000 
     20 O2'         3.3100  -18.0550  -32.1920 O.3       1 ATP401      0.0000 
     21 C1'         3.4530  -19.8360  -30.5520 C.3       1 ATP401      0.0000 
     22 N9          3.7180  -21.0410  -31.3470 N.pl3     1 ATP401      0.0000 
     23 C8          2.7900  -21.9090  -31.7950 C.2       1 ATP401      0.0000 
     24 N7          3.3660  -22.9170  -32.4880 N.2       1 ATP401      0.0000 
     25 C5          4.6920  -22.6820  -32.4880 C.ar      1 ATP401      0.0000 
     26 C6          5.8820  -23.3580  -33.0390 C.ar      1 ATP401      0.0000 
     27 N6          5.7330  -24.5010  -33.7490 N.pl3     1 ATP401      0.0000 
     28 N1          7.0940  -22.7940  -32.8070 N.ar      1 ATP401      0.0000 
     29 C2          7.2300  -21.6510  -32.1030 C.ar      1 ATP401      0.0000 
     30 N3          6.1930  -20.9850  -31.5650 N.ar      1 ATP401      0.0000 
     31 C4          4.9250  -21.4440  -31.7300 C.ar      1 ATP401      0.0000 
@<TRIPOS>BOND
     1    1    2 ar   
     2    1    3 ar   
     3    1    4 ar   
     4    1    8 1    
     5    5    6 ar   
     6    5    7 ar   
     7    5    8 1    
     8    5   12 1    
     9    9   10 ar   
    10    9   11 ar   
    11    9   12 1    
    12    9   13 1    
    13   13   14 1    
    14   14   15 1    
    15   15   16 1    
    16   15   17 1    
    17   16   21 1    
    18   17   18 1    
    19   17   19 1    
    20   19   20 1    
    21   19   21 1    
    22   21   22 1    
    23   22   23 1    
    24   22   31 1    
    25   23   24 2    
    26   24   25 1    
    27   25   26 ar   
    28   25   31 ar   
    29   26   27 1    
    30   26   28 ar   
    31   28   29 ar   
    32   29   30 ar   
    33   30   31 ar   
@<TRIPOS>SUBSTRUCTURE
     1 ATP401      1 GROUP   
@<TRIPOS>SET
ATOM$ORANGE STATIC     ATOMS   COLORGROUP SYSTEM 
20 14 14 15 15 17 17 19 19 21 21 23 23 25 25 26 26 29 \
29 31 31 

