#    Name: 5yss_2_NAD
#    Modification time : Fri May 22 19:23:44 2020

@<TRIPOS>MOLECULE
5yss_2_NAD
   44    48     1     0     1
SMALL
NO_CHARGES


@<TRIPOS>ATOM
      1 PA        -11.9220   -1.2370   88.2890 P.3       1 NAD301      0.0000 
      2 O1A       -13.2010   -1.8250   87.7710 O.co2     1 NAD301      0.0000 
      3 O2A       -12.2110   -0.1550   89.2890 O.co2     1 NAD301      0.0000 
      4 O5B       -11.1160   -0.6270   87.0190 O.3       1 NAD301      0.0000 
      5 C5B       -10.7840   -1.5830   85.9880 C.3       1 NAD301      0.0000 
      6 C4B       -10.6590   -0.8460   84.5920 C.3       1 NAD301      0.0000 
      7 O4B       -10.6150   -1.7450   83.6390 O.3       1 NAD301      0.0000 
      8 C3B       -11.8640    0.0320   84.3390 C.3       1 NAD301      0.0000 
      9 O3B       -11.4610    1.2890   83.9820 O.3       1 NAD301      0.0000 
     10 C2B       -12.6150   -0.6950   83.1680 C.3       1 NAD301      0.0000 
     11 O2B       -13.3730    0.3080   82.3140 O.3       1 NAD301      0.0000 
     12 C1B       -11.6640   -1.2400   82.5170 C.3       1 NAD301      0.0000 
     13 N9A       -12.0610   -2.3780   81.6900 N.pl3     1 NAD301      0.0000 
     14 C8A       -12.6950   -3.5350   82.0110 C.2       1 NAD301      0.0000 
     15 N7A       -12.8280   -4.2760   80.8820 N.2       1 NAD301      0.0000 
     16 C5A       -12.2660   -3.5810   79.8650 C.ar      1 NAD301      0.0000 
     17 C6A       -12.1270   -3.8640   78.5250 C.ar      1 NAD301      0.0000 
     18 N6A       -12.5660   -5.0210   77.8560 N.pl3     1 NAD301      0.0000 
     19 N1A       -11.5180   -2.9760   77.7070 N.ar      1 NAD301      0.0000 
     20 C2A       -11.0440   -1.8000   78.2040 C.ar      1 NAD301      0.0000 
     21 N3A       -11.1810   -1.5100   79.5380 N.ar      1 NAD301      0.0000 
     22 C4A       -11.7890   -2.4090   80.3590 C.ar      1 NAD301      0.0000 
     23 O3        -11.0760   -2.4110   88.9700 O.3       1 NAD301      0.0000 
     24 PN         -9.6190   -2.3630   89.6530 P.3       1 NAD301      0.0000 
     25 O1N        -9.7660   -2.9290   91.0700 O.co2     1 NAD301      0.0000 
     26 O2N        -9.0460   -0.9500   89.7000 O.co2     1 NAD301      0.0000 
     27 O5D        -8.6160   -3.3490   88.8310 O.3       1 NAD301      0.0000 
     28 C5D        -7.6050   -2.8410   88.0050 C.3       1 NAD301      0.0000 
     29 C4D        -6.4140   -3.8270   87.8980 C.3       1 NAD301      0.0000 
     30 O4D        -5.7810   -3.9540   89.0550 O.3       1 NAD301      0.0000 
     31 C3D        -6.8540   -5.2140   87.5140 C.3       1 NAD301      0.0000 
     32 O3D        -5.9770   -5.7770   86.6360 O.3       1 NAD301      0.0000 
     33 C2D        -6.8100   -5.9890   88.8690 C.3       1 NAD301      0.0000 
     34 O2D        -6.6460   -7.4180   88.6040 O.3       1 NAD301      0.0000 
     35 C1D        -5.7700   -5.5190   89.4290 C.3       1 NAD301      0.0000 
     36 N1N        -5.8310   -5.7330   90.8550 N.pl3     1 NAD301      0.0000 
     37 C2N        -6.9010   -5.2790   91.6000 C.ar      1 NAD301      0.0000 
     38 C3N        -6.9590   -5.4980   92.9780 C.ar      1 NAD301      0.0000 
     39 C7N        -8.1660   -4.9710   93.8410 C.2       1 NAD301      0.0000 
     40 O7N        -8.2460   -5.2390   95.0350 O.2       1 NAD301      0.0000 
     41 N7N        -9.2070   -4.1470   93.2170 N.am      1 NAD301      0.0000 
     42 C4N        -5.9340   -6.1800   93.5860 C.ar      1 NAD301      0.0000 
     43 C5N        -4.8740   -6.6460   92.8470 C.ar      1 NAD301      0.0000 
     44 C6N        -4.8150   -6.4220   91.4760 C.ar      1 NAD301      0.0000 
@<TRIPOS>BOND
     1    1    2 ar   
     2    1    3 ar   
     3    1    4 1    
     4    1   23 1    
     5    4    5 1    
     6    5    6 1    
     7    6    7 1    
     8    6    8 1    
     9    7   12 1    
    10    8    9 1    
    11    8   10 1    
    12   10   11 1    
    13   10   12 1    
    14   12   13 1    
    15   13   14 1    
    16   13   22 1    
    17   14   15 2    
    18   15   16 1    
    19   16   17 ar   
    20   16   22 ar   
    21   17   18 1    
    22   17   19 ar   
    23   19   20 ar   
    24   20   21 ar   
    25   21   22 ar   
    26   23   24 1    
    27   24   25 ar   
    28   24   26 ar   
    29   24   27 1    
    30   27   28 1    
    31   28   29 1    
    32   29   30 1    
    33   29   31 1    
    34   30   35 1    
    35   31   32 1    
    36   31   33 1    
    37   33   34 1    
    38   33   35 1    
    39   35   36 1    
    40   36   37 ar   
    41   36   44 ar   
    42   37   38 ar   
    43   38   39 1    
    44   38   42 ar   
    45   39   40 2    
    46   39   41 am   
    47   42   43 ar   
    48   43   44 ar   
@<TRIPOS>SUBSTRUCTURE
     1 NAD301      1 GROUP   
@<TRIPOS>SET
ATOM$ORANGE STATIC     ATOMS   COLORGROUP SYSTEM 
42 5 5 6 6 8 8 10 10 12 12 14 14 16 16 17 17 20 \
20 22 22 28 28 29 29 31 31 33 33 35 35 37 37 38 38 39 \
39 42 42 43 43 44 44 

