#    Name: 5yss_1_NAD
#    Modification time : Fri May 22 19:23:40 2020

@<TRIPOS>MOLECULE
5yss_1_NAD
   44    48     1     0     1
SMALL
NO_CHARGES


@<TRIPOS>ATOM
      1 PA         11.0770  -34.8960  116.4220 P.3       1 NAD301      0.0000 
      2 O1A        11.1480  -34.1540  117.7270 O.co2     1 NAD301      0.0000 
      3 O2A         9.9460  -35.8850  116.4350 O.co2     1 NAD301      0.0000 
      4 O5B        12.4790  -35.7000  116.1900 O.3       1 NAD301      0.0000 
      5 C5B        13.4410  -35.1340  115.2650 C.3       1 NAD301      0.0000 
      6 C4B        14.9200  -35.4880  115.7130 C.3       1 NAD301      0.0000 
      7 O4B        15.5710  -34.3980  116.0420 O.3       1 NAD301      0.0000 
      8 C3B        14.9580  -36.3800  116.9360 C.3       1 NAD301      0.0000 
      9 O3B        15.5020  -37.6010  116.6360 O.3       1 NAD301      0.0000 
     10 C2B        15.8530  -35.5760  117.9500 C.3       1 NAD301      0.0000 
     11 O2B        16.6140  -36.5150  118.8670 O.3       1 NAD301      0.0000 
     12 C1B        16.6120  -34.9290  117.1600 C.3       1 NAD301      0.0000 
     13 N9A        17.3600  -33.8180  117.7510 N.pl3     1 NAD301      0.0000 
     14 C8A        16.9490  -32.6480  118.3010 C.2       1 NAD301      0.0000 
     15 N7A        18.0450  -31.9540  118.7030 N.2       1 NAD301      0.0000 
     16 C5A        19.1390  -32.6890  118.3920 C.ar      1 NAD301      0.0000 
     17 C6A        20.4900  -32.4600  118.5710 C.ar      1 NAD301      0.0000 
     18 N6A        21.1060  -31.3370  119.1600 N.pl3     1 NAD301      0.0000 
     19 N1A        21.3850  -33.3820  118.1650 N.ar      1 NAD301      0.0000 
     20 C2A        20.9660  -34.5380  117.5830 C.ar      1 NAD301      0.0000 
     21 N3A        19.6280  -34.7690  117.3980 N.ar      1 NAD301      0.0000 
     22 C4A        18.7220  -33.8360  117.8010 C.ar      1 NAD301      0.0000 
     23 O3         10.8590  -33.7970  115.2870 O.3       1 NAD301      0.0000 
     24 PN         10.2390  -33.9620  113.8150 P.3       1 NAD301      0.0000 
     25 O1N         8.7810  -33.4900  113.8790 O.co2     1 NAD301      0.0000 
     26 O2N        10.3170  -35.4090  113.3430 O.co2     1 NAD301      0.0000 
     27 O5D        11.0390  -32.9690  112.8100 O.3       1 NAD301      0.0000 
     28 C5D        12.2940  -33.3050  112.2930 C.3       1 NAD301      0.0000 
     29 C4D        12.6670  -32.3920  111.1000 C.3       1 NAD301      0.0000 
     30 O4D        11.6380  -32.2390  110.2780 O.3       1 NAD301      0.0000 
     31 C3D        13.0340  -31.0050  111.5640 C.3       1 NAD301      0.0000 
     32 O3D        14.0140  -30.4500  110.7860 O.3       1 NAD301      0.0000 
     33 C2D        11.6820  -30.2370  111.3990 C.3       1 NAD301      0.0000 
     34 O2D        11.9280  -28.7930  111.3710 O.3       1 NAD301      0.0000 
     35 C1D        11.2820  -30.6670  110.2660 C.3       1 NAD301      0.0000 
     36 N1N         9.8640  -30.4690  110.0430 N.pl3     1 NAD301      0.0000 
     37 C2N         8.9190  -30.9690  110.9120 C.ar      1 NAD301      0.0000 
     38 C3N         7.5610  -30.7700  110.6600 C.ar      1 NAD301      0.0000 
     39 C7N         6.4760  -31.3360  111.6370 C.2       1 NAD301      0.0000 
     40 O7N         5.2920  -31.0640  111.4790 O.2       1 NAD301      0.0000 
     41 N7N         6.9000  -32.2000  112.7400 N.am      1 NAD301      0.0000 
     42 C4N         7.1710  -30.0750  109.5410 C.ar      1 NAD301      0.0000 
     43 C5N         8.1090  -29.5650  108.6780 C.ar      1 NAD301      0.0000 
     44 C6N         9.4590  -29.7690  108.9250 C.ar      1 NAD301      0.0000 
@<TRIPOS>BOND
     1    1    2 ar   
     2    1    3 ar   
     3    1    4 1    
     4    1   23 1    
     5    4    5 1    
     6    5    6 1    
     7    6    7 1    
     8    6    8 1    
     9    7   12 1    
    10    8    9 1    
    11    8   10 1    
    12   10   11 1    
    13   10   12 1    
    14   12   13 1    
    15   13   14 1    
    16   13   22 1    
    17   14   15 2    
    18   15   16 1    
    19   16   17 ar   
    20   16   22 ar   
    21   17   18 1    
    22   17   19 ar   
    23   19   20 ar   
    24   20   21 ar   
    25   21   22 ar   
    26   23   24 1    
    27   24   25 ar   
    28   24   26 ar   
    29   24   27 1    
    30   27   28 1    
    31   28   29 1    
    32   29   30 1    
    33   29   31 1    
    34   30   35 1    
    35   31   32 1    
    36   31   33 1    
    37   33   34 1    
    38   33   35 1    
    39   35   36 1    
    40   36   37 ar   
    41   36   44 ar   
    42   37   38 ar   
    43   38   39 1    
    44   38   42 ar   
    45   39   40 2    
    46   39   41 am   
    47   42   43 ar   
    48   43   44 ar   
@<TRIPOS>SUBSTRUCTURE
     1 NAD301      1 GROUP   
@<TRIPOS>SET
ATOM$ORANGE STATIC     ATOMS   COLORGROUP SYSTEM 
42 5 5 6 6 8 8 10 10 12 12 14 14 16 16 17 17 20 \
20 22 22 28 28 29 29 31 31 33 33 35 35 37 37 38 38 39 \
39 42 42 43 43 44 44 

