#    Name: 6o7e_1_ANP_CAVITY_N1_8
#    Modification time : Fri May 22 19:38:30 2020

@<TRIPOS>MOLECULE
6o7e_1_ANP_CAVITY_N1_8
  131     0     7     0     0
SMALL
NO_CHARGES


@<TRIPOS>ATOM
      1 OG        128.8900  104.6900  147.5700 O.3       1 SER1        0.0000 
      2 OG        125.6700  111.6000  150.2400 O.3       1 SER1        0.0000 
      3 OG        129.6300  109.8000  147.0200 O.3       1 SER1        0.0000 
      4 OG        130.0400  110.4900  145.7500 O.3       1 SER1        0.0000 
      5 OG        127.7100  111.3600  150.7800 O.3       1 SER1        0.0000 
      6 OG        128.7500  110.3100  150.5500 O.3       1 SER1        0.0000 
      7 OG        127.0800  113.1000  149.7400 O.3       1 SER1        0.0000 
      8 OG        131.0400  111.3100  146.5200 O.3       1 SER1        0.0000 
      9 OG        130.7400  111.9500  152.0900 O.3       1 SER1        0.0000 
     10 OG        131.3200  112.0800  154.1300 O.3       1 SER1        0.0000 
     11 OG        131.7400  112.7600  152.8600 O.3       1 SER1        0.0000 
     12 N         126.3900  106.1100  149.2900 N.am      2 ALA2        0.0000 
     13 N         129.3100  105.3700  146.3000 N.am      2 ALA2        0.0000 
     14 N         128.8400  106.5600  148.5700 N.am      2 ALA2        0.0000 
     15 N         129.8900  105.5100  148.3400 N.am      2 ALA2        0.0000 
     16 N         129.2600  107.2500  147.3000 N.am      2 ALA2        0.0000 
     17 N         130.8800  106.3300  149.1100 N.am      2 ALA2        0.0000 
     18 O         132.6600  110.3900  148.3300 O.2       2 ALA2        0.0000 
     19 N         132.3200  112.9000  154.8900 N.am      2 ALA2        0.0000 
     20 N         132.7300  113.5800  153.6200 N.am      2 ALA2        0.0000 
     21 N         133.7700  112.5300  153.4000 N.am      2 ALA2        0.0000 
     22 N         132.1000  115.3200  152.5800 N.am      2 ALA2        0.0000 
     23 N         133.1500  114.2700  152.3600 N.am      2 ALA2        0.0000 
     24 O         134.1900  113.2100  152.1300 O.2       2 ALA2        0.0000 
     25 N         136.4400  110.5600  154.9800 N.am      2 ALA2        0.0000 
     26 N         135.8100  112.2900  153.9400 N.am      2 ALA2        0.0000 
     27 OD1       128.2600  106.4300  146.5300 O.co2     3 ASP3        0.0000 
     28 OD1       128.6800  107.1100  145.2600 O.co2     3 ASP3        0.0000 
     29 OD1       127.3900  106.9300  150.0600 O.co2     3 ASP3        0.0000 
     30 OD1       128.4300  105.8800  149.8300 O.co2     3 ASP3        0.0000 
     31 OD1       129.4700  104.8200  149.6100 O.co2     3 ASP3        0.0000 
     32 OD1       128.3800  107.7500  150.8300 O.co2     3 ASP3        0.0000 
     33 OD1       129.8400  107.3800  149.3300 O.co2     3 ASP3        0.0000 
     34 OD1       126.0800  112.2800  148.9700 O.co2     3 ASP3        0.0000 
     35 OD1       127.1300  111.2300  148.7500 O.co2     3 ASP3        0.0000 
     36 OD1       128.1700  110.1700  148.5200 O.co2     3 ASP3        0.0000 
     37 OD1       128.5900  110.8600  147.2500 O.co2     3 ASP3        0.0000 
     38 OD1       129.7900  109.2500  150.3300 O.co2     3 ASP3        0.0000 
     39 OD1       128.5400  112.7300  148.2400 O.co2     3 ASP3        0.0000 
     40 OD1       130.3700  109.3900  152.3600 O.co2     3 ASP3        0.0000 
     41 OD1       131.4100  108.3300  152.1400 O.co2     3 ASP3        0.0000 
     42 OD1       130.7900  110.0700  151.1000 O.co2     3 ASP3        0.0000 
     43 OD1       127.4500  115.6600  149.4700 O.co2     3 ASP3        0.0000 
     44 OD1       131.9900  108.4700  154.1700 O.co2     3 ASP3        0.0000 
     45 OD1       131.3700  110.2100  153.1300 O.co2     3 ASP3        0.0000 
     46 OD1       129.4900  115.4200  150.0100 O.co2     3 ASP3        0.0000 
     47 OD1       131.9900  114.0000  148.2800 O.co2     3 ASP3        0.0000 
     48 OD1       132.4000  114.6800  147.0200 O.co2     3 ASP3        0.0000 
     49 OD1       130.4800  116.2400  150.7700 O.co2     3 ASP3        0.0000 
     50 OD1       131.9400  115.8700  149.2800 O.co2     3 ASP3        0.0000 
     51 OD1       132.9800  114.8200  149.0500 O.co2     3 ASP3        0.0000 
     52 OD1       132.3500  116.5600  148.0100 O.co2     3 ASP3        0.0000 
     53 NZ        127.3400  108.8000  151.0600 N.4       4 LYS4        0.0000 
     54 NZ        126.0400  114.1500  149.9700 N.4       4 LYS4        0.0000 
     55 NZ        129.0700  114.7400  151.2800 N.4       4 LYS4        0.0000 
     56 NZ        133.0300  112.9400  148.0600 N.4       4 LYS4        0.0000 
     57 NZ        134.0700  111.8900  147.8300 N.4       4 LYS4        0.0000 
     58 NZ        130.0700  115.5600  152.0400 N.4       4 LYS4        0.0000 
     59 NZ        132.5700  114.1300  150.3200 N.4       4 LYS4        0.0000 
     60 NZ        133.6100  113.0800  150.0900 N.4       4 LYS4        0.0000 
     61 NZ        132.5200  116.0100  151.3100 N.4       4 LYS4        0.0000 
     62 NZ        133.5600  114.9500  151.0900 N.4       4 LYS4        0.0000 
     63 CZ        128.3300  109.6200  151.8200 C.ar      5 PHE5        0.0000 
     64 CZ        130.8300  108.2000  150.1000 C.ar      5 PHE5        0.0000 
     65 CZ        129.7400  111.1300  151.3200 C.ar      5 PHE5        0.0000 
     66 CZ        131.8300  109.0200  150.8700 C.ar      5 PHE5        0.0000 
     67 CZ        128.0700  113.9200  150.5100 C.ar      5 PHE5        0.0000 
     68 CZ        129.1200  112.8700  150.2800 C.ar      5 PHE5        0.0000 
     69 CZ        132.2500  109.7000  149.6000 C.ar      5 PHE5        0.0000 
     70 CZ        132.4100  109.1500  152.9000 C.ar      5 PHE5        0.0000 
     71 CZ        129.7000  113.0000  152.3200 C.ar      5 PHE5        0.0000 
     72 CZ        131.7800  110.8900  151.8600 C.ar      5 PHE5        0.0000 
     73 CZ        132.8300  109.8400  151.6400 C.ar      5 PHE5        0.0000 
     74 CZ        130.1100  113.6800  151.0500 C.ar      5 PHE5        0.0000 
     75 CZ        133.2400  110.5200  150.3700 C.ar      5 PHE5        0.0000 
     76 CZ        132.9900  109.2900  154.9400 C.ar      5 PHE5        0.0000 
     77 CZ        132.3600  111.0300  153.9000 C.ar      5 PHE5        0.0000 
     78 CZ        133.4100  109.9700  153.6700 C.ar      5 PHE5        0.0000 
     79 CZ        132.7800  111.7100  152.6300 C.ar      5 PHE5        0.0000 
     80 CZ        133.8200  110.6600  152.4000 C.ar      5 PHE5        0.0000 
     81 CZ        132.9400  111.1600  155.9300 C.ar      5 PHE5        0.0000 
     82 CZ        134.4000  110.7900  154.4400 C.ar      5 PHE5        0.0000 
     83 CZ        134.8200  111.4700  153.1700 C.ar      5 PHE5        0.0000 
     84 CZ        135.8600  110.4200  152.9400 C.ar      5 PHE5        0.0000 
     85 CA        127.4300  105.0600  149.0700 C.3       6 GLY6        0.0000 
     86 CA        126.8100  106.8000  148.0300 C.3       6 GLY6        0.0000 
     87 CA        127.8500  105.7400  147.8000 C.3       6 GLY6        0.0000 
     88 CA        127.2200  107.4800  146.7600 C.3       6 GLY6        0.0000 
     89 CA        126.3400  107.9900  150.2900 C.3       6 GLY6        0.0000 
     90 CA        127.8000  107.6200  148.7900 C.3       6 GLY6        0.0000 
     91 CA        128.2200  108.3000  147.5200 C.3       6 GLY6        0.0000 
     92 CA        128.6300  108.9800  146.2600 C.3       6 GLY6        0.0000 
     93 CA        129.6800  107.9300  146.0300 C.3       6 GLY6        0.0000 
     94 CA        126.7100  110.5400  150.0100 C.3       6 GLY6        0.0000 
     95 CA        127.7500  109.4900  149.7900 C.3       6 GLY6        0.0000 
     96 CA        130.2600  108.0600  148.0600 C.3       6 GLY6        0.0000 
     97 CA        130.6700  108.7500  146.8000 C.3       6 GLY6        0.0000 
     98 CA        131.2500  108.8800  148.8300 C.3       6 GLY6        0.0000 
     99 CA        130.6200  110.6200  147.7900 C.3       6 GLY6        0.0000 
    100 CA        133.6600  111.2100  149.1000 C.3       6 GLY6        0.0000 
    101 CA        130.6900  113.8200  153.0800 C.3       6 GLY6        0.0000 
    102 CA        131.1100  114.5000  151.8200 C.3       6 GLY6        0.0000 
    103 CA        134.2400  111.3400  151.1300 C.3       6 GLY6        0.0000 
    104 CA        134.6500  112.0200  149.8700 C.3       6 GLY6        0.0000 
    105 CA        133.3600  111.8400  154.6700 C.3       6 GLY6        0.0000 
    106 CA        135.2300  112.1600  151.9000 C.3       6 GLY6        0.0000 
    107 CA        135.6500  112.8400  150.6300 C.3       6 GLY6        0.0000 
    108 CA        135.4000  111.6100  155.2100 C.3       6 GLY6        0.0000 
    109 CA        134.7700  113.3500  154.1600 C.3       6 GLY6        0.0000 
    110 CA        136.8500  111.2400  153.7100 C.3       6 GLY6        0.0000 
    111 CA        134.1400  115.0900  153.1200 C.3       6 GLY6        0.0000 
    112 CA        135.1800  114.0300  152.9000 C.3       6 GLY6        0.0000 
    113 CA        136.2300  112.9800  152.6700 C.3       6 GLY6        0.0000 
    114 DU        128.8000  108.4300  149.5600 H         7 CUB7        0.0000 
    115 DU        129.2100  109.1200  148.2900 H         7 CUB7        0.0000 
    116 DU        128.1200  112.0500  149.5100 H         7 CUB7        0.0000 
    117 DU        129.1600  110.9900  149.2900 H         7 CUB7        0.0000 
    118 DU        130.2100  109.9400  149.0600 H         7 CUB7        0.0000 
    119 DU        129.5800  111.6800  148.0200 H         7 CUB7        0.0000 
    120 DU        130.1600  111.8100  150.0500 H         7 CUB7        0.0000 
    121 DU        131.2000  110.7600  149.8300 H         7 CUB7        0.0000 
    122 DU        131.6200  111.4400  148.5600 H         7 CUB7        0.0000 
    123 DU        132.0300  112.1300  147.2900 H         7 CUB7        0.0000 
    124 DU        131.1600  112.6300  150.8200 H         7 CUB7        0.0000 
    125 DU        132.2000  111.5800  150.5900 H         7 CUB7        0.0000 
    126 DU        130.5300  114.3700  149.7800 H         7 CUB7        0.0000 
    127 DU        131.5700  113.3100  149.5500 H         7 CUB7        0.0000 
    128 DU        132.6100  112.2600  149.3300 H         7 CUB7        0.0000 
    129 DU        132.1500  113.4500  151.5900 H         7 CUB7        0.0000 
    130 DU        133.1900  112.3900  151.3600 H         7 CUB7        0.0000 
    131 DU        131.5200  115.1900  150.5500 H         7 CUB7        0.0000 
@<TRIPOS>BOND
@<TRIPOS>SUBSTRUCTURE
     1 SER1        1 GROUP   
     2 ALA2       12 GROUP   
     3 ASP3       27 GROUP   
     4 LYS4       53 GROUP   
     5 PHE5       63 GROUP   
     6 GLY6       85 GROUP   
     7 CUB7      114 GROUP   
@<TRIPOS>SET

