#    Name: 6o7e_2_ANP_CAVITY_N1_6
#    Modification time : Fri May 22 19:38:42 2020

@<TRIPOS>MOLECULE
6o7e_2_ANP_CAVITY_N1_6
   74     0     7     0     0
SMALL
NO_CHARGES


@<TRIPOS>ATOM
      1 OG        133.4200  120.5700  154.0700 O.3       1 SER1        0.0000 
      2 OG        132.5400  121.0800  157.6000 O.3       1 SER1        0.0000 
      3 OG        132.9600  121.7600  156.3400 O.3       1 SER1        0.0000 
      4 OG        134.1600  120.1600  159.4100 O.3       1 SER1        0.0000 
      5 OG        136.6600  124.2600  151.8000 O.3       1 SER1        0.0000 
      6 N         131.4800  117.0600  151.5400 N.am      2 ALA2        0.0000 
      7 N         132.4700  117.8800  152.3100 N.am      2 ALA2        0.0000 
      8 N         131.8400  119.6200  151.2700 N.am      2 ALA2        0.0000 
      9 O         131.2200  121.3600  150.2300 O.2       2 ALA2        0.0000 
     10 O         131.6300  122.0400  148.9600 O.2       2 ALA2        0.0000 
     11 N         132.4200  119.7500  153.3000 N.am      2 ALA2        0.0000 
     12 N         133.4700  118.7000  153.0800 N.am      2 ALA2        0.0000 
     13 O         132.2100  122.1700  150.9900 O.2       2 ALA2        0.0000 
     14 O         130.5000  121.3100  157.0600 O.2       2 ALA2        0.0000 
     15 O         133.2100  122.9900  151.7600 O.2       2 ALA2        0.0000 
     16 O         131.7100  119.7100  160.1400 O.2       2 ALA2        0.0000 
     17 O         132.7500  118.6500  159.9100 O.2       2 ALA2        0.0000 
     18 O         133.8000  117.6000  159.6900 O.2       2 ALA2        0.0000 
     19 O         132.1300  120.3900  158.8700 O.2       2 ALA2        0.0000 
     20 O         133.1700  119.3400  158.6500 O.2       2 ALA2        0.0000 
     21 O         134.2000  123.8100  152.5300 O.2       2 ALA2        0.0000 
     22 O         134.6200  124.5000  151.2600 O.2       2 ALA2        0.0000 
     23 O         132.4900  122.9500  158.6000 O.2       2 ALA2        0.0000 
     24 N         133.9000  124.4500  158.1000 N.am      2 ALA2        0.0000 
     25 OD1       129.8100  119.8500  150.7300 O.co2     3 ASP3        0.0000 
     26 OD1       130.8500  118.8000  150.5000 O.co2     3 ASP3        0.0000 
     27 OD1       131.8900  117.7400  150.2700 O.co2     3 ASP3        0.0000 
     28 OD1       132.9300  116.6900  150.0500 O.co2     3 ASP3        0.0000 
     29 NZ        133.5100  116.8200  152.0800 N.4       4 LYS4        0.0000 
     30 NZ        132.8900  118.5600  151.0400 N.4       4 LYS4        0.0000 
     31 NZ        132.2600  120.3000  150.0000 N.4       4 LYS4        0.0000 
     32 NZ        133.3000  119.2500  149.7700 N.4       4 LYS4        0.0000 
     33 NZ        132.6700  120.9900  148.7300 N.4       4 LYS4        0.0000 
     34 NZ        132.8400  120.4400  152.0400 N.4       4 LYS4        0.0000 
     35 NZ        133.8800  119.3800  151.8100 N.4       4 LYS4        0.0000 
     36 NZ        133.8300  121.2600  152.8000 N.4       4 LYS4        0.0000 
     37 NZ        135.2400  122.7600  152.3000 N.4       4 LYS4        0.0000 
     38 NZ        135.6600  123.4400  151.0300 N.4       4 LYS4        0.0000 
     39 NZ        133.7500  119.4700  160.6800 N.4       4 LYS4        0.0000 
     40 NZ        135.1600  120.9700  160.1800 N.4       4 LYS4        0.0000 
     41 CZ        133.3700  122.4400  155.0700 C.ar      5 PHE5        0.0000 
     42 CZ        133.7900  123.1300  153.8000 C.ar      5 PHE5        0.0000 
     43 CZ        133.5400  121.8900  158.3700 C.ar      5 PHE5        0.0000 
     44 CZ        132.9100  123.6300  157.3300 C.ar      5 PHE5        0.0000 
     45 CZ        133.3200  124.3200  156.0600 C.ar      5 PHE5        0.0000 
     46 CZ        134.7800  123.9500  154.5700 C.ar      5 PHE5        0.0000 
     47 CZ        135.2000  124.6300  153.3000 C.ar      5 PHE5        0.0000 
     48 CZ        134.5300  122.7100  159.1400 C.ar      5 PHE5        0.0000 
     49 CA        128.7600  120.9100  150.9600 C.3       6 GLY6        0.0000 
     50 CA        129.1800  121.5900  149.6900 C.3       6 GLY6        0.0000 
     51 CA        129.5900  122.2800  148.4200 C.3       6 GLY6        0.0000 
     52 CA        130.6400  121.2200  148.1900 C.3       6 GLY6        0.0000 
     53 CA        130.8000  120.6700  151.5000 C.3       6 GLY6        0.0000 
     54 CA        130.1700  122.4100  150.4500 C.3       6 GLY6        0.0000 
     55 CA        131.3800  120.8100  153.5300 C.3       6 GLY6        0.0000 
     56 CA        131.8000  121.4900  152.2600 C.3       6 GLY6        0.0000 
     57 CA        129.6700  119.9400  159.6000 C.3       6 GLY6        0.0000 
     58 CA        130.0900  120.6300  158.3300 C.3       6 GLY6        0.0000 
     59 CA        130.9200  121.9900  155.8000 C.3       6 GLY6        0.0000 
     60 CA        131.9600  120.9400  155.5700 C.3       6 GLY6        0.0000 
     61 CA        132.3800  121.6200  154.3000 C.3       6 GLY6        0.0000 
     62 CA        132.7900  122.3100  153.0300 C.3       6 GLY6        0.0000 
     63 CA        131.0800  121.4500  159.1000 C.3       6 GLY6        0.0000 
     64 CA        131.5000  122.1300  157.8300 C.3       6 GLY6        0.0000 
     65 CA        131.9100  122.8100  156.5600 C.3       6 GLY6        0.0000 
     66 CA        132.3300  123.5000  155.2900 C.3       6 GLY6        0.0000 
     67 CA        133.1600  124.8700  152.7600 C.3       6 GLY6        0.0000 
     68 CA        132.0800  122.2600  159.8700 C.3       6 GLY6        0.0000 
     69 CA        133.1200  121.2100  159.6400 C.3       6 GLY6        0.0000 
     70 CA        132.2800  125.3700  156.2900 C.3       6 GLY6        0.0000 
     71 CA        133.7400  125.0000  154.7900 C.3       6 GLY6        0.0000 
     72 CA        134.1500  125.6900  153.5200 C.3       6 GLY6        0.0000 
     73 DU        130.2200  120.5400  149.4600 H         7 CUB7        0.0000 
     74 DU        131.2600  119.4800  149.2300 H         7 CUB7        0.0000 
@<TRIPOS>BOND
@<TRIPOS>SUBSTRUCTURE
     1 SER1        1 GROUP   
     2 ALA2        6 GROUP   
     3 ASP3       25 GROUP   
     4 LYS4       29 GROUP   
     5 PHE5       41 GROUP   
     6 GLY6       49 GROUP   
     7 CUB7       73 GROUP   
@<TRIPOS>SET

