#    Name: 6o7e_1_ANP
#    Modification time : Fri May 22 19:38:29 2020

@<TRIPOS>MOLECULE
6o7e_1_ANP
   31    33     1     0     1
SMALL
NO_CHARGES


@<TRIPOS>ATOM
      1 PG        135.4480  113.5400  143.1530 P.3       1 ANP802      0.0000 
      2 O1G       135.0740  114.9510  142.8420 O.co2     1 ANP802      0.0000 
      3 O2G       136.2060  113.4860  144.5330 O.co2     1 ANP802      0.0000 
      4 O3G       136.3770  112.9970  141.9990 O.co2     1 ANP802      0.0000 
      5 PB        133.8720  112.0710  144.8410 P.3       1 ANP802      0.0000 
      6 O1B       132.4670  111.6160  145.0440 O.co2     1 ANP802      0.0000 
      7 O2B       134.8360  110.8820  145.0980 O.co2     1 ANP802      0.0000 
      8 N3B       134.0610  112.5850  143.2590 N.3       1 ANP802      0.0000 
      9 PA        133.0710  114.1970  146.3710 P.3       1 ANP802      0.0000 
     10 O1A       132.2120  114.6930  145.2740 O.co2     1 ANP802      0.0000 
     11 O2A       133.7830  115.3150  147.1380 O.co2     1 ANP802      0.0000 
     12 O3A       134.2090  113.2280  145.8290 O.3       1 ANP802      0.0000 
     13 O5'       132.1650  113.3300  147.3320 O.3       1 ANP802      0.0000 
     14 C5'       132.7150  112.4390  148.3210 C.3       1 ANP802      0.0000 
     15 C4'       131.6010  112.0250  149.2490 C.3       1 ANP802      0.0000 
     16 O4'       132.1630  111.4220  150.4340 O.3       1 ANP802      0.0000 
     17 C3'       130.7160  113.1640  149.7470 C.3       1 ANP802      0.0000 
     18 O3'       129.3900  112.7060  149.9880 O.3       1 ANP802      0.0000 
     19 C2'       131.4100  113.5730  151.0440 C.3       1 ANP802      0.0000 
     20 O2'       130.5080  114.1850  151.9580 O.3       1 ANP802      0.0000 
     21 C1'       131.8790  112.2170  151.5690 C.3       1 ANP802      0.0000 
     22 N9        133.0830  112.2900  152.3890 N.pl3     1 ANP802      0.0000 
     23 C8        134.0960  113.2020  152.2840 C.2       1 ANP802      0.0000 
     24 N7        135.0630  113.0240  153.1530 N.2       1 ANP802      0.0000 
     25 C5        134.6560  111.9180  153.8750 C.ar      1 ANP802      0.0000 
     26 C6        135.2410  111.2150  154.9470 C.ar      1 ANP802      0.0000 
     27 N6        136.4110  111.5440  155.4990 N.pl3     1 ANP802      0.0000 
     28 N1        134.5710  110.1500  155.4420 N.ar      1 ANP802      0.0000 
     29 C2        133.3990  109.8160  154.8940 C.ar      1 ANP802      0.0000 
     30 N3        132.7520  110.4000  153.8820 N.ar      1 ANP802      0.0000 
     31 C4        133.4350  111.4480  153.4170 C.ar      1 ANP802      0.0000 
@<TRIPOS>BOND
     1    1    2 ar   
     2    1    3 ar   
     3    1    4 ar   
     4    1    8 1    
     5    5    6 ar   
     6    5    7 ar   
     7    5    8 1    
     8    5   12 1    
     9    9   10 ar   
    10    9   11 ar   
    11    9   12 1    
    12    9   13 1    
    13   13   14 1    
    14   14   15 1    
    15   15   16 1    
    16   15   17 1    
    17   16   21 1    
    18   17   18 1    
    19   17   19 1    
    20   19   20 1    
    21   19   21 1    
    22   21   22 1    
    23   22   23 1    
    24   22   31 1    
    25   23   24 2    
    26   24   25 1    
    27   25   26 ar   
    28   25   31 ar   
    29   26   27 1    
    30   26   28 ar   
    31   28   29 ar   
    32   29   30 ar   
    33   30   31 ar   
@<TRIPOS>SUBSTRUCTURE
     1 ANP802      1 GROUP   
@<TRIPOS>SET
ATOM$ORANGE STATIC     ATOMS   COLORGROUP SYSTEM 
20 14 14 15 15 17 17 19 19 21 21 23 23 25 25 26 26 29 \
29 31 31 

