#    Name: 6o7e_2_ANP
#    Modification time : Fri May 22 19:38:41 2020

@<TRIPOS>MOLECULE
6o7e_2_ANP
   31    33     1     0     1
SMALL
NO_CHARGES


@<TRIPOS>ATOM
      1 PG        125.2250  118.9510  147.1270 P.3       1 ANP803      0.0000 
      2 O1G       123.9350  119.6810  146.9300 O.co2     1 ANP803      0.0000 
      3 O2G       125.3840  118.5980  148.6550 O.co2     1 ANP803      0.0000 
      4 O3G       125.2170  117.6210  146.2730 O.co2     1 ANP803      0.0000 
      5 PB        127.9540  119.4540  147.3020 P.3       1 ANP803      0.0000 
      6 O1B       128.8020  118.7730  146.2790 O.co2     1 ANP803      0.0000 
      7 O2B       127.6840  118.4710  148.4770 O.co2     1 ANP803      0.0000 
      8 N3B       126.5020  119.9410  146.6210 N.3       1 ANP803      0.0000 
      9 PA        128.3850  121.1840  149.3220 P.3       1 ANP803      0.0000 
     10 O1A       127.3430  120.3340  149.9380 O.co2     1 ANP803      0.0000 
     11 O2A       128.0240  122.6690  149.2370 O.co2     1 ANP803      0.0000 
     12 O3A       128.6890  120.7140  147.8420 O.3       1 ANP803      0.0000 
     13 O5'       129.7340  120.9570  150.1080 O.3       1 ANP803      0.0000 
     14 C5'       130.9740  121.4770  149.5980 C.3       1 ANP803      0.0000 
     15 C4'       132.1030  120.9170  150.4210 C.3       1 ANP803      0.0000 
     16 O4'       132.4230  121.8250  151.4850 O.3       1 ANP803      0.0000 
     17 C3'       131.8030  119.6070  151.1390 C.3       1 ANP803      0.0000 
     18 O3'       132.0110  118.4850  150.2870 O.3       1 ANP803      0.0000 
     19 C2'       132.7790  119.6320  152.3280 C.3       1 ANP803      0.0000 
     20 O2'       133.9210  118.8120  152.1110 O.3       1 ANP803      0.0000 
     21 C1'       133.1890  121.1100  152.4300 C.3       1 ANP803      0.0000 
     22 N9        132.9840  121.6860  153.7520 N.pl3     1 ANP803      0.0000 
     23 C8        132.3250  121.1080  154.8040 C.2       1 ANP803      0.0000 
     24 N7        132.3070  121.8340  155.8930 N.2       1 ANP803      0.0000 
     25 C5        133.0080  122.9760  155.5350 C.ar      1 ANP803      0.0000 
     26 C6        133.3410  124.1420  156.2460 C.ar      1 ANP803      0.0000 
     27 N6        133.0010  124.3620  157.5180 N.pl3     1 ANP803      0.0000 
     28 N1        134.0640  125.0840  155.5980 N.ar      1 ANP803      0.0000 
     29 C2        134.3860  124.8830  154.3160 C.ar      1 ANP803      0.0000 
     30 N3        134.1380  123.8180  153.5490 N.ar      1 ANP803      0.0000 
     31 C4        133.4340  122.8940  154.2220 C.ar      1 ANP803      0.0000 
@<TRIPOS>BOND
     1    1    2 ar   
     2    1    3 ar   
     3    1    4 ar   
     4    1    8 1    
     5    5    6 ar   
     6    5    7 ar   
     7    5    8 1    
     8    5   12 1    
     9    9   10 ar   
    10    9   11 ar   
    11    9   12 1    
    12    9   13 1    
    13   13   14 1    
    14   14   15 1    
    15   15   16 1    
    16   15   17 1    
    17   16   21 1    
    18   17   18 1    
    19   17   19 1    
    20   19   20 1    
    21   19   21 1    
    22   21   22 1    
    23   22   23 1    
    24   22   31 1    
    25   23   24 2    
    26   24   25 1    
    27   25   26 ar   
    28   25   31 ar   
    29   26   27 1    
    30   26   28 ar   
    31   28   29 ar   
    32   29   30 ar   
    33   30   31 ar   
@<TRIPOS>SUBSTRUCTURE
     1 ANP803      1 GROUP   
@<TRIPOS>SET
ATOM$ORANGE STATIC     ATOMS   COLORGROUP SYSTEM 
20 14 14 15 15 17 17 19 19 21 21 23 23 25 25 26 26 29 \
29 31 31 

