#    Name: 6a15_1_CLR
#    Modification time : Fri May 22 19:25:33 2020

@<TRIPOS>MOLECULE
6a15_1_CLR
   28    31     1     0     0
SMALL
NO_CHARGES


@<TRIPOS>ATOM
      1 C1         90.1120  174.0500   75.4490 C.3       1 CLR602      0.0000 
      2 C2         90.7020  175.1360   74.5150 C.3       1 CLR602      0.0000 
      3 C3         89.5720  175.6640   73.6040 C.3       1 CLR602      0.0000 
      4 C4         88.5350  176.3700   74.5580 C.3       1 CLR602      0.0000 
      5 C5         87.9290  175.3400   75.4850 C.2       1 CLR602      0.0000 
      6 C6         86.6180  175.3080   75.6290 C.2       1 CLR602      0.0000 
      7 C7         85.8720  174.4150   76.5810 C.3       1 CLR602      0.0000 
      8 C8         86.8510  173.7780   77.6330 C.3       1 CLR602      0.0000 
      9 C9         88.1720  173.3420   76.9650 C.3       1 CLR602      0.0000 
     10 C10        88.9360  174.5440   76.3460 C.3       1 CLR602      0.0000 
     11 C11        89.0270  172.6890   78.1010 C.3       1 CLR602      0.0000 
     12 C12        88.3790  171.4090   78.7080 C.3       1 CLR602      0.0000 
     13 C13        86.9670  171.7550   79.2960 C.3       1 CLR602      0.0000 
     14 C14        86.1990  172.5060   78.1490 C.3       1 CLR602      0.0000 
     15 C15        84.7910  172.6370   78.7820 C.3       1 CLR602      0.0000 
     16 C16        84.5760  171.2010   79.4300 C.3       1 CLR602      0.0000 
     17 C17        86.0040  170.5670   79.5500 C.3       1 CLR602      0.0000 
     18 C18        87.0880  172.6710   80.6170 C.3       1 CLR602      0.0000 
     19 C19        89.4810  175.5280   77.4510 C.3       1 CLR602      0.0000 
     20 C20        86.1590  169.8240   80.9110 C.3       1 CLR602      0.0000 
     21 C21        87.6270  169.2680   81.0320 C.3       1 CLR602      0.0000 
     22 C22        85.1590  168.6450   80.9680 C.3       1 CLR602      0.0000 
     23 C23        85.6220  167.4450   80.0360 C.3       1 CLR602      0.0000 
     24 C24        84.5470  166.4260   80.1260 C.3       1 CLR602      0.0000 
     25 C25        84.6800  165.0690   79.3190 C.3       1 CLR602      0.0000 
     26 C26        85.4980  165.1630   78.0480 C.3       1 CLR602      0.0000 
     27 C27        85.1880  163.9730   80.2040 C.3       1 CLR602      0.0000 
     28 O1         90.2230  176.5600   72.6980 O.3       1 CLR602      0.0000 
@<TRIPOS>BOND
     1    1    2 1    
     2    1   10 1    
     3    2    3 1    
     4    3    4 1    
     5    3   28 1    
     6    4    5 1    
     7    5    6 2    
     8    5   10 1    
     9    6    7 1    
    10    7    8 1    
    11    8    9 1    
    12    8   14 1    
    13    9   10 1    
    14    9   11 1    
    15   10   19 1    
    16   11   12 1    
    17   12   13 1    
    18   13   14 1    
    19   13   17 1    
    20   13   18 1    
    21   14   15 1    
    22   15   16 1    
    23   16   17 1    
    24   17   20 1    
    25   20   21 1    
    26   20   22 1    
    27   22   23 1    
    28   23   24 1    
    29   24   25 1    
    30   25   26 1    
    31   25   27 1    
@<TRIPOS>SUBSTRUCTURE
     1 CLR602      1 GROUP   
@<TRIPOS>SET

