#    Name: 6nqa_1_SAM
#    Modification time : Fri May 22 19:25:15 2020

@<TRIPOS>MOLECULE
6nqa_1_SAM
   27    29     1     0     0
SMALL
NO_CHARGES


@<TRIPOS>ATOM
      1 N         151.1410  170.8740  154.8350 N.4       1 SAM500      0.0000 
      2 CA        152.1880  169.9260  154.4870 C.3       1 SAM500      0.0000 
      3 C         152.2500  169.7100  152.9840 C.2       1 SAM500      0.0000 
      4 O         151.2900  169.9920  152.2730 O.co2     1 SAM500      0.0000 
      5 OXT       153.2570  169.2510  152.4470 O.co2     1 SAM500      0.0000 
      6 CB        151.9650  168.6010  155.2020 C.3       1 SAM500      0.0000 
      7 CG        150.6660  167.8880  154.8540 C.3       1 SAM500      0.0000 
      8 SD        150.6760  166.1760  155.4370 S.3       1 SAM500      0.0000 
      9 CE        149.9900  165.3310  153.9950 C.3       1 SAM500      0.0000 
     10 C5'       149.2430  166.1650  156.5320 C.3       1 SAM500      0.0000 
     11 C4'       149.5980  166.7320  157.8920 C.3       1 SAM500      0.0000 
     12 O4'       148.4340  166.8420  158.6720 O.3       1 SAM500      0.0000 
     13 C3'       150.5330  165.8160  158.6430 C.3       1 SAM500      0.0000 
     14 O3'       151.7260  166.5100  158.8840 O.3       1 SAM500      0.0000 
     15 C2'       149.8720  165.5530  159.9690 C.3       1 SAM500      0.0000 
     16 O2'       150.7820  165.8530  160.9920 O.3       1 SAM500      0.0000 
     17 C1'       148.7240  166.5340  160.0120 C.3       1 SAM500      0.0000 
     18 N9        147.5440  165.9260  160.6330 N.pl3     1 SAM500      0.0000 
     19 C8        147.0170  164.7180  160.3080 C.2       1 SAM500      0.0000 
     20 N7        145.9380  164.4890  161.0820 N.2       1 SAM500      0.0000 
     21 C5        145.7720  165.5440  161.8930 C.ar      1 SAM500      0.0000 
     22 C6        144.8370  165.8140  162.8630 C.ar      1 SAM500      0.0000 
     23 N6        143.8820  164.9330  163.1200 N.pl3     1 SAM500      0.0000 
     24 N1        144.9100  166.9930  163.5540 N.ar      1 SAM500      0.0000 
     25 C2        145.9140  167.8920  163.2720 C.ar      1 SAM500      0.0000 
     26 N3        146.8430  167.6140  162.3010 N.ar      1 SAM500      0.0000 
     27 C4        146.7710  166.4560  161.6230 C.ar      1 SAM500      0.0000 
@<TRIPOS>BOND
     1    1    2 1    
     2    2    3 1    
     3    2    6 1    
     4    3    4 ar   
     5    3    5 ar   
     6    6    7 1    
     7    7    8 1    
     8    8    9 1    
     9    8   10 1    
    10   10   11 1    
    11   11   12 1    
    12   11   13 1    
    13   12   17 1    
    14   13   14 1    
    15   13   15 1    
    16   15   16 1    
    17   15   17 1    
    18   17   18 1    
    19   18   19 1    
    20   18   27 1    
    21   19   20 2    
    22   20   21 1    
    23   21   22 ar   
    24   21   27 ar   
    25   22   23 1    
    26   22   24 ar   
    27   24   25 ar   
    28   25   26 ar   
    29   26   27 ar   
@<TRIPOS>SUBSTRUCTURE
     1 SAM500      1 GROUP   
@<TRIPOS>SET

