#    Name: 6gbn_7_NAD
#    Modification time : Fri May 22 19:29:26 2020

@<TRIPOS>MOLECULE
6gbn_7_NAD
   44    48     1     0     1
SMALL
NO_CHARGES


@<TRIPOS>ATOM
      1 PA         22.2430   47.1790   78.6140 P.3       1 NAD502      0.0000 
      2 O1A        23.7030   46.7680   78.6780 O.co2     1 NAD502      0.0000 
      3 O2A        21.7510   48.4070   79.3800 O.co2     1 NAD502      0.0000 
      4 O5B        21.3400   45.9010   79.0210 O.3       1 NAD502      0.0000 
      5 C5B        21.4200   44.6200   78.3920 C.3       1 NAD502      0.0000 
      6 C4B        20.9400   43.6160   79.4440 C.3       1 NAD502      0.0000 
      7 O4B        20.7690   42.3070   78.9030 O.3       1 NAD502      0.0000 
      8 C3B        21.9070   43.5020   80.6340 C.3       1 NAD502      0.0000 
      9 O3B        21.2870   43.9060   81.8650 O.3       1 NAD502      0.0000 
     10 C2B        22.3190   42.0400   80.6740 C.3       1 NAD502      0.0000 
     11 O2B        22.5040   41.5250   82.0090 O.3       1 NAD502      0.0000 
     12 C1B        21.1850   41.3720   79.9030 C.3       1 NAD502      0.0000 
     13 N9A        21.5570   40.0820   79.2740 N.pl3     1 NAD502      0.0000 
     14 C8A        22.6880   39.7550   78.6020 C.2       1 NAD502      0.0000 
     15 N7A        22.6270   38.4670   78.1590 N.2       1 NAD502      0.0000 
     16 C5A        21.4510   37.9680   78.5460 C.ar      1 NAD502      0.0000 
     17 C6A        20.7440   36.6880   78.4190 C.ar      1 NAD502      0.0000 
     18 N6A        21.3220   35.6570   77.7810 N.pl3     1 NAD502      0.0000 
     19 N1A        19.5160   36.5740   78.9600 N.ar      1 NAD502      0.0000 
     20 C2A        18.9310   37.5920   79.6200 C.ar      1 NAD502      0.0000 
     21 N3A        19.5280   38.7920   79.7690 N.ar      1 NAD502      0.0000 
     22 C4A        20.7530   39.0330   79.2710 C.ar      1 NAD502      0.0000 
     23 O3         21.8170   47.2890   77.0500 O.3       1 NAD502      0.0000 
     24 PN         20.4720   48.0700   76.6060 P.3       1 NAD502      0.0000 
     25 O1N        20.7890   49.5410   76.6720 O.co2     1 NAD502      0.0000 
     26 O2N        19.2920   47.5160   77.3780 O.co2     1 NAD502      0.0000 
     27 O5D        20.3590   47.7190   75.0380 O.3       1 NAD502      0.0000 
     28 C5D        20.1900   46.4110   74.4890 C.3       1 NAD502      0.0000 
     29 C4D        20.2290   46.4430   72.9460 C.3       1 NAD502      0.0000 
     30 O4D        19.2290   47.2950   72.3690 O.3       1 NAD502      0.0000 
     31 C3D        21.5240   46.9700   72.3600 C.3       1 NAD502      0.0000 
     32 O3D        21.7660   46.2200   71.1760 O.3       1 NAD502      0.0000 
     33 C2D        21.2440   48.4160   72.0050 C.3       1 NAD502      0.0000 
     34 O2D        22.1310   48.9310   71.0070 O.3       1 NAD502      0.0000 
     35 C1D        19.8060   48.2990   71.5220 C.3       1 NAD502      0.0000 
     36 N1N        18.8900   49.4500   71.6020 N.pl3     1 NAD502      0.0000 
     37 C2N        17.8270   49.3800   70.7670 C.ar      1 NAD502      0.0000 
     38 C3N        16.8410   50.3730   70.7470 C.ar      1 NAD502      0.0000 
     39 C7N        15.6780   50.3060   69.7860 C.2       1 NAD502      0.0000 
     40 O7N        15.1600   51.3540   69.3990 O.2       1 NAD502      0.0000 
     41 N7N        15.2430   49.1210   69.3400 N.am      1 NAD502      0.0000 
     42 C4N        16.9730   51.4520   71.6200 C.ar      1 NAD502      0.0000 
     43 C5N        18.0720   51.5160   72.4770 C.ar      1 NAD502      0.0000 
     44 C6N        19.0320   50.4960   72.4650 C.ar      1 NAD502      0.0000 
@<TRIPOS>BOND
     1    1    2 ar   
     2    1    3 ar   
     3    1    4 1    
     4    1   23 1    
     5    4    5 1    
     6    5    6 1    
     7    6    7 1    
     8    6    8 1    
     9    7   12 1    
    10    8    9 1    
    11    8   10 1    
    12   10   11 1    
    13   10   12 1    
    14   12   13 1    
    15   13   14 1    
    16   13   22 1    
    17   14   15 2    
    18   15   16 1    
    19   16   17 ar   
    20   16   22 ar   
    21   17   18 1    
    22   17   19 ar   
    23   19   20 ar   
    24   20   21 ar   
    25   21   22 ar   
    26   23   24 1    
    27   24   25 ar   
    28   24   26 ar   
    29   24   27 1    
    30   27   28 1    
    31   28   29 1    
    32   29   30 1    
    33   29   31 1    
    34   30   35 1    
    35   31   32 1    
    36   31   33 1    
    37   33   34 1    
    38   33   35 1    
    39   35   36 1    
    40   36   37 ar   
    41   36   44 ar   
    42   37   38 ar   
    43   38   39 1    
    44   38   42 ar   
    45   39   40 2    
    46   39   41 am   
    47   42   43 ar   
    48   43   44 ar   
@<TRIPOS>SUBSTRUCTURE
     1 NAD502      1 GROUP   
@<TRIPOS>SET
ATOM$ORANGE STATIC     ATOMS   COLORGROUP SYSTEM 
42 5 5 6 6 8 8 10 10 12 12 14 14 16 16 17 17 20 \
20 22 22 28 28 29 29 31 31 33 33 35 35 37 37 38 38 39 \
39 42 42 43 43 44 44 

