#    Name: 5zq7_2_AMP_CAVITY_N1_4
#    Modification time : Fri May 22 19:26:31 2020

@<TRIPOS>MOLECULE
5zq7_2_AMP_CAVITY_N1_4
  132     0     6     0     0
SMALL
NO_CHARGES


@<TRIPOS>ATOM
      1 OG         71.9200   93.1400  141.1400 O.3       1 SER1        0.0000 
      2 OG         73.2200   92.4100  140.9300 O.3       1 SER1        0.0000 
      3 OG         71.3100   94.8100  142.3000 O.3       1 SER1        0.0000 
      4 OG         72.6100   94.0800  142.0900 O.3       1 SER1        0.0000 
      5 OG         73.9000   93.3500  141.8800 O.3       1 SER1        0.0000 
      6 OG         77.4600   90.2600  142.3900 O.3       1 SER1        0.0000 
      7 OG         74.2600   93.3800  143.9700 O.3       1 SER1        0.0000 
      8 OG         79.4500   94.8600  138.7600 O.3       1 SER1        0.0000 
      9 OG         80.7400   94.1300  138.5500 O.3       1 SER1        0.0000 
     10 OG         78.1900   99.0800  137.8400 O.3       1 SER1        0.0000 
     11 OG         77.8700   98.1600  138.9800 O.3       1 SER1        0.0000 
     12 OG         81.1100   98.5400  136.2700 O.3       1 SER1        0.0000 
     13 OG         80.7800   97.6200  137.4200 O.3       1 SER1        0.0000 
     14 OG         80.4600   96.7100  138.5600 O.3       1 SER1        0.0000 
     15 OG         81.7500   95.9900  138.3500 O.3       1 SER1        0.0000 
     16 OG         81.4300   95.0700  139.5000 O.3       1 SER1        0.0000 
     17 O          68.0100   96.2000  138.5400 O.2       2 ALA2        0.0000 
     18 O          67.6800   95.2900  139.6800 O.2       2 ALA2        0.0000 
     19 O          69.6300   96.3900  137.1800 O.2       2 ALA2        0.0000 
     20 O          69.3000   95.4700  138.3300 O.2       2 ALA2        0.0000 
     21 O          70.6000   94.7500  138.1200 O.2       2 ALA2        0.0000 
     22 O          70.2700   93.8300  139.2600 O.2       2 ALA2        0.0000 
     23 O          68.3600   96.2300  140.6300 O.2       2 ALA2        0.0000 
     24 O          68.0400   95.3200  141.7700 O.2       2 ALA2        0.0000 
     25 O          69.6600   95.5000  140.4200 O.2       2 ALA2        0.0000 
     26 O          70.9500   94.7800  140.2100 O.2       2 ALA2        0.0000 
     27 O          70.6300   93.8600  141.3500 O.2       2 ALA2        0.0000 
     28 N          74.2000   95.1500  137.5000 N.am      2 ALA2        0.0000 
     29 O          70.0200   95.5300  142.5100 O.2       2 ALA2        0.0000 
     30 N          76.5000   96.2800  137.0900 N.am      2 ALA2        0.0000 
     31 N          76.1800   95.3700  138.2300 N.am      2 ALA2        0.0000 
     32 N          75.8900   97.9500  138.2500 N.am      2 ALA2        0.0000 
     33 N          77.5100   98.1300  136.8900 N.am      2 ALA2        0.0000 
     34 N          82.4600   96.0400  142.5300 N.am      2 ALA2        0.0000 
     35 OD1        78.7600   89.5300  142.1800 O.co2     3 ASP3        0.0000 
     36 OD1        79.7700   91.3900  141.9800 O.co2     3 ASP3        0.0000 
     37 OD1        79.4400   90.4800  143.1300 O.co2     3 ASP3        0.0000 
     38 OD1        81.3900   91.5800  140.6300 O.co2     3 ASP3        0.0000 
     39 OD1        80.4500   92.3300  142.9300 O.co2     3 ASP3        0.0000 
     40 OD1        80.1200   91.4200  144.0700 O.co2     3 ASP3        0.0000 
     41 OD1        82.0700   92.5200  141.5700 O.co2     3 ASP3        0.0000 
     42 OD1        82.4300   96.9300  139.3000 O.co2     3 ASP3        0.0000 
     43 CZ         69.9900   96.4200  139.2700 C.ar      4 PHE5        0.0000 
     44 CZ         71.2800   95.6900  139.0600 C.ar      4 PHE5        0.0000 
     45 CZ         72.5800   94.9600  138.8500 C.ar      4 PHE5        0.0000 
     46 CZ         74.5100   91.6800  140.7200 C.ar      4 PHE5        0.0000 
     47 CZ         69.0500   97.1700  141.5700 C.ar      4 PHE5        0.0000 
     48 CZ         70.3400   96.4400  141.3600 C.ar      4 PHE5        0.0000 
     49 CZ         74.8800   96.0900  138.4400 C.ar      4 PHE5        0.0000 
     50 CZ         74.5500   95.1800  139.5900 C.ar      4 PHE5        0.0000 
     51 CZ         74.2300   94.2700  140.7300 C.ar      4 PHE5        0.0000 
     52 CZ         75.2000   92.6300  141.6700 C.ar      4 PHE5        0.0000 
     53 CZ         74.8700   91.7100  142.8100 C.ar      4 PHE5        0.0000 
     54 CZ         77.4700   94.6400  138.0200 C.ar      4 PHE5        0.0000 
     55 CZ         78.7700   93.9100  137.8100 C.ar      4 PHE5        0.0000 
     56 CZ         71.9900   95.7500  143.2400 C.ar      4 PHE5        0.0000 
     57 CZ         73.2900   95.0200  143.0300 C.ar      4 PHE5        0.0000 
     58 CZ         75.5600   97.0300  139.3900 C.ar      4 PHE5        0.0000 
     59 CZ         74.9100   95.2100  141.6800 C.ar      4 PHE5        0.0000 
     60 CZ         74.5800   94.2900  142.8200 C.ar      4 PHE5        0.0000 
     61 CZ         77.1800   97.2200  138.0400 C.ar      4 PHE5        0.0000 
     62 CZ         76.8600   96.3100  139.1800 C.ar      4 PHE5        0.0000 
     63 CZ         76.5300   95.4000  140.3200 C.ar      4 PHE5        0.0000 
     64 CZ         76.2100   94.4800  141.4700 C.ar      4 PHE5        0.0000 
     65 CZ         78.8100   97.4100  136.6800 C.ar      4 PHE5        0.0000 
     66 CZ         78.4800   96.5000  137.8300 C.ar      4 PHE5        0.0000 
     67 CZ         78.1500   95.5800  138.9700 C.ar      4 PHE5        0.0000 
     68 CZ         77.5400   97.2500  140.1300 C.ar      4 PHE5        0.0000 
     69 CZ         77.2100   96.3400  141.2700 C.ar      4 PHE5        0.0000 
     70 CZ         76.8900   95.4200  142.4200 C.ar      4 PHE5        0.0000 
     71 CZ         79.4900   98.3500  137.6300 C.ar      4 PHE5        0.0000 
     72 CZ         79.1600   97.4400  138.7700 C.ar      4 PHE5        0.0000 
     73 CZ         78.2200   98.1900  141.0700 C.ar      4 PHE5        0.0000 
     74 CZ         79.5200   97.4700  140.8600 C.ar      4 PHE5        0.0000 
     75 CZ         81.4700   98.5700  138.3600 C.ar      4 PHE5        0.0000 
     76 CZ         81.1400   97.6500  139.5100 C.ar      4 PHE5        0.0000 
     77 CZ         80.8100   96.7400  140.6500 C.ar      4 PHE5        0.0000 
     78 CZ         81.5000   97.6800  141.6000 C.ar      4 PHE5        0.0000 
     79 CA         70.9200   95.6600  136.9700 C.3       5 GLY6        0.0000 
     80 CA         68.6900   97.1400  139.4800 C.3       5 GLY6        0.0000 
     81 CA         72.9000   95.8800  137.7100 C.3       5 GLY6        0.0000 
     82 CA         72.2500   94.0500  140.0000 C.3       5 GLY6        0.0000 
     83 CA         73.8700   94.2400  138.6400 C.3       5 GLY6        0.0000 
     84 CA         73.5500   93.3200  139.7900 C.3       5 GLY6        0.0000 
     85 CA         75.4900   94.4200  137.2900 C.3       5 GLY6        0.0000 
     86 CA         74.8400   92.6000  139.5800 C.3       5 GLY6        0.0000 
     87 CA         76.4600   92.7800  138.2200 C.3       5 GLY6        0.0000 
     88 CA         76.1400   91.8700  139.3700 C.3       5 GLY6        0.0000 
     89 CA         69.3700   98.0800  140.4300 C.3       5 GLY6        0.0000 
     90 CA         75.2100   97.0100  137.3000 C.3       5 GLY6        0.0000 
     91 CA         75.8500   94.4500  139.3800 C.3       5 GLY6        0.0000 
     92 CA         77.1400   93.7300  139.1700 C.3       5 GLY6        0.0000 
     93 CA         76.8200   92.8100  140.3100 C.3       5 GLY6        0.0000 
     94 CA         76.4900   91.9000  141.4600 C.3       5 GLY6        0.0000 
     95 CA         76.1700   90.9900  142.6000 C.3       5 GLY6        0.0000 
     96 CA         77.7900   91.1700  141.2500 C.3       5 GLY6        0.0000 
     97 CA         79.1200   93.9400  139.9000 C.3       5 GLY6        0.0000 
     98 CA         78.8000   93.0300  141.0500 C.3       5 GLY6        0.0000 
     99 CA         78.4700   92.1200  142.1900 C.3       5 GLY6        0.0000 
    100 CA         80.4200   93.2200  139.6900 C.3       5 GLY6        0.0000 
    101 CA         80.0900   92.3000  140.8400 C.3       5 GLY6        0.0000 
    102 CA         81.7100   92.4900  139.4800 C.3       5 GLY6        0.0000 
    103 CA         83.0800   94.3800  141.3800 C.3       5 GLY6        0.0000 
    104 CA         82.7500   93.4600  142.5200 C.3       5 GLY6        0.0000 
    105 CA         84.3700   93.6500  141.1700 C.3       5 GLY6        0.0000 
    106 DU         75.5200   93.5400  140.5200 H         6 CUB7        0.0000 
    107 DU         75.8800   93.5700  142.6100 H         6 CUB7        0.0000 
    108 DU         75.5500   92.6600  143.7600 H         6 CUB7        0.0000 
    109 DU         77.8300   94.6700  140.1100 H         6 CUB7        0.0000 
    110 DU         77.1700   92.8400  142.4000 H         6 CUB7        0.0000 
    111 DU         76.8500   91.9300  143.5500 H         6 CUB7        0.0000 
    112 DU         78.1400   91.2000  143.3400 H         6 CUB7        0.0000 
    113 DU         76.5600   94.5100  143.5600 H         6 CUB7        0.0000 
    114 DU         76.2400   93.6000  144.7000 H         6 CUB7        0.0000 
    115 DU         78.8400   96.5200  139.9200 H         6 CUB7        0.0000 
    116 DU         78.5100   95.6100  141.0600 H         6 CUB7        0.0000 
    117 DU         78.1800   94.7000  142.2100 H         6 CUB7        0.0000 
    118 DU         77.5300   92.8700  144.4900 H         6 CUB7        0.0000 
    119 DU         80.1300   95.8000  139.7100 H         6 CUB7        0.0000 
    120 DU         79.8000   94.8900  140.8500 H         6 CUB7        0.0000 
    121 DU         79.4800   93.9700  141.9900 H         6 CUB7        0.0000 
    122 DU         79.1500   93.0600  143.1400 H         6 CUB7        0.0000 
    123 DU         78.8300   92.1500  144.2800 H         6 CUB7        0.0000 
    124 DU         81.1000   94.1600  140.6400 H         6 CUB7        0.0000 
    125 DU         80.7700   93.2500  141.7800 H         6 CUB7        0.0000 
    126 DU         82.7200   94.3500  139.2900 H         6 CUB7        0.0000 
    127 DU         82.4000   93.4300  140.4300 H         6 CUB7        0.0000 
    128 DU         79.1900   96.5500  142.0100 H         6 CUB7        0.0000 
    129 DU         80.4900   95.8300  141.8000 H         6 CUB7        0.0000 
    130 DU         82.1100   96.0100  140.4400 H         6 CUB7        0.0000 
    131 DU         81.7800   95.1000  141.5900 H         6 CUB7        0.0000 
    132 DU         81.4600   94.1900  142.7300 H         6 CUB7        0.0000 
@<TRIPOS>BOND
@<TRIPOS>SUBSTRUCTURE
     1 SER1        1 GROUP   
     2 ALA2       17 GROUP   
     3 ASP3       35 GROUP   
     4 PHE5       43 GROUP   
     5 GLY6       79 GROUP   
     6 CUB7      106 GROUP   
@<TRIPOS>SET

