#    Name: 5zq7_4_AMP_CAVITY_N1_6
#    Modification time : Fri May 22 19:26:51 2020

@<TRIPOS>MOLECULE
5zq7_4_AMP_CAVITY_N1_6
   80     0     6     0     0
SMALL
NO_CHARGES


@<TRIPOS>ATOM
      1 OG        -13.7200  -10.6900    4.3900 O.3       1 SER1        0.0000 
      2 OG        -14.0400  -11.6100    5.5300 O.3       1 SER1        0.0000 
      3 OG        -14.7000  -13.4300    7.8200 O.3       1 SER1        0.0000 
      4 OG        -14.3300   -9.0300    5.5400 O.3       1 SER1        0.0000 
      5 OG        -14.6600   -9.9400    6.6900 O.3       1 SER1        0.0000 
      6 OG        -13.3600  -10.6700    6.4800 O.3       1 SER1        0.0000 
      7 OG        -13.6900  -11.5800    7.6200 O.3       1 SER1        0.0000 
      8 OG        -12.0700  -11.3900    6.2700 O.3       1 SER1        0.0000 
      9 OG        -10.7700  -12.1200    6.0600 O.3       1 SER1        0.0000 
     10 OG         -8.4600   -6.6100    1.2800 O.3       1 SER1        0.0000 
     11 OG         -8.7800   -7.5200    2.4300 O.3       1 SER1        0.0000 
     12 OG         -9.4000   -5.8500    3.5800 O.3       1 SER1        0.0000 
     13 OG         -8.1000   -6.5800    3.3700 O.3       1 SER1        0.0000 
     14 N         -12.8200  -14.9500    3.2200 N.am      2 ALA2        0.0000 
     15 N         -13.9700   -9.0000    7.6400 N.am      2 ALA2        0.0000 
     16 N         -12.9700   -7.1400    7.4400 N.am      2 ALA2        0.0000 
     17 N         -13.2900   -8.0500    8.5800 N.am      2 ALA2        0.0000 
     18 N         -11.6700   -7.8700    7.2300 N.am      2 ALA2        0.0000 
     19 O         -10.9800   -2.5400    3.8100 O.2       2 ALA2        0.0000 
     20 O          -9.6800   -3.2700    3.6000 O.2       2 ALA2        0.0000 
     21 O         -10.6200   -2.5200    5.9000 O.2       2 ALA2        0.0000 
     22 OD1       -13.7600  -14.1900    5.5200 O.co2     3 ASP3        0.0000 
     23 OD1       -12.4600  -14.9200    5.3100 O.co2     3 ASP3        0.0000 
     24 OD1       -13.0700  -13.2500    6.4700 O.co2     3 ASP3        0.0000 
     25 OD1       -13.4000  -14.1600    7.6100 O.co2     3 ASP3        0.0000 
     26 OD1       -11.7800  -13.9700    6.2600 O.co2     3 ASP3        0.0000 
     27 CZ        -13.4300  -13.2800    4.3700 C.ar      4 PHE5        0.0000 
     28 CZ        -13.3900   -9.7800    3.2400 C.ar      4 PHE5        0.0000 
     29 CZ        -14.3700  -12.5200    6.6800 C.ar      4 PHE5        0.0000 
     30 CZ        -14.9800  -10.8500    7.8300 C.ar      4 PHE5        0.0000 
     31 CZ        -12.7100   -8.8400    4.1900 C.ar      4 PHE5        0.0000 
     32 CZ        -13.0300   -9.7500    5.3300 C.ar      4 PHE5        0.0000 
     33 CZ        -11.4100   -9.5600    3.9800 C.ar      4 PHE5        0.0000 
     34 CZ        -13.6500   -8.0800    6.4900 C.ar      4 PHE5        0.0000 
     35 CZ        -14.3000   -9.9100    8.7800 C.ar      4 PHE5        0.0000 
     36 CZ        -12.0300   -7.9000    5.1400 C.ar      4 PHE5        0.0000 
     37 CZ        -12.3500   -8.8100    6.2800 C.ar      4 PHE5        0.0000 
     38 CZ        -12.6800   -9.7200    7.4200 C.ar      4 PHE5        0.0000 
     39 CZ        -10.0800   -6.8000    2.6400 C.ar      4 PHE5        0.0000 
     40 CZ        -10.4000   -7.7100    3.7800 C.ar      4 PHE5        0.0000 
     41 CZ        -11.0600   -9.5400    6.0700 C.ar      4 PHE5        0.0000 
     42 CZ        -11.3800  -10.4500    7.2100 C.ar      4 PHE5        0.0000 
     43 CZ        -10.0900  -11.1800    7.0000 C.ar      4 PHE5        0.0000 
     44 CZ        -12.6400   -6.2300    6.2900 C.ar      4 PHE5        0.0000 
     45 CZ        -10.3700   -4.2100    2.6500 C.ar      4 PHE5        0.0000 
     46 CZ        -10.6900   -5.1300    3.7900 C.ar      4 PHE5        0.0000 
     47 CZ        -11.0200   -6.0400    4.9400 C.ar      4 PHE5        0.0000 
     48 CZ        -11.3400   -6.9500    6.0800 C.ar      4 PHE5        0.0000 
     49 CZ        -12.0000   -8.7800    8.3700 C.ar      4 PHE5        0.0000 
     50 CZ        -12.2700   -1.8200    4.0200 C.ar      4 PHE5        0.0000 
     51 CZ        -12.9300   -3.6400    6.3100 C.ar      4 PHE5        0.0000 
     52 CZ        -11.3100   -3.4600    4.9500 C.ar      4 PHE5        0.0000 
     53 CZ        -11.6300   -4.3700    6.1000 C.ar      4 PHE5        0.0000 
     54 CZ        -10.0100   -4.1800    4.7400 C.ar      4 PHE5        0.0000 
     55 CA         -9.4700  -12.8400    5.8500 C.3       5 GLY6        0.0000 
     56 CA         -9.4400   -9.3500    4.7200 C.3       5 GLY6        0.0000 
     57 CA         -9.7600  -10.2600    5.8600 C.3       5 GLY6        0.0000 
     58 CA         -8.1400  -10.0700    4.5000 C.3       5 GLY6        0.0000 
     59 CA         -9.7200   -6.7700    4.7300 C.3       5 GLY6        0.0000 
     60 CA        -10.0500   -7.6800    5.8700 C.3       5 GLY6        0.0000 
     61 CA        -10.3700   -8.5900    7.0200 C.3       5 GLY6        0.0000 
     62 CA         -8.4300   -7.4900    4.5200 C.3       5 GLY6        0.0000 
     63 CA         -8.7500   -8.4100    5.6600 C.3       5 GLY6        0.0000 
     64 CA         -9.0800   -9.3200    6.8100 C.3       5 GLY6        0.0000 
     65 CA        -11.9600   -5.2800    7.2400 C.3       5 GLY6        0.0000 
     66 CA        -10.3400   -5.1000    5.8800 C.3       5 GLY6        0.0000 
     67 CA        -10.6600   -6.0100    7.0300 C.3       5 GLY6        0.0000 
     68 CA         -8.7100   -4.9100    4.5300 C.3       5 GLY6        0.0000 
     69 CA         -9.0400   -5.8200    5.6700 C.3       5 GLY6        0.0000 
     70 CA        -11.9200   -1.7900    6.1100 C.3       5 GLY6        0.0000 
     71 CA        -12.2400   -2.7000    7.2500 C.3       5 GLY6        0.0000 
     72 CA        -10.9500   -3.4300    7.0400 C.3       5 GLY6        0.0000 
     73 CA         -9.3300   -3.2400    5.6900 C.3       5 GLY6        0.0000 
     74 DU        -13.1000  -12.3600    3.2300 H         6 CUB7        0.0000 
     75 DU        -12.4200  -11.4200    4.1800 H         6 CUB7        0.0000 
     76 DU        -12.7500  -12.3300    5.3200 H         6 CUB7        0.0000 
     77 DU        -11.7400  -10.4800    5.1200 H         6 CUB7        0.0000 
     78 DU        -10.4400  -11.2000    4.9100 H         6 CUB7        0.0000 
     79 DU        -10.7300   -8.6200    4.9300 H         6 CUB7        0.0000 
     80 DU         -9.1100   -8.4400    3.5700 H         6 CUB7        0.0000 
@<TRIPOS>BOND
@<TRIPOS>SUBSTRUCTURE
     1 SER1        1 GROUP   
     2 ALA2       14 GROUP   
     3 ASP3       22 GROUP   
     4 PHE5       27 GROUP   
     5 GLY6       55 GROUP   
     6 CUB7       74 GROUP   
@<TRIPOS>SET

