#    Name: 5zq7_2_AMP
#    Modification time : Fri May 22 19:26:30 2020

@<TRIPOS>MOLECULE
5zq7_2_AMP
   23    25     1     0     1
SMALL
NO_CHARGES


@<TRIPOS>ATOM
      1 P          79.4130   93.8220  141.6960 P.3       1 AMP1102     0.0000 
      2 O1P        80.5480   92.8200  141.6370 O.co2     1 AMP1102     0.0000 
      3 O2P        78.0540   93.2960  141.7320 O.co2     1 AMP1102     0.0000 
      4 O3P        79.5400   94.9510  142.6580 O.co2     1 AMP1102     0.0000 
      5 O5'        79.4120   94.5940  140.3230 O.3       1 AMP1102     0.0000 
      6 C5'        78.4540   95.6160  140.2760 C.3       1 AMP1102     0.0000 
      7 C4'        78.1090   96.0820  138.8950 C.3       1 AMP1102     0.0000 
      8 O4'        77.3220   95.1250  138.2200 O.3       1 AMP1102     0.0000 
      9 C3'        77.2360   97.2680  139.0730 C.3       1 AMP1102     0.0000 
     10 O3'        77.8010   98.2950  138.3310 O.3       1 AMP1102     0.0000 
     11 C2'        76.0790   97.0560  138.2020 C.3       1 AMP1102     0.0000 
     12 O2'        76.4730   97.8680  137.1210 O.3       1 AMP1102     0.0000 
     13 C1'        76.0520   95.6070  137.8610 C.3       1 AMP1102     0.0000 
     14 N9         75.0310   95.0100  138.6970 N.pl3     1 AMP1102     0.0000 
     15 C8         75.2600   94.2000  139.6970 C.2       1 AMP1102     0.0000 
     16 N7         74.1460   93.8180  140.2840 N.2       1 AMP1102     0.0000 
     17 C5         73.1680   94.3830  139.6230 C.ar      1 AMP1102     0.0000 
     18 C6         71.7330   94.4000  139.7580 C.ar      1 AMP1102     0.0000 
     19 N6         71.1490   93.7070  140.7240 N.pl3     1 AMP1102     0.0000 
     20 N1         71.0460   95.1320  138.8990 N.ar      1 AMP1102     0.0000 
     21 C2         71.6800   95.8130  137.9510 C.ar      1 AMP1102     0.0000 
     22 N3         72.9750   95.8580  137.8020 N.ar      1 AMP1102     0.0000 
     23 C4         73.7580   95.1690  138.5840 C.ar      1 AMP1102     0.0000 
@<TRIPOS>BOND
     1    1    2 ar   
     2    1    3 ar   
     3    1    4 ar   
     4    1    5 1    
     5    5    6 1    
     6    6    7 1    
     7    7    8 1    
     8    7    9 1    
     9    8   13 1    
    10    9   10 1    
    11    9   11 1    
    12   11   12 1    
    13   11   13 1    
    14   13   14 1    
    15   14   15 1    
    16   14   23 1    
    17   15   16 2    
    18   16   17 1    
    19   17   18 ar   
    20   17   23 ar   
    21   18   19 1    
    22   18   20 ar   
    23   20   21 ar   
    24   21   22 ar   
    25   22   23 ar   
@<TRIPOS>SUBSTRUCTURE
     1 AMP1102     1 GROUP   
@<TRIPOS>SET
ATOM$ORANGE STATIC     ATOMS   COLORGROUP SYSTEM 
20 6 6 7 7 9 9 11 11 13 13 15 15 17 17 18 18 21 \
21 23 23 

