#    Name: 5zq7_3_NAD
#    Modification time : Fri May 22 19:26:40 2020

@<TRIPOS>MOLECULE
5zq7_3_NAD
   44    48     1     0     1
SMALL
NO_CHARGES


@<TRIPOS>ATOM
      1 PA         -0.4760   12.5060   55.3160 P.3       1 NAD1101     0.0000 
      2 O1A        -0.2250   12.3640   53.8640 O.co2     1 NAD1101     0.0000 
      3 O2A         0.2170   13.5170   56.1510 O.co2     1 NAD1101     0.0000 
      4 O5B        -1.5490   13.6800   54.9000 O.3       1 NAD1101     0.0000 
      5 C5B        -2.9470   13.4640   54.5860 C.3       1 NAD1101     0.0000 
      6 C4B        -3.5510   14.6590   53.8220 C.3       1 NAD1101     0.0000 
      7 O4B        -2.6390   15.7830   53.6950 O.3       1 NAD1101     0.0000 
      8 C3B        -3.8000   14.2740   52.3980 C.3       1 NAD1101     0.0000 
      9 O3B        -4.9470   13.4120   52.3320 O.3       1 NAD1101     0.0000 
     10 C2B        -4.0930   15.6410   51.8540 C.3       1 NAD1101     0.0000 
     11 O2B        -5.2510   16.1390   52.4830 O.3       1 NAD1101     0.0000 
     12 C1B        -2.8730   16.3780   52.3920 C.3       1 NAD1101     0.0000 
     13 N9A        -1.6350   16.1550   51.5840 N.pl3     1 NAD1101     0.0000 
     14 C8A        -0.7380   15.1770   51.6700 C.2       1 NAD1101     0.0000 
     15 N7A         0.2010   15.3890   50.7500 N.2       1 NAD1101     0.0000 
     16 C5A        -0.1100   16.5000   50.0840 C.ar      1 NAD1101     0.0000 
     17 C6A         0.4940   17.1390   49.0740 C.ar      1 NAD1101     0.0000 
     18 N6A         1.6190   16.6120   48.6080 N.pl3     1 NAD1101     0.0000 
     19 N1A        -0.0020   18.2610   48.5460 N.ar      1 NAD1101     0.0000 
     20 C2A        -1.1900   18.7720   49.0680 C.ar      1 NAD1101     0.0000 
     21 N3A        -1.8050   18.0890   50.1210 N.ar      1 NAD1101     0.0000 
     22 C4A        -1.2490   16.9690   50.6030 C.ar      1 NAD1101     0.0000 
     23 O3         -1.7680   11.7750   55.9520 O.3       1 NAD1101     0.0000 
     24 PN         -2.1360   10.2660   55.5070 P.3       1 NAD1101     0.0000 
     25 O1N        -3.2680   10.3240   54.5520 O.co2     1 NAD1101     0.0000 
     26 O2N        -0.8940    9.5420   55.1480 O.co2     1 NAD1101     0.0000 
     27 O5D        -2.6740    9.6770   56.8630 O.3       1 NAD1101     0.0000 
     28 C5D        -1.7990    9.1230   57.8450 C.3       1 NAD1101     0.0000 
     29 C4D        -2.7400    8.3870   58.7700 C.3       1 NAD1101     0.0000 
     30 O4D        -3.5410    7.6170   57.8040 O.3       1 NAD1101     0.0000 
     31 C3D        -2.0510    7.3720   59.6600 C.3       1 NAD1101     0.0000 
     32 O3D        -2.9800    6.9080   60.6440 O.3       1 NAD1101     0.0000 
     33 C2D        -1.8280    6.2950   58.6520 C.3       1 NAD1101     0.0000 
     34 O2D        -1.5790    5.0530   59.3310 O.3       1 NAD1101     0.0000 
     35 C1D        -3.1810    6.2280   57.9810 C.3       1 NAD1101     0.0000 
     36 N1N        -3.0730    5.5000   56.6860 N.pl3     1 NAD1101     0.0000 
     37 C2N        -3.1900    6.1700   55.4380 C.ar      1 NAD1101     0.0000 
     38 C3N        -3.0690    5.4650   54.2300 C.ar      1 NAD1101     0.0000 
     39 C7N        -3.2000    6.0980   52.9850 C.2       1 NAD1101     0.0000 
     40 O7N        -3.1010    7.4510   52.9380 O.2       1 NAD1101     0.0000 
     41 N7N        -3.4290    5.3170   51.9220 N.am      1 NAD1101     0.0000 
     42 C4N        -2.8170    4.0950   54.2680 C.ar      1 NAD1101     0.0000 
     43 C5N        -2.6940    3.4390   55.4890 C.ar      1 NAD1101     0.0000 
     44 C6N        -2.8150    4.1300   56.6920 C.ar      1 NAD1101     0.0000 
@<TRIPOS>BOND
     1    1    2 ar   
     2    1    3 ar   
     3    1    4 1    
     4    1   23 1    
     5    4    5 1    
     6    5    6 1    
     7    6    7 1    
     8    6    8 1    
     9    7   12 1    
    10    8    9 1    
    11    8   10 1    
    12   10   11 1    
    13   10   12 1    
    14   12   13 1    
    15   13   14 1    
    16   13   22 1    
    17   14   15 2    
    18   15   16 1    
    19   16   17 ar   
    20   16   22 ar   
    21   17   18 1    
    22   17   19 ar   
    23   19   20 ar   
    24   20   21 ar   
    25   21   22 ar   
    26   23   24 1    
    27   24   25 ar   
    28   24   26 ar   
    29   24   27 1    
    30   27   28 1    
    31   28   29 1    
    32   29   30 1    
    33   29   31 1    
    34   30   35 1    
    35   31   32 1    
    36   31   33 1    
    37   33   34 1    
    38   33   35 1    
    39   35   36 1    
    40   36   37 ar   
    41   36   44 ar   
    42   37   38 ar   
    43   38   39 1    
    44   38   42 ar   
    45   39   40 2    
    46   39   41 am   
    47   42   43 ar   
    48   43   44 ar   
@<TRIPOS>SUBSTRUCTURE
     1 NAD1101     1 GROUP   
@<TRIPOS>SET
ATOM$ORANGE STATIC     ATOMS   COLORGROUP SYSTEM 
42 5 5 6 6 8 8 10 10 12 12 14 14 16 16 17 17 20 \
20 22 22 28 28 29 29 31 31 33 33 35 35 37 37 38 38 39 \
39 42 42 43 43 44 44 

