#    Name: 5zq7_1_NAD
#    Modification time : Fri May 22 19:26:21 2020

@<TRIPOS>MOLECULE
5zq7_1_NAD
   44    48     1     0     1
SMALL
NO_CHARGES


@<TRIPOS>ATOM
      1 PA         58.4610   85.3820   88.5180 P.3       1 NAD1101     0.0000 
      2 O1A        57.6140   84.7320   87.4840 O.co2     1 NAD1101     0.0000 
      3 O2A        59.0670   84.5620   89.5800 O.co2     1 NAD1101     0.0000 
      4 O5B        57.5560   86.4710   89.2770 O.3       1 NAD1101     0.0000 
      5 C5B        57.1380   87.7160   88.6970 C.3       1 NAD1101     0.0000 
      6 C4B        56.1570   88.3540   89.6810 C.3       1 NAD1101     0.0000 
      7 O4B        55.1280   87.3870   89.9620 O.3       1 NAD1101     0.0000 
      8 C3B        56.7830   88.4910   91.0450 C.3       1 NAD1101     0.0000 
      9 O3B        57.7450   89.5620   91.0730 O.3       1 NAD1101     0.0000 
     10 C2B        55.5310   88.8410   91.7910 C.3       1 NAD1101     0.0000 
     11 O2B        55.0570   90.0870   91.2750 O.3       1 NAD1101     0.0000 
     12 C1B        54.6280   87.6990   91.2950 C.3       1 NAD1101     0.0000 
     13 N9A        54.7520   86.4080   92.0340 N.pl3     1 NAD1101     0.0000 
     14 C8A        55.6530   85.4310   91.9140 C.2       1 NAD1101     0.0000 
     15 N7A        55.3560   84.4670   92.7890 N.2       1 NAD1101     0.0000 
     16 C5A        54.2610   84.8400   93.4440 C.ar      1 NAD1101     0.0000 
     17 C6A        53.5590   84.2400   94.4000 C.ar      1 NAD1101     0.0000 
     18 N6A        54.0050   83.0500   94.8010 N.pl3     1 NAD1101     0.0000 
     19 N1A        52.4670   84.8070   94.9350 N.ar      1 NAD1101     0.0000 
     20 C2A        52.0550   86.0550   94.4720 C.ar      1 NAD1101     0.0000 
     21 N3A        52.8080   86.6580   93.4700 N.ar      1 NAD1101     0.0000 
     22 C4A        53.8910   86.0370   92.9800 C.ar      1 NAD1101     0.0000 
     23 O3         59.5990   86.2390   87.7700 O.3       1 NAD1101     0.0000 
     24 PN         60.8800   86.9030   88.5010 P.3       1 NAD1101     0.0000 
     25 O1N        60.4180   88.0600   89.2950 O.co2     1 NAD1101     0.0000 
     26 O2N        61.7510   85.8880   89.1230 O.co2     1 NAD1101     0.0000 
     27 O5D        61.6530   87.4530   87.2420 O.3       1 NAD1101     0.0000 
     28 C5D        62.6010   86.6900   86.5020 C.3       1 NAD1101     0.0000 
     29 C4D        63.2080   87.7100   85.5500 C.3       1 NAD1101     0.0000 
     30 O4D        63.9020   88.6420   86.4360 O.3       1 NAD1101     0.0000 
     31 C3D        64.2950   87.1520   84.6460 C.3       1 NAD1101     0.0000 
     32 O3D        64.7350   88.1670   83.7440 O.3       1 NAD1101     0.0000 
     33 C2D        65.3320   86.9450   85.6970 C.3       1 NAD1101     0.0000 
     34 O2D        66.6250   86.7700   85.0990 O.3       1 NAD1101     0.0000 
     35 C1D        65.3070   88.2660   86.4160 C.3       1 NAD1101     0.0000 
     36 N1N        65.8860   88.1000   87.7740 N.pl3     1 NAD1101     0.0000 
     37 C2N        65.0690   88.2270   88.9100 C.ar      1 NAD1101     0.0000 
     38 C3N        65.6120   88.0570   90.1800 C.ar      1 NAD1101     0.0000 
     39 C7N        64.8050   88.2030   91.3060 C.2       1 NAD1101     0.0000 
     40 O7N        65.4130   88.6760   92.4310 O.2       1 NAD1101     0.0000 
     41 N7N        63.5030   87.8950   91.1800 N.am      1 NAD1101     0.0000 
     42 C4N        66.9640   87.7520   90.3310 C.ar      1 NAD1101     0.0000 
     43 C5N        67.7850   87.6130   89.2120 C.ar      1 NAD1101     0.0000 
     44 C6N        67.2470   87.7830   87.9370 C.ar      1 NAD1101     0.0000 
@<TRIPOS>BOND
     1    1    2 ar   
     2    1    3 ar   
     3    1    4 1    
     4    1   23 1    
     5    4    5 1    
     6    5    6 1    
     7    6    7 1    
     8    6    8 1    
     9    7   12 1    
    10    8    9 1    
    11    8   10 1    
    12   10   11 1    
    13   10   12 1    
    14   12   13 1    
    15   13   14 1    
    16   13   22 1    
    17   14   15 2    
    18   15   16 1    
    19   16   17 ar   
    20   16   22 ar   
    21   17   18 1    
    22   17   19 ar   
    23   19   20 ar   
    24   20   21 ar   
    25   21   22 ar   
    26   23   24 1    
    27   24   25 ar   
    28   24   26 ar   
    29   24   27 1    
    30   27   28 1    
    31   28   29 1    
    32   29   30 1    
    33   29   31 1    
    34   30   35 1    
    35   31   32 1    
    36   31   33 1    
    37   33   34 1    
    38   33   35 1    
    39   35   36 1    
    40   36   37 ar   
    41   36   44 ar   
    42   37   38 ar   
    43   38   39 1    
    44   38   42 ar   
    45   39   40 2    
    46   39   41 am   
    47   42   43 ar   
    48   43   44 ar   
@<TRIPOS>SUBSTRUCTURE
     1 NAD1101     1 GROUP   
@<TRIPOS>SET
ATOM$ORANGE STATIC     ATOMS   COLORGROUP SYSTEM 
42 5 5 6 6 8 8 10 10 12 12 14 14 16 16 17 17 20 \
20 22 22 28 28 29 29 31 31 33 33 35 35 37 37 38 38 39 \
39 42 42 43 43 44 44 

