#    Name: 5zq7_4_AMP
#    Modification time : Fri May 22 19:26:50 2020

@<TRIPOS>MOLECULE
5zq7_4_AMP
   23    25     1     0     1
SMALL
NO_CHARGES


@<TRIPOS>ATOM
      1 P          -9.9510  -11.1170    3.0110 P.3       1 AMP1102     0.0000 
      2 O1P        -9.4670   -9.8570    2.4350 O.co2     1 AMP1102     0.0000 
      3 O2P       -11.2830  -11.5050    2.4860 O.co2     1 AMP1102     0.0000 
      4 O3P        -8.9710  -12.2220    3.2370 O.co2     1 AMP1102     0.0000 
      5 O5'       -10.3440  -10.8050    4.4750 O.3       1 AMP1102     0.0000 
      6 C5'       -11.2680   -9.7700    4.5590 C.3       1 AMP1102     0.0000 
      7 C4'       -11.9170   -9.7810    5.9040 C.3       1 AMP1102     0.0000 
      8 O4'       -11.1570   -8.9960    6.7970 O.3       1 AMP1102     0.0000 
      9 C3'       -13.2220   -9.0850    5.7590 C.3       1 AMP1102     0.0000 
     10 O3'       -14.1530   -9.8850    6.4430 O.3       1 AMP1102     0.0000 
     11 C2'       -13.1050   -7.8080    6.5070 C.3       1 AMP1102     0.0000 
     12 O2'       -13.9340   -7.9290    7.6300 O.3       1 AMP1102     0.0000 
     13 C1'       -11.7030   -7.7160    6.9970 C.3       1 AMP1102     0.0000 
     14 N9        -11.0090   -6.7490    6.1550 N.pl3     1 AMP1102     0.0000 
     15 C8        -10.2210   -7.0630    5.1550 C.2       1 AMP1102     0.0000 
     16 N7         -9.7160   -5.9790    4.5660 N.2       1 AMP1102     0.0000 
     17 C5        -10.1970   -4.9330    5.2230 C.ar      1 AMP1102     0.0000 
     18 C6        -10.0910   -3.4820    5.1170 C.ar      1 AMP1102     0.0000 
     19 N6         -9.3360   -2.9130    4.1660 N.pl3     1 AMP1102     0.0000 
     20 N1        -10.7460   -2.7320    5.9750 N.ar      1 AMP1102     0.0000 
     21 C2        -11.4870   -3.2820    6.9010 C.ar      1 AMP1102     0.0000 
     22 N3        -11.6370   -4.5810    7.0570 N.ar      1 AMP1102     0.0000 
     23 C4        -11.0420   -5.4500    6.2590 C.ar      1 AMP1102     0.0000 
@<TRIPOS>BOND
     1    1    2 ar   
     2    1    3 ar   
     3    1    4 ar   
     4    1    5 1    
     5    5    6 1    
     6    6    7 1    
     7    7    8 1    
     8    7    9 1    
     9    8   13 1    
    10    9   10 1    
    11    9   11 1    
    12   11   12 1    
    13   11   13 1    
    14   13   14 1    
    15   14   15 1    
    16   14   23 1    
    17   15   16 2    
    18   16   17 1    
    19   17   18 ar   
    20   17   23 ar   
    21   18   19 1    
    22   18   20 ar   
    23   20   21 ar   
    24   21   22 ar   
    25   22   23 ar   
@<TRIPOS>SUBSTRUCTURE
     1 AMP1102     1 GROUP   
@<TRIPOS>SET
ATOM$ORANGE STATIC     ATOMS   COLORGROUP SYSTEM 
20 6 6 7 7 9 9 11 11 13 13 15 15 17 17 18 18 21 \
21 23 23 

