#    Name: 6s7r_8_ADP
#    Modification time : Fri May 22 19:40:15 2020

@<TRIPOS>MOLECULE
6s7r_8_ADP
   27    29     1     0     1
SMALL
NO_CHARGES


@<TRIPOS>ATOM
      1 PB        -36.3010  -19.9030  -64.6490 P.3       1 ADP601      0.0000 
      2 O1B       -35.7270  -19.4390  -65.9670 O.co2     1 ADP601      0.0000 
      3 O2B       -37.8080  -19.9950  -64.6310 O.co2     1 ADP601      0.0000 
      4 O3B       -35.5970  -21.1010  -64.0590 O.co2     1 ADP601      0.0000 
      5 PA        -34.4530  -18.1530  -63.4840 P.3       1 ADP601      0.0000 
      6 O1A       -34.0510  -17.5190  -64.7940 O.co2     1 ADP601      0.0000 
      7 O2A       -33.5900  -19.2400  -62.8950 O.co2     1 ADP601      0.0000 
      8 O3A       -35.9600  -18.7050  -63.6250 O.3       1 ADP601      0.0000 
      9 O5'       -34.5590  -16.9780  -62.3910 O.3       1 ADP601      0.0000 
     10 C5'       -33.3840  -16.2220  -62.1090 C.3       1 ADP601      0.0000 
     11 C4'       -33.6950  -15.0600  -61.1790 C.3       1 ADP601      0.0000 
     12 O4'       -33.7460  -15.4960  -59.8180 O.3       1 ADP601      0.0000 
     13 C3'       -32.6040  -14.0040  -61.2570 C.3       1 ADP601      0.0000 
     14 O3'       -33.0820  -12.8500  -61.9540 O.3       1 ADP601      0.0000 
     15 C2'       -32.2750  -13.6460  -59.8220 C.3       1 ADP601      0.0000 
     16 O2'       -32.4910  -12.2530  -59.5950 O.3       1 ADP601      0.0000 
     17 C1'       -33.2420  -14.4560  -58.9750 C.3       1 ADP601      0.0000 
     18 N9        -32.5480  -14.9820  -57.7710 N.pl3     1 ADP601      0.0000 
     19 C8        -31.9800  -16.1940  -57.6340 C.2       1 ADP601      0.0000 
     20 N7        -31.4340  -16.3410  -56.3970 N.2       1 ADP601      0.0000 
     21 C5        -31.6540  -15.1990  -55.7190 C.ar      1 ADP601      0.0000 
     22 C6        -31.3450  -14.6790  -54.3650 C.ar      1 ADP601      0.0000 
     23 N6        -30.6730  -15.4320  -53.4620 N.pl3     1 ADP601      0.0000 
     24 N1        -31.7580  -13.4280  -54.0620 N.ar      1 ADP601      0.0000 
     25 C2        -32.4270  -12.6680  -54.9480 C.ar      1 ADP601      0.0000 
     26 N3        -32.7390  -13.0750  -56.1910 N.ar      1 ADP601      0.0000 
     27 C4        -32.3880  -14.3080  -56.6290 C.ar      1 ADP601      0.0000 
@<TRIPOS>BOND
     1    1    2 ar   
     2    1    3 ar   
     3    1    4 ar   
     4    1    8 1    
     5    5    6 ar   
     6    5    7 ar   
     7    5    8 1    
     8    5    9 1    
     9    9   10 1    
    10   10   11 1    
    11   11   12 1    
    12   11   13 1    
    13   12   17 1    
    14   13   14 1    
    15   13   15 1    
    16   15   16 1    
    17   15   17 1    
    18   17   18 1    
    19   18   19 1    
    20   18   27 1    
    21   19   20 2    
    22   20   21 1    
    23   21   22 ar   
    24   21   27 ar   
    25   22   23 1    
    26   22   24 ar   
    27   24   25 ar   
    28   25   26 ar   
    29   26   27 ar   
@<TRIPOS>SUBSTRUCTURE
     1 ADP601      1 GROUP   
@<TRIPOS>SET
ATOM$ORANGE STATIC     ATOMS   COLORGROUP SYSTEM 
20 10 10 11 11 13 13 15 15 17 17 19 19 21 21 22 22 25 \
25 27 27 

