#    Name: 6s7r_6_ADP
#    Modification time : Fri May 22 19:40:09 2020

@<TRIPOS>MOLECULE
6s7r_6_ADP
   27    29     1     0     1
SMALL
NO_CHARGES


@<TRIPOS>ATOM
      1 PB        -14.2990    7.5430   14.7430 P.3       1 ADP601      0.0000 
      2 O1B       -12.7950    7.4230   14.6580 O.co2     1 ADP601      0.0000 
      3 O2B       -14.7820    8.8590   15.3080 O.co2     1 ADP601      0.0000 
      4 O3B       -14.9850    6.3280   15.3200 O.co2     1 ADP601      0.0000 
      5 PA        -14.1890    6.4810   12.1780 P.3       1 ADP601      0.0000 
      6 O1A       -12.7700    6.8760   11.8460 O.co2     1 ADP601      0.0000 
      7 O2A       -14.4730    5.1060   12.7330 O.co2     1 ADP601      0.0000 
      8 O3A       -14.7800    7.5720   13.2030 O.3       1 ADP601      0.0000 
      9 O5'       -15.0530    6.6440   10.8310 O.3       1 ADP601      0.0000 
     10 C5'       -14.6430    5.8580    9.7150 C.3       1 ADP601      0.0000 
     11 C4'       -15.6490    5.9010    8.5750 C.3       1 ADP601      0.0000 
     12 O4'       -15.6210    7.1650    7.9050 O.3       1 ADP601      0.0000 
     13 C3'       -15.2930    4.8450    7.5380 C.3       1 ADP601      0.0000 
     14 O3'       -16.2950    3.8260    7.5100 O.3       1 ADP601      0.0000 
     15 C2'       -15.2560    5.5730    6.2110 C.3       1 ADP601      0.0000 
     16 O2'       -16.0580    4.9050    5.2370 O.3       1 ADP601      0.0000 
     17 C1'       -15.8230    6.9490    6.5070 C.3       1 ADP601      0.0000 
     18 N9        -15.1480    7.9600    5.6570 N.pl3     1 ADP601      0.0000 
     19 C8        -14.0780    8.7130    5.9740 C.2       1 ADP601      0.0000 
     20 N7        -13.7350    9.5280    4.9410 N.2       1 ADP601      0.0000 
     21 C5        -14.6000    9.2950    3.9360 C.ar      1 ADP601      0.0000 
     22 C6        -14.8150    9.8050    2.5600 C.ar      1 ADP601      0.0000 
     23 N6        -14.0120   10.7590    2.0320 N.pl3     1 ADP601      0.0000 
     24 N1        -15.8420    9.2850    1.8500 N.ar      1 ADP601      0.0000 
     25 C2        -16.6480    8.3360    2.3600 C.ar      1 ADP601      0.0000 
     26 N3        -16.5120    7.8290    3.5960 N.ar      1 ADP601      0.0000 
     27 C4        -15.5260    8.2610    4.4160 C.ar      1 ADP601      0.0000 
@<TRIPOS>BOND
     1    1    2 ar   
     2    1    3 ar   
     3    1    4 ar   
     4    1    8 1    
     5    5    6 ar   
     6    5    7 ar   
     7    5    8 1    
     8    5    9 1    
     9    9   10 1    
    10   10   11 1    
    11   11   12 1    
    12   11   13 1    
    13   12   17 1    
    14   13   14 1    
    15   13   15 1    
    16   15   16 1    
    17   15   17 1    
    18   17   18 1    
    19   18   19 1    
    20   18   27 1    
    21   19   20 2    
    22   20   21 1    
    23   21   22 ar   
    24   21   27 ar   
    25   22   23 1    
    26   22   24 ar   
    27   24   25 ar   
    28   25   26 ar   
    29   26   27 ar   
@<TRIPOS>SUBSTRUCTURE
     1 ADP601      1 GROUP   
@<TRIPOS>SET
ATOM$ORANGE STATIC     ATOMS   COLORGROUP SYSTEM 
20 10 10 11 11 13 13 15 15 17 17 19 19 21 21 22 22 25 \
25 27 27 

