#    Name: 6s7r_12_ADP
#    Modification time : Fri May 22 19:40:32 2020

@<TRIPOS>MOLECULE
6s7r_12_ADP
   27    29     1     0     1
SMALL
NO_CHARGES


@<TRIPOS>ATOM
      1 PB          0.0810  -45.5440  -64.7060 P.3       1 ADP601      0.0000 
      2 O1B        -1.2960  -45.6640  -65.3150 O.co2     1 ADP601      0.0000 
      3 O2B         1.0090  -46.6880  -65.0390 O.co2     1 ADP601      0.0000 
      4 O3B         0.0800  -45.1460  -63.2500 O.co2     1 ADP601      0.0000 
      5 PA         -0.0070  -42.8450  -65.3590 P.3       1 ADP601      0.0000 
      6 O1A        -1.3260  -42.9390  -66.0860 O.co2     1 ADP601      0.0000 
      7 O2A         0.0230  -42.3890  -63.9200 O.co2     1 ADP601      0.0000 
      8 O3A         0.7270  -44.2740  -65.4580 O.3       1 ADP601      0.0000 
      9 O5'         0.9300  -41.8470  -66.1990 O.3       1 ADP601      0.0000 
     10 C5'         0.4650  -40.5130  -66.3820 C.3       1 ADP601      0.0000 
     11 C4'         1.5920  -39.6150  -66.8620 C.3       1 ADP601      0.0000 
     12 O4'         2.0140  -40.0090  -68.1670 O.3       1 ADP601      0.0000 
     13 C3'         1.1190  -38.1740  -66.9600 C.3       1 ADP601      0.0000 
     14 O3'         1.6500  -37.3960  -65.8850 O.3       1 ADP601      0.0000 
     15 C2'         1.6340  -37.6680  -68.2910 C.3       1 ADP601      0.0000 
     16 O2'         2.5650  -36.5990  -68.1100 O.3       1 ADP601      0.0000 
     17 C1'         2.3340  -38.8490  -68.9330 C.3       1 ADP601      0.0000 
     18 N9          1.8270  -38.9740  -70.3140 N.pl3     1 ADP601      0.0000 
     19 C8          0.7840  -39.7150  -70.7260 C.2       1 ADP601      0.0000 
     20 N7          0.6010  -39.5830  -72.0650 N.2       1 ADP601      0.0000 
     21 C5          1.5410  -38.7300  -72.5150 C.ar      1 ADP601      0.0000 
     22 C6          1.9320  -38.1530  -73.8150 C.ar      1 ADP601      0.0000 
     23 N6          1.2570  -38.4620  -74.9380 N.pl3     1 ADP601      0.0000 
     24 N1          2.9800  -37.3050  -73.8440 N.ar      1 ADP601      0.0000 
     25 C2          3.6670  -36.9880  -72.7330 C.ar      1 ADP601      0.0000 
     26 N3          3.3760  -37.4770  -71.5190 N.ar      1 ADP601      0.0000 
     27 C4          2.3460  -38.3360  -71.3550 C.ar      1 ADP601      0.0000 
@<TRIPOS>BOND
     1    1    2 ar   
     2    1    3 ar   
     3    1    4 ar   
     4    1    8 1    
     5    5    6 ar   
     6    5    7 ar   
     7    5    8 1    
     8    5    9 1    
     9    9   10 1    
    10   10   11 1    
    11   11   12 1    
    12   11   13 1    
    13   12   17 1    
    14   13   14 1    
    15   13   15 1    
    16   15   16 1    
    17   15   17 1    
    18   17   18 1    
    19   18   19 1    
    20   18   27 1    
    21   19   20 2    
    22   20   21 1    
    23   21   22 ar   
    24   21   27 ar   
    25   22   23 1    
    26   22   24 ar   
    27   24   25 ar   
    28   25   26 ar   
    29   26   27 ar   
@<TRIPOS>SUBSTRUCTURE
     1 ADP601      1 GROUP   
@<TRIPOS>SET
ATOM$ORANGE STATIC     ATOMS   COLORGROUP SYSTEM 
20 10 10 11 11 13 13 15 15 17 17 19 19 21 21 22 22 25 \
25 27 27 

