#    Name: 6s7r_9_ADP
#    Modification time : Fri May 22 19:40:21 2020

@<TRIPOS>MOLECULE
6s7r_9_ADP
   27    29     1     0     1
SMALL
NO_CHARGES


@<TRIPOS>ATOM
      1 PB        -26.9170  -37.1800  -43.7810 P.3       1 ADP601      0.0000 
      2 O1B       -26.5480  -36.8280  -45.2030 O.co2     1 ADP601      0.0000 
      3 O2B       -27.1020  -35.9890  -42.8720 O.co2     1 ADP601      0.0000 
      4 O3B       -26.0890  -38.2960  -43.1900 O.co2     1 ADP601      0.0000 
      5 PA        -28.6120  -39.1000  -44.8470 P.3       1 ADP601      0.0000 
      6 O1A       -28.3470  -38.6910  -46.2750 O.co2     1 ADP601      0.0000 
      7 O2A       -27.8560  -40.2650  -44.2530 O.co2     1 ADP601      0.0000 
      8 O3A       -28.3930  -37.8130  -43.9070 O.3       1 ADP601      0.0000 
      9 O5'       -30.1810  -39.4300  -44.7450 O.3       1 ADP601      0.0000 
     10 C5'       -30.7030  -40.3090  -45.7360 C.3       1 ADP601      0.0000 
     11 C4'       -32.0630  -40.8520  -45.3380 C.3       1 ADP601      0.0000 
     12 O4'       -33.0800  -39.8650  -45.5250 O.3       1 ADP601      0.0000 
     13 C3'       -32.4170  -42.0270  -46.2330 C.3       1 ADP601      0.0000 
     14 O3'       -32.2780  -43.2580  -45.5210 O.3       1 ADP601      0.0000 
     15 C2'       -33.8530  -41.7880  -46.6540 C.3       1 ADP601      0.0000 
     16 O2'       -34.7100  -42.8620  -46.2630 O.3       1 ADP601      0.0000 
     17 C1'       -34.2790  -40.5050  -45.9660 C.3       1 ADP601      0.0000 
     18 N9        -35.0320  -39.6930  -46.9510 N.pl3     1 ADP601      0.0000 
     19 C8        -34.5460  -38.7160  -47.7390 C.2       1 ADP601      0.0000 
     20 N7        -35.5260  -38.1970  -48.5250 N.2       1 ADP601      0.0000 
     21 C5        -36.6670  -38.8530  -48.2410 C.ar      1 ADP601      0.0000 
     22 C6        -38.0760  -38.8120  -48.7000 C.ar      1 ADP601      0.0000 
     23 N6        -38.4810  -37.9370  -49.6510 N.pl3     1 ADP601      0.0000 
     24 N1        -38.9460  -39.6790  -48.1360 N.ar      1 ADP601      0.0000 
     25 C2        -38.5600  -40.5560  -47.1910 C.ar      1 ADP601      0.0000 
     26 N3        -37.3040  -40.6480  -46.7280 N.ar      1 ADP601      0.0000 
     27 C4        -36.3310  -39.8390  -47.2050 C.ar      1 ADP601      0.0000 
@<TRIPOS>BOND
     1    1    2 ar   
     2    1    3 ar   
     3    1    4 ar   
     4    1    8 1    
     5    5    6 ar   
     6    5    7 ar   
     7    5    8 1    
     8    5    9 1    
     9    9   10 1    
    10   10   11 1    
    11   11   12 1    
    12   11   13 1    
    13   12   17 1    
    14   13   14 1    
    15   13   15 1    
    16   15   16 1    
    17   15   17 1    
    18   17   18 1    
    19   18   19 1    
    20   18   27 1    
    21   19   20 2    
    22   20   21 1    
    23   21   22 ar   
    24   21   27 ar   
    25   22   23 1    
    26   22   24 ar   
    27   24   25 ar   
    28   25   26 ar   
    29   26   27 ar   
@<TRIPOS>SUBSTRUCTURE
     1 ADP601      1 GROUP   
@<TRIPOS>SET
ATOM$ORANGE STATIC     ATOMS   COLORGROUP SYSTEM 
20 10 10 11 11 13 13 15 15 17 17 19 19 21 21 22 22 25 \
25 27 27 

