#    Name: 6s7r_5_ADP
#    Modification time : Fri May 22 19:40:04 2020

@<TRIPOS>MOLECULE
6s7r_5_ADP
   27    29     1     0     1
SMALL
NO_CHARGES


@<TRIPOS>ATOM
      1 PB        -13.0480    7.3740   21.3160 P.3       1 ADP601      0.0000 
      2 O1B       -12.2450    6.9090   20.1250 O.co2     1 ADP601      0.0000 
      3 O2B       -14.0290    6.3480   21.8260 O.co2     1 ADP601      0.0000 
      4 O3B       -13.6130    8.7690   21.1860 O.co2     1 ADP601      0.0000 
      5 PA        -10.5740    8.2700   22.1980 P.3       1 ADP601      0.0000 
      6 O1A        -9.7180    7.3850   21.3270 O.co2     1 ADP601      0.0000 
      7 O2A       -10.8890    9.6770   21.7490 O.co2     1 ADP601      0.0000 
      8 O3A       -11.9570    7.5020   22.4950 O.3       1 ADP601      0.0000 
      9 O5'        -9.8340    8.3670   23.6190 O.3       1 ADP601      0.0000 
     10 C5'        -8.4660    8.7560   23.5830 C.3       1 ADP601      0.0000 
     11 C4'        -7.9880    9.2320   24.9420 C.3       1 ADP601      0.0000 
     12 O4'        -7.6920    8.1140   25.7820 O.3       1 ADP601      0.0000 
     13 C3'        -6.7040   10.0270   24.7770 C.3       1 ADP601      0.0000 
     14 O3'        -6.9250   11.3950   25.1290 O.3       1 ADP601      0.0000 
     15 C2'        -5.7090    9.4020   25.7280 C.3       1 ADP601      0.0000 
     16 O2'        -5.1640   10.4010   26.5900 O.3       1 ADP601      0.0000 
     17 C1'        -6.5020    8.3790   26.5260 C.3       1 ADP601      0.0000 
     18 N9         -5.6880    7.1530   26.7090 N.pl3     1 ADP601      0.0000 
     19 C8         -5.5220    6.1570   25.8190 C.2       1 ADP601      0.0000 
     20 N7         -4.7050    5.1920   26.3160 N.2       1 ADP601      0.0000 
     21 C5         -4.3340    5.5750   27.5520 C.ar      1 ADP601      0.0000 
     22 C6         -3.4830    5.0290   28.6350 C.ar      1 ADP601      0.0000 
     23 N6         -2.8450    3.8460   28.4900 N.pl3     1 ADP601      0.0000 
     24 N1         -3.3620    5.7510   29.7700 N.ar      1 ADP601      0.0000 
     25 C2         -3.9910    6.9290   29.9250 C.ar      1 ADP601      0.0000 
     26 N3         -4.7770    7.4860   28.9880 N.ar      1 ADP601      0.0000 
     27 C4         -4.9830    6.8680   27.8020 C.ar      1 ADP601      0.0000 
@<TRIPOS>BOND
     1    1    2 ar   
     2    1    3 ar   
     3    1    4 ar   
     4    1    8 1    
     5    5    6 ar   
     6    5    7 ar   
     7    5    8 1    
     8    5    9 1    
     9    9   10 1    
    10   10   11 1    
    11   11   12 1    
    12   11   13 1    
    13   12   17 1    
    14   13   14 1    
    15   13   15 1    
    16   15   16 1    
    17   15   17 1    
    18   17   18 1    
    19   18   19 1    
    20   18   27 1    
    21   19   20 2    
    22   20   21 1    
    23   21   22 ar   
    24   21   27 ar   
    25   22   23 1    
    26   22   24 ar   
    27   24   25 ar   
    28   25   26 ar   
    29   26   27 ar   
@<TRIPOS>SUBSTRUCTURE
     1 ADP601      1 GROUP   
@<TRIPOS>SET
ATOM$ORANGE STATIC     ATOMS   COLORGROUP SYSTEM 
20 10 10 11 11 13 13 15 15 17 17 19 19 21 21 22 22 25 \
25 27 27 

