#    Name: 6s7r_4_ADP
#    Modification time : Fri May 22 19:39:58 2020

@<TRIPOS>MOLECULE
6s7r_4_ADP
   27    29     1     0     1
SMALL
NO_CHARGES


@<TRIPOS>ATOM
      1 PB         10.8730  -12.0410   14.9580 P.3       1 ADP601      0.0000 
      2 O1B        10.1370  -11.9350   13.6420 O.co2     1 ADP601      0.0000 
      3 O2B        11.8050  -13.2220   15.0470 O.co2     1 ADP601      0.0000 
      4 O3B        10.0010  -11.8560   16.1770 O.co2     1 ADP601      0.0000 
      5 PA         11.1850   -9.2990   14.7580 P.3       1 ADP601      0.0000 
      6 O1A        10.6980   -9.2040   13.3320 O.co2     1 ADP601      0.0000 
      7 O2A        10.2210   -9.0440   15.8910 O.co2     1 ADP601      0.0000 
      8 O3A        11.8430  -10.7530   14.9670 O.3       1 ADP601      0.0000 
      9 O5'        12.3840   -8.2380   14.9040 O.3       1 ADP601      0.0000 
     10 C5'        12.0640   -6.9030   14.5240 C.3       1 ADP601      0.0000 
     11 C4'        13.0720   -5.8850   15.0250 C.3       1 ADP601      0.0000 
     12 O4'        14.2230   -5.8620   14.1770 O.3       1 ADP601      0.0000 
     13 C3'        12.4450   -4.5020   14.9680 C.3       1 ADP601      0.0000 
     14 O3'        12.3650   -3.9480   16.2840 O.3       1 ADP601      0.0000 
     15 C2'        13.3640   -3.6620   14.1080 C.3       1 ADP601      0.0000 
     16 O2'        13.6690   -2.4340   14.7720 O.3       1 ADP601      0.0000 
     17 C1'        14.6130   -4.5090   13.9260 C.3       1 ADP601      0.0000 
     18 N9         15.1620   -4.3420   12.5550 N.pl3     1 ADP601      0.0000 
     19 C8         14.6910   -4.9050   11.4260 C.2       1 ADP601      0.0000 
     20 N7         15.4320   -4.5330   10.3490 N.2       1 ADP601      0.0000 
     21 C5         16.4030   -3.7100   10.7890 C.ar      1 ADP601      0.0000 
     22 C6         17.5290   -2.9580   10.1850 C.ar      1 ADP601      0.0000 
     23 N6         17.7780   -3.0080    8.8550 N.pl3     1 ADP601      0.0000 
     24 N1         18.3040   -2.2160   11.0070 N.ar      1 ADP601      0.0000 
     25 C2         18.0740   -2.1530   12.3310 C.ar      1 ADP601      0.0000 
     26 N3         17.0720   -2.8070   12.9450 N.ar      1 ADP601      0.0000 
     27 C4         16.2170   -3.5870   12.2420 C.ar      1 ADP601      0.0000 
@<TRIPOS>BOND
     1    1    2 ar   
     2    1    3 ar   
     3    1    4 ar   
     4    1    8 1    
     5    5    6 ar   
     6    5    7 ar   
     7    5    8 1    
     8    5    9 1    
     9    9   10 1    
    10   10   11 1    
    11   11   12 1    
    12   11   13 1    
    13   12   17 1    
    14   13   14 1    
    15   13   15 1    
    16   15   16 1    
    17   15   17 1    
    18   17   18 1    
    19   18   19 1    
    20   18   27 1    
    21   19   20 2    
    22   20   21 1    
    23   21   22 ar   
    24   21   27 ar   
    25   22   23 1    
    26   22   24 ar   
    27   24   25 ar   
    28   25   26 ar   
    29   26   27 ar   
@<TRIPOS>SUBSTRUCTURE
     1 ADP601      1 GROUP   
@<TRIPOS>SET
ATOM$ORANGE STATIC     ATOMS   COLORGROUP SYSTEM 
20 10 10 11 11 13 13 15 15 17 17 19 19 21 21 22 22 25 \
25 27 27 

