#    Name: 6s7r_10_ADP
#    Modification time : Fri May 22 19:40:26 2020

@<TRIPOS>MOLECULE
6s7r_10_ADP
   27    29     1     0     1
SMALL
NO_CHARGES


@<TRIPOS>ATOM
      1 PB        -22.0040  -34.0210  -44.4880 P.3       1 ADP601      0.0000 
      2 O1B       -22.6140  -34.2700  -45.8480 O.co2     1 ADP601      0.0000 
      3 O2B       -21.7170  -35.2780  -43.7030 O.co2     1 ADP601      0.0000 
      4 O3B       -22.6820  -32.9310  -43.6930 O.co2     1 ADP601      0.0000 
      5 PA        -20.4100  -32.2930  -45.9640 P.3       1 ADP601      0.0000 
      6 O1A       -20.4780  -32.9830  -47.3060 O.co2     1 ADP601      0.0000 
      7 O2A       -21.3800  -31.1820  -45.6440 O.co2     1 ADP601      0.0000 
      8 O3A       -20.5450  -33.4170  -44.8200 O.3       1 ADP601      0.0000 
      9 O5'       -18.9260  -31.6870  -45.8150 O.3       1 ADP601      0.0000 
     10 C5'       -18.5430  -30.7120  -46.7820 C.3       1 ADP601      0.0000 
     11 C4'       -17.2310  -30.0250  -46.4380 C.3       1 ADP601      0.0000 
     12 O4'       -16.1160  -30.8950  -46.6670 O.3       1 ADP601      0.0000 
     13 C3'       -17.0440  -28.8140  -47.3400 C.3       1 ADP601      0.0000 
     14 O3'       -16.9710  -27.6210  -46.5550 O.3       1 ADP601      0.0000 
     15 C2'       -15.7300  -29.0470  -48.0540 C.3       1 ADP601      0.0000 
     16 O2'       -14.9300  -27.8660  -48.0790 O.3       1 ADP601      0.0000 
     17 C1'       -15.0500  -30.1330  -47.2410 C.3       1 ADP601      0.0000 
     18 N9        -14.1510  -30.9260  -48.1160 N.pl3     1 ADP601      0.0000 
     19 C8        -14.4810  -31.9860  -48.8780 C.2       1 ADP601      0.0000 
     20 N7        -13.3980  -32.4560  -49.5520 N.2       1 ADP601      0.0000 
     21 C5        -12.3460  -31.6830  -49.2230 C.ar      1 ADP601      0.0000 
     22 C6        -10.9050  -31.6220  -49.5700 C.ar      1 ADP601      0.0000 
     23 N6        -10.3510  -32.5090  -50.4320 N.pl3     1 ADP601      0.0000 
     24 N1        -10.1600  -30.6500  -48.9970 N.ar      1 ADP601      0.0000 
     25 C2        -10.6920  -29.7610  -48.1380 C.ar      1 ADP601      0.0000 
     26 N3        -11.9880  -29.7580  -47.7800 N.ar      1 ADP601      0.0000 
     27 C4        -12.8500  -30.6770  -48.2770 C.ar      1 ADP601      0.0000 
@<TRIPOS>BOND
     1    1    2 ar   
     2    1    3 ar   
     3    1    4 ar   
     4    1    8 1    
     5    5    6 ar   
     6    5    7 ar   
     7    5    8 1    
     8    5    9 1    
     9    9   10 1    
    10   10   11 1    
    11   11   12 1    
    12   11   13 1    
    13   12   17 1    
    14   13   14 1    
    15   13   15 1    
    16   15   16 1    
    17   15   17 1    
    18   17   18 1    
    19   18   19 1    
    20   18   27 1    
    21   19   20 2    
    22   20   21 1    
    23   21   22 ar   
    24   21   27 ar   
    25   22   23 1    
    26   22   24 ar   
    27   24   25 ar   
    28   25   26 ar   
    29   26   27 ar   
@<TRIPOS>SUBSTRUCTURE
     1 ADP601      1 GROUP   
@<TRIPOS>SET
ATOM$ORANGE STATIC     ATOMS   COLORGROUP SYSTEM 
20 10 10 11 11 13 13 15 15 17 17 19 19 21 21 22 22 25 \
25 27 27 

