#    Name: 6s7r_7_ADP
#    Modification time : Fri May 22 19:40:12 2020

@<TRIPOS>MOLECULE
6s7r_7_ADP
   27    29     1     0     1
SMALL
NO_CHARGES


@<TRIPOS>ATOM
      1 PB        -43.0560  -27.5400  -68.9850 P.3       1 ADP601      0.0000 
      2 O1B       -43.8440  -26.3810  -69.5450 O.co2     1 ADP601      0.0000 
      3 O2B       -41.5570  -27.3620  -69.0470 O.co2     1 ADP601      0.0000 
      4 O3B       -43.5670  -28.0440  -67.6560 O.co2     1 ADP601      0.0000 
      5 PA        -42.6900  -30.2030  -69.7460 P.3       1 ADP601      0.0000 
      6 O1A       -41.1930  -30.0830  -69.9040 O.co2     1 ADP601      0.0000 
      7 O2A       -43.2620  -30.7550  -68.4610 O.co2     1 ADP601      0.0000 
      8 O3A       -43.3440  -28.7540  -70.0070 O.3       1 ADP601      0.0000 
      9 O5'       -43.2320  -31.1180  -70.9540 O.3       1 ADP601      0.0000 
     10 C5'       -42.7280  -32.4460  -71.0730 C.3       1 ADP601      0.0000 
     11 C4'       -43.7000  -33.3370  -71.8330 C.3       1 ADP601      0.0000 
     12 O4'       -43.6140  -33.1010  -73.2410 O.3       1 ADP601      0.0000 
     13 C3'       -43.3650  -34.8030  -71.6060 C.3       1 ADP601      0.0000 
     14 O3'       -44.4110  -35.4340  -70.8650 O.3       1 ADP601      0.0000 
     15 C2'       -43.2640  -35.4240  -72.9830 C.3       1 ADP601      0.0000 
     16 O2'       -44.1000  -36.5800  -73.0770 O.3       1 ADP601      0.0000 
     17 C1'       -43.7320  -34.3420  -73.9410 C.3       1 ADP601      0.0000 
     18 N9        -42.8910  -34.3710  -75.1630 N.pl3     1 ADP601      0.0000 
     19 C8        -41.6680  -33.8280  -75.3070 C.2       1 ADP601      0.0000 
     20 N7        -41.1810  -34.0480  -76.5560 N.2       1 ADP601      0.0000 
     21 C5        -42.1070  -34.7510  -77.2350 C.ar      1 ADP601      0.0000 
     22 C6        -42.2410  -35.3170  -78.5990 C.ar      1 ADP601      0.0000 
     23 N6        -41.2610  -35.1750  -79.5210 N.pl3     1 ADP601      0.0000 
     24 N1        -43.3770  -35.9830  -78.8970 N.ar      1 ADP601      0.0000 
     25 C2        -44.3650  -36.1360  -77.9970 C.ar      1 ADP601      0.0000 
     26 N3        -44.3120  -35.6520  -76.7440 N.ar      1 ADP601      0.0000 
     27 C4        -43.2300  -34.9620  -76.3100 C.ar      1 ADP601      0.0000 
@<TRIPOS>BOND
     1    1    2 ar   
     2    1    3 ar   
     3    1    4 ar   
     4    1    8 1    
     5    5    6 ar   
     6    5    7 ar   
     7    5    8 1    
     8    5    9 1    
     9    9   10 1    
    10   10   11 1    
    11   11   12 1    
    12   11   13 1    
    13   12   17 1    
    14   13   14 1    
    15   13   15 1    
    16   15   16 1    
    17   15   17 1    
    18   17   18 1    
    19   18   19 1    
    20   18   27 1    
    21   19   20 2    
    22   20   21 1    
    23   21   22 ar   
    24   21   27 ar   
    25   22   23 1    
    26   22   24 ar   
    27   24   25 ar   
    28   25   26 ar   
    29   26   27 ar   
@<TRIPOS>SUBSTRUCTURE
     1 ADP601      1 GROUP   
@<TRIPOS>SET
ATOM$ORANGE STATIC     ATOMS   COLORGROUP SYSTEM 
20 10 10 11 11 13 13 15 15 17 17 19 19 21 21 22 22 25 \
25 27 27 

