#    Name: 6s7r_3_ADP
#    Modification time : Fri May 22 19:39:52 2020

@<TRIPOS>MOLECULE
6s7r_3_ADP
   27    29     1     0     1
SMALL
NO_CHARGES


@<TRIPOS>ATOM
      1 PB          5.4070  -14.2410   13.2190 P.3       1 ADP601      0.0000 
      2 O1B         6.4090  -15.0580   12.4380 O.co2     1 ADP601      0.0000 
      3 O2B         5.4970  -14.4120   14.7170 O.co2     1 ADP601      0.0000 
      4 O3B         5.2880  -12.8040   12.7650 O.co2     1 ADP601      0.0000 
      5 PA          3.4400  -14.7100   11.3220 P.3       1 ADP601      0.0000 
      6 O1A         4.4450  -15.3270   10.3790 O.co2     1 ADP601      0.0000 
      7 O2A         3.0200  -13.2730   11.1340 O.co2     1 ADP601      0.0000 
      8 O3A         3.9830  -14.8880   12.8270 O.3       1 ADP601      0.0000 
      9 O5'         2.1040  -15.5980   11.2520 O.3       1 ADP601      0.0000 
     10 C5'         1.3470  -15.4870   10.0520 C.3       1 ADP601      0.0000 
     11 C4'         0.2770  -16.5580    9.9660 C.3       1 ADP601      0.0000 
     12 O4'        -0.7930  -16.2860   10.8750 O.3       1 ADP601      0.0000 
     13 C3'        -0.3210  -16.5540    8.5700 C.3       1 ADP601      0.0000 
     14 O3'         0.1230  -17.6990    7.8390 O.3       1 ADP601      0.0000 
     15 C2'        -1.8190  -16.5910    8.7790 C.3       1 ADP601      0.0000 
     16 O2'        -2.4170  -17.7080    8.1200 O.3       1 ADP601      0.0000 
     17 C1'        -2.0210  -16.7030   10.2780 C.3       1 ADP601      0.0000 
     18 N9         -3.1680  -15.8410   10.6480 N.pl3     1 ADP601      0.0000 
     19 C8         -3.1260  -14.5620   11.0610 C.2       1 ADP601      0.0000 
     20 N7         -4.3780  -14.0900   11.3020 N.2       1 ADP601      0.0000 
     21 C5         -5.2450  -15.0850   11.0350 C.ar      1 ADP601      0.0000 
     22 C6         -6.7150  -15.2710   11.0740 C.ar      1 ADP601      0.0000 
     23 N6         -7.5360  -14.2650   11.4600 N.pl3     1 ADP601      0.0000 
     24 N1         -7.2080  -16.4760   10.7120 N.ar      1 ADP601      0.0000 
     25 C2         -6.4040  -17.4820   10.3270 C.ar      1 ADP601      0.0000 
     26 N3         -5.0660  -17.3840   10.2670 N.ar      1 ADP601      0.0000 
     27 C4         -4.4400  -16.2330   10.6030 C.ar      1 ADP601      0.0000 
@<TRIPOS>BOND
     1    1    2 ar   
     2    1    3 ar   
     3    1    4 ar   
     4    1    8 1    
     5    5    6 ar   
     6    5    7 ar   
     7    5    8 1    
     8    5    9 1    
     9    9   10 1    
    10   10   11 1    
    11   11   12 1    
    12   11   13 1    
    13   12   17 1    
    14   13   14 1    
    15   13   15 1    
    16   15   16 1    
    17   15   17 1    
    18   17   18 1    
    19   18   19 1    
    20   18   27 1    
    21   19   20 2    
    22   20   21 1    
    23   21   22 ar   
    24   21   27 ar   
    25   22   23 1    
    26   22   24 ar   
    27   24   25 ar   
    28   25   26 ar   
    29   26   27 ar   
@<TRIPOS>SUBSTRUCTURE
     1 ADP601      1 GROUP   
@<TRIPOS>SET
ATOM$ORANGE STATIC     ATOMS   COLORGROUP SYSTEM 
20 10 10 11 11 13 13 15 15 17 17 19 19 21 21 22 22 25 \
25 27 27 

