#    Name: 6s7r_11_ADP
#    Modification time : Fri May 22 19:40:29 2020

@<TRIPOS>MOLECULE
6s7r_11_ADP
   27    29     1     0     1
SMALL
NO_CHARGES


@<TRIPOS>ATOM
      1 PB         -5.2270  -50.6430  -62.4050 P.3       1 ADP601      0.0000 
      2 O1B        -4.8540  -51.3650  -63.6780 O.co2     1 ADP601      0.0000 
      3 O2B        -4.2350  -50.8080  -61.2810 O.co2     1 ADP601      0.0000 
      4 O3B        -5.6870  -49.2190  -62.6090 O.co2     1 ADP601      0.0000 
      5 PA         -7.9320  -51.2070  -62.6870 P.3       1 ADP601      0.0000 
      6 O1A        -7.7340  -51.6520  -64.1160 O.co2     1 ADP601      0.0000 
      7 O2A        -8.4290  -49.8090  -62.4050 O.co2     1 ADP601      0.0000 
      8 O3A        -6.5470  -51.4130  -61.8920 O.3       1 ADP601      0.0000 
      9 O5'        -8.9780  -52.2180  -62.0010 O.3       1 ADP601      0.0000 
     10 C5'       -10.3540  -51.9990  -62.2980 C.3       1 ADP601      0.0000 
     11 C4'       -11.2170  -53.2040  -61.9600 C.3       1 ADP601      0.0000 
     12 O4'       -11.4980  -53.2440  -60.5580 O.3       1 ADP601      0.0000 
     13 C3'       -12.5490  -53.0880  -62.6830 C.3       1 ADP601      0.0000 
     14 O3'       -12.7140  -54.1920  -63.5770 O.3       1 ADP601      0.0000 
     15 C2'       -13.6080  -53.1360  -61.6040 C.3       1 ADP601      0.0000 
     16 O2'       -14.6420  -54.0580  -61.9510 O.3       1 ADP601      0.0000 
     17 C1'       -12.8700  -53.5940  -60.3580 C.3       1 ADP601      0.0000 
     18 N9        -13.4450  -52.9430  -59.1540 N.pl3     1 ADP601      0.0000 
     19 C8        -13.3080  -51.6530  -58.7930 C.2       1 ADP601      0.0000 
     20 N7        -13.9740  -51.3960  -57.6370 N.2       1 ADP601      0.0000 
     21 C5        -14.5590  -52.5430  -57.2420 C.ar      1 ADP601      0.0000 
     22 C6        -15.4120  -52.9790  -56.1100 C.ar      1 ADP601      0.0000 
     23 N6        -15.7850  -52.1130  -55.1370 N.pl3     1 ADP601      0.0000 
     24 N1        -15.8060  -54.2720  -56.0800 N.ar      1 ADP601      0.0000 
     25 C2        -15.4430  -55.1440  -57.0380 C.ar      1 ADP601      0.0000 
     26 N3        -14.6750  -54.8180  -58.0920 N.ar      1 ADP601      0.0000 
     27 C4        -14.2090  -53.5570  -58.2480 C.ar      1 ADP601      0.0000 
@<TRIPOS>BOND
     1    1    2 ar   
     2    1    3 ar   
     3    1    4 ar   
     4    1    8 1    
     5    5    6 ar   
     6    5    7 ar   
     7    5    8 1    
     8    5    9 1    
     9    9   10 1    
    10   10   11 1    
    11   11   12 1    
    12   11   13 1    
    13   12   17 1    
    14   13   14 1    
    15   13   15 1    
    16   15   16 1    
    17   15   17 1    
    18   17   18 1    
    19   18   19 1    
    20   18   27 1    
    21   19   20 2    
    22   20   21 1    
    23   21   22 ar   
    24   21   27 ar   
    25   22   23 1    
    26   22   24 ar   
    27   24   25 ar   
    28   25   26 ar   
    29   26   27 ar   
@<TRIPOS>SUBSTRUCTURE
     1 ADP601      1 GROUP   
@<TRIPOS>SET
ATOM$ORANGE STATIC     ATOMS   COLORGROUP SYSTEM 
20 10 10 11 11 13 13 15 15 17 17 19 19 21 21 22 22 25 \
25 27 27 

