#    Name: 6s7r_1_ADP
#    Modification time : Fri May 22 19:39:41 2020

@<TRIPOS>MOLECULE
6s7r_1_ADP
   27    29     1     0     1
SMALL
NO_CHARGES


@<TRIPOS>ATOM
      1 PB         22.4580    6.6340   -8.8100 P.3       1 ADP601      0.0000 
      2 O1B        22.3450    7.4550  -10.0730 O.co2     1 ADP601      0.0000 
      3 O2B        23.8630    6.2090   -8.4610 O.co2     1 ADP601      0.0000 
      4 O3B        21.6560    7.1730   -7.6490 O.co2     1 ADP601      0.0000 
      5 PA         20.1300    5.3010   -9.3990 P.3       1 ADP601      0.0000 
      6 O1A        19.8380    6.3060  -10.4880 O.co2     1 ADP601      0.0000 
      7 O2A        19.4520    5.4270   -8.0560 O.co2     1 ADP601      0.0000 
      8 O3A        21.7170    5.2550   -9.1730 O.3       1 ADP601      0.0000 
      9 O5'        19.7580    3.8630   -9.9970 O.3       1 ADP601      0.0000 
     10 C5'        18.4730    3.8160  -10.5900 C.3       1 ADP601      0.0000 
     11 C4'        18.0300    2.4060  -10.9070 C.3       1 ADP601      0.0000 
     12 O4'        18.4160    1.4350   -9.9280 O.3       1 ADP601      0.0000 
     13 C3'        16.5160    2.3890  -10.8900 C.3       1 ADP601      0.0000 
     14 O3'        15.9760    2.7730  -12.1530 O.3       1 ADP601      0.0000 
     15 C2'        16.1850    0.9630  -10.5100 C.3       1 ADP601      0.0000 
     16 O2'        15.6370    0.2330  -11.6080 O.3       1 ADP601      0.0000 
     17 C1'        17.5030    0.3430  -10.0780 C.3       1 ADP601      0.0000 
     18 N9         17.2200   -0.4470   -8.8550 N.pl3     1 ADP601      0.0000 
     19 C8         17.4060   -0.1110   -7.5650 C.2       1 ADP601      0.0000 
     20 N7         17.0000   -1.1180   -6.7430 N.2       1 ADP601      0.0000 
     21 C5         16.5390   -2.1200   -7.5170 C.ar      1 ADP601      0.0000 
     22 C6         15.9610   -3.4720   -7.3160 C.ar      1 ADP601      0.0000 
     23 N6         15.7830   -3.9870   -6.0770 N.pl3     1 ADP601      0.0000 
     24 N1         15.6160   -4.1770   -8.4160 N.ar      1 ADP601      0.0000 
     25 C2         15.7830   -3.6820   -9.6550 C.ar      1 ADP601      0.0000 
     26 N3         16.2970   -2.4730   -9.9130 N.ar      1 ADP601      0.0000 
     27 C4         16.6860   -1.6630   -8.9040 C.ar      1 ADP601      0.0000 
@<TRIPOS>BOND
     1    1    2 ar   
     2    1    3 ar   
     3    1    4 ar   
     4    1    8 1    
     5    5    6 ar   
     6    5    7 ar   
     7    5    8 1    
     8    5    9 1    
     9    9   10 1    
    10   10   11 1    
    11   11   12 1    
    12   11   13 1    
    13   12   17 1    
    14   13   14 1    
    15   13   15 1    
    16   15   16 1    
    17   15   17 1    
    18   17   18 1    
    19   18   19 1    
    20   18   27 1    
    21   19   20 2    
    22   20   21 1    
    23   21   22 ar   
    24   21   27 ar   
    25   22   23 1    
    26   22   24 ar   
    27   24   25 ar   
    28   25   26 ar   
    29   26   27 ar   
@<TRIPOS>SUBSTRUCTURE
     1 ADP601      1 GROUP   
@<TRIPOS>SET
ATOM$ORANGE STATIC     ATOMS   COLORGROUP SYSTEM 
20 10 10 11 11 13 13 15 15 17 17 19 19 21 21 22 22 25 \
25 27 27 

