#    Name: 5nel_1_NHT_CAVITY_N1_4
#    Modification time : Fri May 22 19:15:29 2020

@<TRIPOS>MOLECULE
5nel_1_NHT_CAVITY_N1_4
   92     0     7     0     0
SMALL
NO_CHARGES


@<TRIPOS>ATOM
      1 OG         20.6000   15.1300  126.5200 O.3       1 SER1        0.0000 
      2 OG         20.9400   15.9600  127.7300 O.3       1 SER1        0.0000 
      3 OG         22.9900   17.5400  127.9200 O.3       1 SER1        0.0000 
      4 OG         21.2900   16.7900  128.9300 O.3       1 SER1        0.0000 
      5 OG         21.5600   17.9600  128.0300 O.3       1 SER1        0.0000 
      6 O          21.2100   17.1300  126.8300 O.2       2 ALA2        0.0000 
      7 O          23.2700   18.7100  127.0300 O.2       2 ALA2        0.0000 
      8 O          23.5400   19.8900  126.1300 O.2       2 ALA2        0.0000 
      9 O          21.8300   19.1400  127.1400 O.2       2 ALA2        0.0000 
     10 O          22.1100   20.3100  126.2500 O.2       2 ALA2        0.0000 
     11 O          21.6300   17.6200  130.1300 O.2       2 ALA2        0.0000 
     12 O          20.2000   18.0400  130.2500 O.2       2 ALA2        0.0000 
     13 N          21.0900   21.2200  129.6600 N.am      2 ALA2        0.0000 
     14 N          19.6500   21.6500  129.7800 N.am      2 ALA2        0.0000 
     15 N          21.4300   22.0500  130.8600 N.am      2 ALA2        0.0000 
     16 N          21.7000   23.2300  129.9700 N.am      2 ALA2        0.0000 
     17 N          20.2700   23.6500  130.0900 N.am      2 ALA2        0.0000 
     18 N          18.8400   24.0700  130.2100 N.am      2 ALA2        0.0000 
     19 N          20.6100   24.4800  131.2900 N.am      2 ALA2        0.0000 
     20 N          19.1800   24.9000  131.4100 N.am      2 ALA2        0.0000 
     21 N          19.4500   26.0800  130.5200 N.am      2 ALA2        0.0000 
     22 OD1        19.5100   16.3800  127.8400 O.co2     3 ASP3        0.0000 
     23 OD1        19.8500   17.2100  129.0400 O.co2     3 ASP3        0.0000 
     24 OD1        21.3600   16.4400  131.0200 O.co2     3 ASP3        0.0000 
     25 OD1        19.8500   23.1700  126.8000 O.co2     3 ASP3        0.0000 
     26 OD1        20.1300   24.3400  125.9100 O.co2     3 ASP3        0.0000 
     27 OD1        20.4700   25.1700  127.1100 O.co2     3 ASP3        0.0000 
     28 OD1        19.0400   25.5900  127.2300 O.co2     3 ASP3        0.0000 
     29 OD1        17.8800   27.1900  126.4500 O.co2     3 ASP3        0.0000 
     30 OD1        19.3800   26.4200  128.4300 O.co2     3 ASP3        0.0000 
     31 OD1        18.2200   28.0200  127.6600 O.co2     3 ASP3        0.0000 
     32 NZ         19.9800   13.1200  126.2100 N.4       4 LYS4        0.0000 
     33 NZ         18.5400   13.5400  126.3300 N.4       4 LYS4        0.0000 
     34 NZ         18.8900   14.3700  127.5300 N.4       4 LYS4        0.0000 
     35 NZ         22.7900   16.0200  130.9000 N.4       4 LYS4        0.0000 
     36 NZ         22.4500   21.1400  127.4500 N.4       4 LYS4        0.0000 
     37 NZ         22.7200   22.3200  126.5600 N.4       4 LYS4        0.0000 
     38 NZ         22.7900   21.9700  128.6500 N.4       4 LYS4        0.0000 
     39 NZ         23.0700   23.1500  127.7600 N.4       4 LYS4        0.0000 
     40 CZ         20.2500   14.3000  125.3200 C.ar      5 PHE5        0.0000 
     41 CZ         19.0900   15.8900  124.5500 C.ar      5 PHE5        0.0000 
     42 CZ         19.4400   16.7300  125.7500 C.ar      5 PHE5        0.0000 
     43 CZ         17.7300   15.9700  126.7600 C.ar      5 PHE5        0.0000 
     44 CZ         18.0000   17.1500  125.8700 C.ar      5 PHE5        0.0000 
     45 CZ         18.2700   18.3200  124.9800 C.ar      5 PHE5        0.0000 
     46 CZ         19.7800   17.5600  126.9500 C.ar      5 PHE5        0.0000 
     47 CZ         20.0500   18.7300  126.0600 C.ar      5 PHE5        0.0000 
     48 CZ         18.0700   16.8000  127.9600 C.ar      5 PHE5        0.0000 
     49 CZ         18.3500   17.9800  127.0700 C.ar      5 PHE5        0.0000 
     50 CZ         18.6200   19.1500  126.1800 C.ar      5 PHE5        0.0000 
     51 CZ         20.4000   19.5600  127.2600 C.ar      5 PHE5        0.0000 
     52 CZ         20.6700   20.7400  126.3700 C.ar      5 PHE5        0.0000 
     53 CZ         20.9400   21.9100  125.4800 C.ar      5 PHE5        0.0000 
     54 CZ         18.6900   18.8100  128.2700 C.ar      5 PHE5        0.0000 
     55 CZ         18.9600   19.9800  127.3800 C.ar      5 PHE5        0.0000 
     56 CZ         19.2400   21.1600  126.4900 C.ar      5 PHE5        0.0000 
     57 CZ         19.3100   20.8200  128.5800 C.ar      5 PHE5        0.0000 
     58 CZ         21.9700   18.4500  131.3300 C.ar      5 PHE5        0.0000 
     59 CZ         22.2500   19.6200  130.4400 C.ar      5 PHE5        0.0000 
     60 CZ         22.5200   20.8000  129.5500 C.ar      5 PHE5        0.0000 
     61 CZ         23.1400   22.8000  129.8500 C.ar      5 PHE5        0.0000 
     62 CZ         18.0200   26.5000  130.6400 C.ar      5 PHE5        0.0000 
     63 CA         23.0600   17.1900  130.0100 C.3       6 GLY6        0.0000 
     64 CA         23.6100   19.5400  128.2300 C.3       6 GLY6        0.0000 
     65 CA         21.9000   18.7900  129.2400 C.3       6 GLY6        0.0000 
     66 CA         20.4700   19.2200  129.3500 C.3       6 GLY6        0.0000 
     67 CA         19.0300   19.6400  129.4700 C.3       6 GLY6        0.0000 
     68 CA         20.8100   20.0500  130.5500 C.3       6 GLY6        0.0000 
     69 CA         18.2200   22.0700  129.9000 C.3       6 GLY6        0.0000 
     70 CA         21.9800   24.4000  129.0800 C.3       6 GLY6        0.0000 
     71 CA         20.8200   26.0000  128.3100 C.3       6 GLY6        0.0000 
     72 CA         16.5100   27.2700  128.6700 C.3       6 GLY6        0.0000 
     73 CA         14.8100   26.5200  129.6700 C.3       6 GLY6        0.0000 
     74 DU         18.8200   14.7200  125.4400 H         7 CUB7        0.0000 
     75 DU         19.1600   15.5500  126.6400 H         7 CUB7        0.0000 
     76 DU         20.1200   18.3900  128.1500 H         7 CUB7        0.0000 
     77 DU         22.1800   19.9700  128.3400 H         7 CUB7        0.0000 
     78 DU         20.7400   20.3900  128.4600 H         7 CUB7        0.0000 
     79 DU         21.0200   21.5700  127.5700 H         7 CUB7        0.0000 
     80 DU         21.2900   22.7400  126.6800 H         7 CUB7        0.0000 
     81 DU         19.5800   21.9900  127.6900 H         7 CUB7        0.0000 
     82 DU         21.3600   22.4000  128.7700 H         7 CUB7        0.0000 
     83 DU         21.6300   23.5700  127.8800 H         7 CUB7        0.0000 
     84 DU         19.9300   22.8200  128.8900 H         7 CUB7        0.0000 
     85 DU         20.2000   24.0000  128.0000 H         7 CUB7        0.0000 
     86 DU         18.4900   23.2400  129.0100 H         7 CUB7        0.0000 
     87 DU         18.7600   24.4200  128.1200 H         7 CUB7        0.0000 
     88 DU         20.5400   24.8300  129.2000 H         7 CUB7        0.0000 
     89 DU         19.1100   25.2500  129.3200 H         7 CUB7        0.0000 
     90 DU         17.4000   24.5000  130.3300 H         7 CUB7        0.0000 
     91 DU         17.6800   25.6700  129.4400 H         7 CUB7        0.0000 
     92 DU         17.9500   26.8500  128.5500 H         7 CUB7        0.0000 
@<TRIPOS>BOND
@<TRIPOS>SUBSTRUCTURE
     1 SER1        1 GROUP   
     2 ALA2        6 GROUP   
     3 ASP3       22 GROUP   
     4 LYS4       32 GROUP   
     5 PHE5       40 GROUP   
     6 GLY6       63 GROUP   
     7 CUB7       74 GROUP   
@<TRIPOS>SET

