#    Name: 5nel_2_NHT
#    Modification time : Fri May 22 19:15:37 2020

@<TRIPOS>MOLECULE
5nel_2_NHT
   16    17     1     0     0
SMALL
NO_CHARGES


@<TRIPOS>ATOM
      1 C1         15.2100   22.6940  107.5750 C.3       1 NHT302      0.0000 
      2 C2         14.9580   23.3020  108.9920 C.3       1 NHT302      0.0000 
      3 C3         13.9910   24.4780  109.0120 C.3       1 NHT302      0.0000 
      4 C4         14.1700   25.3660  107.8560 C.3       1 NHT302      0.0000 
      5 C5         13.8460   24.5190  106.6060 C.3       1 NHT302      0.0000 
      6 C6         13.5510   25.3530  105.3620 C.3       1 NHT302      0.0000 
      7 C7         13.6150   21.1400  108.9580 C.2       1 NHT302      0.0000 
      8 C10        11.4870   17.9800  109.1450 C.3       1 NHT302      0.0000 
      9 N2         13.9690   22.3370  109.8020 N.pl3     1 NHT302      0.0000 
     10 O3         14.1650   25.1780  110.2390 O.3       1 NHT302      0.0000 
     11 O4         13.4120   26.5300  107.9380 O.3       1 NHT302      0.0000 
     12 O5         15.0360   23.6360  106.4270 O.3       1 NHT302      0.0000 
     13 N1         12.7550   20.0870  109.3410 N.pl3     1 NHT302      0.0000 
     14 O6         14.1540   26.6820  105.5070 O.3       1 NHT302      0.0000 
     15 S1         14.4060   21.2890  107.5370 S.3       1 NHT302      0.0000 
     16 C9         12.4680   18.9690  108.4790 C.3       1 NHT302      0.0000 
@<TRIPOS>BOND
     1    1    2 1    
     2    1   12 1    
     3    1   15 1    
     4    2    3 1    
     5    2    9 1    
     6    3    4 1    
     7    3   10 1    
     8    4    5 1    
     9    4   11 1    
    10    5    6 1    
    11    5   12 1    
    12    6   14 1    
    13    7    9 1    
    14    7   13 2    
    15    7   15 1    
    16    8   16 1    
    17   13   16 1    
@<TRIPOS>SUBSTRUCTURE
     1 NHT302      1 GROUP   
@<TRIPOS>SET

