#    Name: 5nel_1_NHT
#    Modification time : Fri May 22 19:15:28 2020

@<TRIPOS>MOLECULE
5nel_1_NHT
   16    17     1     0     0
SMALL
NO_CHARGES


@<TRIPOS>ATOM
      1 C1         21.3050   19.3660  128.6370 C.3       1 NHT302      0.0000 
      2 C2         20.2430   18.8500  127.6100 C.3       1 NHT302      0.0000 
      3 C3         19.3730   17.6910  128.0830 C.3       1 NHT302      0.0000 
      4 C4         20.1670   16.7070  128.8490 C.3       1 NHT302      0.0000 
      5 C5         20.7460   17.4170  130.0940 C.3       1 NHT302      0.0000 
      6 C6         21.2460   16.4050  131.1310 C.3       1 NHT302      0.0000 
      7 C7         19.4170   21.1620  128.3160 C.2       1 NHT302      0.0000 
      8 C10        17.3710   24.2930  127.6370 C.3       1 NHT302      0.0000 
      9 N2         19.1250   19.9900  127.3990 N.pl3     1 NHT302      0.0000 
     10 O3         18.7940   17.1050  126.9180 O.3       1 NHT302      0.0000 
     11 O4         19.4740   15.5660  129.2480 O.3       1 NHT302      0.0000 
     12 O5         21.8150   18.3590  129.6220 O.3       1 NHT302      0.0000 
     13 N1         18.7110   22.3840  128.4680 N.pl3     1 NHT302      0.0000 
     14 O6         21.8660   15.2810  130.4280 O.3       1 NHT302      0.0000 
     15 S1         20.7590   20.7940  129.1720 S.3       1 NHT302      0.0000 
     16 C9         17.5270   22.7530  127.7350 C.3       1 NHT302      0.0000 
@<TRIPOS>BOND
     1    1    2 1    
     2    1   12 1    
     3    1   15 1    
     4    2    3 1    
     5    2    9 1    
     6    3    4 1    
     7    3   10 1    
     8    4    5 1    
     9    4   11 1    
    10    5    6 1    
    11    5   12 1    
    12    6   14 1    
    13    7    9 1    
    14    7   13 2    
    15    7   15 1    
    16    8   16 1    
    17   13   16 1    
@<TRIPOS>SUBSTRUCTURE
     1 NHT302      1 GROUP   
@<TRIPOS>SET

