#    Name: 5nel_2_NHT_CAVITY_N1_4
#    Modification time : Fri May 22 19:15:38 2020

@<TRIPOS>MOLECULE
5nel_2_NHT_CAVITY_N1_4
   76     0     7     0     0
SMALL
NO_CHARGES


@<TRIPOS>ATOM
      1 OG         15.3800   24.2800  106.7000 O.3       1 SER1        0.0000 
      2 OG         15.6600   25.4500  105.8100 O.3       1 SER1        0.0000 
      3 OG         15.7300   25.1100  107.9000 O.3       1 SER1        0.0000 
      4 OG         14.2900   25.5300  108.0200 O.3       1 SER1        0.0000 
      5 OG         14.6400   26.3600  109.2200 O.3       1 SER1        0.0000 
      6 N          13.5300   18.2600  105.7700 N.am      2 ALA2        0.0000 
      7 N          13.8000   19.4400  104.8800 N.am      2 ALA2        0.0000 
      8 N          13.8800   19.0900  106.9700 N.am      2 ALA2        0.0000 
      9 N          14.1500   20.2700  106.0800 N.am      2 ALA2        0.0000 
     10 N          12.1700   18.3400  107.9800 N.am      2 ALA2        0.0000 
     11 N          12.4400   19.5200  107.0900 N.am      2 ALA2        0.0000 
     12 O          13.6100   23.8700  105.6200 O.2       2 ALA2        0.0000 
     13 O          16.2700   21.5100  108.3600 O.2       2 ALA2        0.0000 
     14 O          16.5500   22.6800  107.4700 O.2       2 ALA2        0.0000 
     15 O          12.5200   25.1300  106.9400 O.2       2 ALA2        0.0000 
     16 O          15.4600   23.9300  108.7900 O.2       2 ALA2        0.0000 
     17 O          14.3700   25.1900  110.1100 O.2       2 ALA2        0.0000 
     18 OD1        11.5500   16.3400  107.6700 O.co2     3 ASP3        0.0000 
     19 OD1        13.0600   15.5700  109.6400 O.co2     3 ASP3        0.0000 
     20 OD1        15.1100   17.1500  109.8400 O.co2     3 ASP3        0.0000 
     21 OD1        15.4500   17.9800  111.0400 O.co2     3 ASP3        0.0000 
     22 OD1        15.7300   19.1600  110.1400 O.co2     3 ASP3        0.0000 
     23 OD1        14.2900   19.5800  110.2600 O.co2     3 ASP3        0.0000 
     24 OD1        13.9500   24.7000  106.8200 O.co2     3 ASP3        0.0000 
     25 OD1        14.2200   25.8800  105.9300 O.co2     3 ASP3        0.0000 
     26 OD1        12.8600   25.9600  108.1400 O.co2     3 ASP3        0.0000 
     27 OD1        13.2000   26.7900  109.3400 O.co2     3 ASP3        0.0000 
     28 NZ         16.7400   18.2500  106.7300 N.4       4 LYS4        0.0000 
     29 NZ         17.0200   19.4200  105.8400 N.4       4 LYS4        0.0000 
     30 NZ         17.0900   19.0800  107.9300 N.4       4 LYS4        0.0000 
     31 NZ         15.9300   20.6800  107.1600 N.4       4 LYS4        0.0000 
     32 NZ         13.8800   25.0500  104.7300 N.4       4 LYS4        0.0000 
     33 NZ         17.4300   19.9100  109.1400 N.4       4 LYS4        0.0000 
     34 NZ         17.7100   21.0800  108.2400 N.4       4 LYS4        0.0000 
     35 NZ         13.5500   27.6200  110.5400 N.4       4 LYS4        0.0000 
     36 CZ         15.2400   19.0100  104.7600 C.ar      5 PHE5        0.0000 
     37 CZ         15.5800   19.8400  105.9600 C.ar      5 PHE5        0.0000 
     38 CZ         16.2000   21.8500  106.2700 C.ar      5 PHE5        0.0000 
     39 CZ         14.7700   22.2700  106.3900 C.ar      5 PHE5        0.0000 
     40 CZ         15.0400   23.4500  105.5000 C.ar      5 PHE5        0.0000 
     41 CZ         16.0000   20.3300  109.2500 C.ar      5 PHE5        0.0000 
     42 CZ         13.1300   21.1800  109.4900 C.ar      5 PHE5        0.0000 
     43 CZ         13.4000   22.3500  108.6000 C.ar      5 PHE5        0.0000 
     44 CZ         14.9100   21.5800  110.5700 C.ar      5 PHE5        0.0000 
     45 CZ         15.1800   22.7600  109.6800 C.ar      5 PHE5        0.0000 
     46 CZ         13.7500   23.1800  109.8000 C.ar      5 PHE5        0.0000 
     47 CZ         14.0200   24.3600  108.9100 C.ar      5 PHE5        0.0000 
     48 CZ         12.5900   24.7800  109.0300 C.ar      5 PHE5        0.0000 
     49 CZ         14.0900   24.0100  111.0000 C.ar      5 PHE5        0.0000 
     50 CZ         12.9300   25.6100  110.2300 C.ar      5 PHE5        0.0000 
     51 CZ         14.7100   26.0200  111.3100 C.ar      5 PHE5        0.0000 
     52 CA         14.6900   16.6600  106.5400 C.3       6 GLY6        0.0000 
     53 CA         12.7100   14.7400  108.4400 C.3       6 GLY6        0.0000 
     54 CA         12.9800   15.9100  107.5500 C.3       6 GLY6        0.0000 
     55 CA         14.7600   16.3200  108.6300 C.3       6 GLY6        0.0000 
     56 CA         15.3100   24.6200  104.6100 C.3       6 GLY6        0.0000 
     57 CA         12.7900   20.3500  108.2900 C.3       6 GLY6        0.0000 
     58 CA         13.0600   21.5200  107.4000 C.3       6 GLY6        0.0000 
     59 CA         13.3300   22.7000  106.5100 C.3       6 GLY6        0.0000 
     60 CA         16.8200   23.8600  106.5800 C.3       6 GLY6        0.0000 
     61 CA         13.6800   23.5300  107.7100 C.3       6 GLY6        0.0000 
     62 DU         14.9700   17.8400  105.6500 H         7 CUB7        0.0000 
     63 DU         13.2600   17.0900  106.6600 H         7 CUB7        0.0000 
     64 DU         15.3100   18.6700  106.8500 H         7 CUB7        0.0000 
     65 DU         13.3300   16.7400  108.7500 H         7 CUB7        0.0000 
     66 DU         13.6000   17.9200  107.8600 H         7 CUB7        0.0000 
     67 DU         15.3800   18.3200  108.9400 H         7 CUB7        0.0000 
     68 DU         15.6500   19.5000  108.0500 H         7 CUB7        0.0000 
     69 DU         13.6700   17.5700  109.9500 H         7 CUB7        0.0000 
     70 DU         13.9500   18.7500  109.0600 H         7 CUB7        0.0000 
     71 DU         14.2200   19.9200  108.1700 H         7 CUB7        0.0000 
     72 DU         14.4900   21.1000  107.2800 H         7 CUB7        0.0000 
     73 DU         14.5600   20.7500  109.3700 H         7 CUB7        0.0000 
     74 DU         14.8400   21.9300  108.4800 H         7 CUB7        0.0000 
     75 DU         15.1100   23.1000  107.5900 H         7 CUB7        0.0000 
     76 DU         13.2800   26.4400  111.4300 H         7 CUB7        0.0000 
@<TRIPOS>BOND
@<TRIPOS>SUBSTRUCTURE
     1 SER1        1 GROUP   
     2 ALA2        6 GROUP   
     3 ASP3       18 GROUP   
     4 LYS4       28 GROUP   
     5 PHE5       36 GROUP   
     6 GLY6       52 GROUP   
     7 CUB7       62 GROUP   
@<TRIPOS>SET

