#    Name: 6gxu_14_DMF
#    Modification time : Fri May 22 19:30:46 2020

@<TRIPOS>MOLECULE
6gxu_14_DMF
    5     4     1     0     0
SMALL
NO_CHARGES


@<TRIPOS>ATOM
      1 C1         41.0310   22.2590   43.5620 C.3       1 DMF506      0.0000 
      2 C2         43.2240   21.1270   44.1540 C.3       1 DMF506      0.0000 
      3 C          43.0730   22.7800   42.3510 C.2       1 DMF506      0.0000 
      4 O          43.6300   23.8550   42.5940 O.2       1 DMF506      0.0000 
      5 N          42.4750   22.0860   43.3250 N.am      1 DMF506      0.0000 
@<TRIPOS>BOND
     1    1    5 1    
     2    2    5 1    
     3    3    4 2    
     4    3    5 am   
@<TRIPOS>SUBSTRUCTURE
     1 DMF506      1 GROUP   
@<TRIPOS>SET

