#    Name: 6gxu_14_DMF_CAVITY_N1_4
#    Modification time : Fri May 22 19:30:47 2020

@<TRIPOS>MOLECULE
6gxu_14_DMF_CAVITY_N1_4
   49     0     6     0     0
SMALL
NO_CHARGES


@<TRIPOS>ATOM
      1 OG         42.6400   24.2500   38.9800 O.3       1 SER1        0.0000 
      2 OG         37.6600   24.3000   43.7200 O.3       1 SER1        0.0000 
      3 OG         41.6400   22.8300   42.2100 O.3       1 SER1        0.0000 
      4 OG         42.9700   22.3400   41.7100 O.3       1 SER1        0.0000 
      5 OG         44.2900   21.8400   41.2100 O.3       1 SER1        0.0000 
      6 OG         43.1400   23.6100   40.9300 O.3       1 SER1        0.0000 
      7 OG         44.4700   23.1200   40.4300 O.3       1 SER1        0.0000 
      8 OG         43.3200   24.8800   40.1600 O.3       1 SER1        0.0000 
      9 OG         44.6400   24.3900   39.6500 O.3       1 SER1        0.0000 
     10 OG         38.1700   23.6500   45.6700 O.3       1 SER1        0.0000 
     11 OG         39.4900   23.1600   45.1700 O.3       1 SER1        0.0000 
     12 N          40.1400   22.0400   43.4900 N.am      2 ALA2        0.0000 
     13 O          38.9900   23.8100   43.2100 O.2       2 ALA2        0.0000 
     14 O          40.3100   23.3200   42.7100 O.2       2 ALA2        0.0000 
     15 O          45.7900   22.6300   39.9300 O.2       2 ALA2        0.0000 
     16 N          40.8200   22.6700   44.6700 N.am      2 ALA2        0.0000 
     17 N          43.4700   21.6900   43.6700 N.am      2 ALA2        0.0000 
     18 N          43.6400   22.9600   42.8900 N.am      2 ALA2        0.0000 
     19 O          39.8400   25.7000   43.6200 O.2       2 ALA2        0.0000 
     20 O          44.1700   26.7800   40.5600 O.2       2 ALA2        0.0000 
     21 O          45.5000   26.2900   40.0600 O.2       2 ALA2        0.0000 
     22 O          44.8500   27.4000   41.7400 O.2       2 ALA2        0.0000 
     23 NZ         42.1400   22.1800   44.1700 N.4       3 LYS4        0.0000 
     24 NZ         40.9900   23.9400   43.8900 N.4       3 LYS4        0.0000 
     25 NZ         42.3200   23.4500   43.3900 N.4       3 LYS4        0.0000 
     26 NZ         40.3500   25.0600   45.5800 N.4       3 LYS4        0.0000 
     27 NZ         43.0000   24.0800   44.5700 N.4       3 LYS4        0.0000 
     28 NZ         43.1700   25.3500   43.8000 N.4       3 LYS4        0.0000 
     29 CZ         40.4900   24.5900   41.9400 C.ar      4 PHE5        0.0000 
     30 CZ         41.8200   24.1000   41.4300 C.ar      4 PHE5        0.0000 
     31 CZ         40.6700   25.8600   41.1600 C.ar      4 PHE5        0.0000 
     32 CZ         41.9900   25.3700   40.6600 C.ar      4 PHE5        0.0000 
     33 CZ         41.1700   25.2100   43.1200 C.ar      4 PHE5        0.0000 
     34 CZ         41.3400   26.4900   42.3400 C.ar      4 PHE5        0.0000 
     35 CA         41.4600   21.5500   42.9900 C.3       5 GLY6        0.0000 
     36 CA         42.7900   21.0600   42.4900 C.3       5 GLY6        0.0000 
     37 CA         45.1500   23.7400   41.6100 C.3       5 GLY6        0.0000 
     38 CA         45.3200   25.0100   40.8400 C.3       5 GLY6        0.0000 
     39 CA         46.6500   24.5200   40.3300 C.3       5 GLY6        0.0000 
     40 CA         42.8500   27.2700   41.0600 C.3       5 GLY6        0.0000 
     41 CA         41.8500   25.8400   44.3000 C.3       5 GLY6        0.0000 
     42 CA         42.0200   27.1100   43.5200 C.3       5 GLY6        0.0000 
     43 CA         43.3500   26.6200   43.0200 C.3       5 GLY6        0.0000 
     44 DU         43.4900   26.1500   39.3800 H         6 CUB7        0.0000 
     45 DU         39.6700   24.4300   44.4000 H         6 CUB7        0.0000 
     46 DU         42.4900   24.7200   42.6200 H         6 CUB7        0.0000 
     47 DU         43.8200   24.2300   42.1100 H         6 CUB7        0.0000 
     48 DU         42.6700   26.0000   41.8400 H         6 CUB7        0.0000 
     49 DU         44.0000   25.5100   41.3400 H         6 CUB7        0.0000 
@<TRIPOS>BOND
@<TRIPOS>SUBSTRUCTURE
     1 SER1        1 GROUP   
     2 ALA2       12 GROUP   
     3 LYS4       23 GROUP   
     4 PHE5       29 GROUP   
     5 GLY6       35 GROUP   
     6 CUB7       44 GROUP   
@<TRIPOS>SET

