#    Name: 6gxu_14_DMF_CAVITY_N1_6
#    Modification time : Fri May 22 19:30:47 2020

@<TRIPOS>MOLECULE
6gxu_14_DMF_CAVITY_N1_6
   96     0     6     0     0
SMALL
NO_CHARGES


@<TRIPOS>ATOM
      1 OG         42.6400   24.2500   38.9800 O.3       1 SER1        0.0000 
      2 OG         36.3400   24.7900   44.2200 O.3       1 SER1        0.0000 
      3 OG         37.6600   24.3000   43.7200 O.3       1 SER1        0.0000 
      4 OG         41.6400   22.8300   42.2100 O.3       1 SER1        0.0000 
      5 OG         42.9700   22.3400   41.7100 O.3       1 SER1        0.0000 
      6 OG         44.2900   21.8400   41.2100 O.3       1 SER1        0.0000 
      7 OG         43.1400   23.6100   40.9300 O.3       1 SER1        0.0000 
      8 OG         44.4700   23.1200   40.4300 O.3       1 SER1        0.0000 
      9 OG         43.3200   24.8800   40.1600 O.3       1 SER1        0.0000 
     10 OG         44.6400   24.3900   39.6500 O.3       1 SER1        0.0000 
     11 OG         36.8400   24.1400   46.1800 O.3       1 SER1        0.0000 
     12 OG         38.1700   23.6500   45.6700 O.3       1 SER1        0.0000 
     13 OG         39.4900   23.1600   45.1700 O.3       1 SER1        0.0000 
     14 OG         38.3400   24.9200   44.9000 O.3       1 SER1        0.0000 
     15 N          40.1400   22.0400   43.4900 N.am      2 ALA2        0.0000 
     16 O          38.9900   23.8100   43.2100 O.2       2 ALA2        0.0000 
     17 O          40.3100   23.3200   42.7100 O.2       2 ALA2        0.0000 
     18 O          36.5100   26.0600   43.4400 O.2       2 ALA2        0.0000 
     19 O          37.8400   25.5700   42.9400 O.2       2 ALA2        0.0000 
     20 O          45.7900   22.6300   39.9300 O.2       2 ALA2        0.0000 
     21 O          38.0100   26.8400   42.1600 O.2       2 ALA2        0.0000 
     22 O          39.3400   26.3500   41.6600 O.2       2 ALA2        0.0000 
     23 N          42.3400   27.9100   39.1000 N.am      2 ALA2        0.0000 
     24 O          43.6700   27.4200   38.6000 O.2       2 ALA2        0.0000 
     25 N          40.8200   22.6700   44.6700 N.am      2 ALA2        0.0000 
     26 N          43.4700   21.6900   43.6700 N.am      2 ALA2        0.0000 
     27 N          43.6400   22.9600   42.8900 N.am      2 ALA2        0.0000 
     28 O          39.8400   25.7000   43.6200 O.2       2 ALA2        0.0000 
     29 O          44.1700   26.7800   40.5600 O.2       2 ALA2        0.0000 
     30 O          45.5000   26.2900   40.0600 O.2       2 ALA2        0.0000 
     31 O          43.0200   28.5400   40.2800 O.2       2 ALA2        0.0000 
     32 O          44.8500   27.4000   41.7400 O.2       2 ALA2        0.0000 
     33 O          45.0300   28.6700   40.9600 O.2       2 ALA2        0.0000 
     34 NZ         44.1400   25.0300   37.7000 N.4       3 LYS4        0.0000 
     35 NZ         45.4700   24.5400   37.1900 N.4       3 LYS4        0.0000 
     36 NZ         44.8200   25.6600   38.8800 N.4       3 LYS4        0.0000 
     37 NZ         46.1500   25.1700   38.3800 N.4       3 LYS4        0.0000 
     38 NZ         45.0000   26.9300   38.1000 N.4       3 LYS4        0.0000 
     39 NZ         42.1400   22.1800   44.1700 N.4       3 LYS4        0.0000 
     40 NZ         40.9900   23.9400   43.8900 N.4       3 LYS4        0.0000 
     41 NZ         42.3200   23.4500   43.3900 N.4       3 LYS4        0.0000 
     42 NZ         40.3500   25.0600   45.5800 N.4       3 LYS4        0.0000 
     43 NZ         43.0000   24.0800   44.5700 N.4       3 LYS4        0.0000 
     44 NZ         43.1700   25.3500   43.8000 N.4       3 LYS4        0.0000 
     45 CZ         35.6600   24.1600   43.0400 C.ar      4 PHE5        0.0000 
     46 CZ         40.4900   24.5900   41.9400 C.ar      4 PHE5        0.0000 
     47 CZ         41.8200   24.1000   41.4300 C.ar      4 PHE5        0.0000 
     48 CZ         40.6700   25.8600   41.1600 C.ar      4 PHE5        0.0000 
     49 CZ         41.9900   25.3700   40.6600 C.ar      4 PHE5        0.0000 
     50 CZ         39.5200   27.6200   40.8800 C.ar      4 PHE5        0.0000 
     51 CZ         40.8400   27.1300   40.3800 C.ar      4 PHE5        0.0000 
     52 CZ         42.1700   26.6400   39.8800 C.ar      4 PHE5        0.0000 
     53 CZ         36.6600   22.8700   46.9500 C.ar      4 PHE5        0.0000 
     54 CZ         41.1700   25.2100   43.1200 C.ar      4 PHE5        0.0000 
     55 CZ         41.3400   26.4900   42.3400 C.ar      4 PHE5        0.0000 
     56 CA         43.9600   23.7600   38.4700 C.3       5 GLY6        0.0000 
     57 CA         45.2900   23.2700   37.9700 C.3       5 GLY6        0.0000 
     58 CA         41.4900   26.0100   38.7000 C.3       5 GLY6        0.0000 
     59 CA         42.8100   25.5200   38.2000 C.3       5 GLY6        0.0000 
     60 CA         42.9900   26.7900   37.4200 C.3       5 GLY6        0.0000 
     61 CA         41.4600   21.5500   42.9900 C.3       5 GLY6        0.0000 
     62 CA         42.7900   21.0600   42.4900 C.3       5 GLY6        0.0000 
     63 CA         45.9700   23.9000   39.1500 C.3       5 GLY6        0.0000 
     64 CA         45.1500   23.7400   41.6100 C.3       5 GLY6        0.0000 
     65 CA         45.3200   25.0100   40.8400 C.3       5 GLY6        0.0000 
     66 CA         46.6500   24.5200   40.3300 C.3       5 GLY6        0.0000 
     67 CA         40.1900   28.2500   42.0600 C.3       5 GLY6        0.0000 
     68 CA         41.5200   27.7600   41.5600 C.3       5 GLY6        0.0000 
     69 CA         42.8500   27.2700   41.0600 C.3       5 GLY6        0.0000 
     70 CA         41.7000   29.0300   40.7800 C.3       5 GLY6        0.0000 
     71 CA         38.6700   23.0100   47.6300 C.3       5 GLY6        0.0000 
     72 CA         40.5200   26.3300   44.8000 C.3       5 GLY6        0.0000 
     73 CA         41.8500   25.8400   44.3000 C.3       5 GLY6        0.0000 
     74 CA         40.7000   27.6000   44.0200 C.3       5 GLY6        0.0000 
     75 CA         42.0200   27.1100   43.5200 C.3       5 GLY6        0.0000 
     76 CA         43.3500   26.6200   43.0200 C.3       5 GLY6        0.0000 
     77 CA         40.8700   28.8700   43.2400 C.3       5 GLY6        0.0000 
     78 CA         43.5300   27.8900   42.2400 C.3       5 GLY6        0.0000 
     79 CA         46.1800   26.9100   41.2400 C.3       5 GLY6        0.0000 
     80 CA         39.3500   23.6400   48.8100 C.3       5 GLY6        0.0000 
     81 CA         41.2000   26.9600   45.9800 C.3       5 GLY6        0.0000 
     82 DU         43.4900   26.1500   39.3800 H         6 CUB7        0.0000 
     83 DU         37.0100   25.4100   45.4000 H         6 CUB7        0.0000 
     84 DU         39.6700   24.4300   44.4000 H         6 CUB7        0.0000 
     85 DU         37.1900   26.6900   44.6200 H         6 CUB7        0.0000 
     86 DU         38.5200   26.2000   44.1200 H         6 CUB7        0.0000 
     87 DU         42.4900   24.7200   42.6200 H         6 CUB7        0.0000 
     88 DU         43.8200   24.2300   42.1100 H         6 CUB7        0.0000 
     89 DU         38.6900   27.4700   43.3400 H         6 CUB7        0.0000 
     90 DU         40.0200   26.9800   42.8400 H         6 CUB7        0.0000 
     91 DU         42.6700   26.0000   41.8400 H         6 CUB7        0.0000 
     92 DU         44.0000   25.5100   41.3400 H         6 CUB7        0.0000 
     93 DU         37.5200   24.7700   47.3600 H         6 CUB7        0.0000 
     94 DU         38.8400   24.2800   46.8600 H         6 CUB7        0.0000 
     95 DU         39.0200   25.5500   46.0800 H         6 CUB7        0.0000 
     96 DU         39.2000   26.8200   45.3000 H         6 CUB7        0.0000 
@<TRIPOS>BOND
@<TRIPOS>SUBSTRUCTURE
     1 SER1        1 GROUP   
     2 ALA2       15 GROUP   
     3 LYS4       34 GROUP   
     4 PHE5       45 GROUP   
     5 GLY6       56 GROUP   
     6 CUB7       82 GROUP   
@<TRIPOS>SET

