#    Name: 6dj5_1_G52
#    Modification time : Fri May 22 19:36:59 2020

@<TRIPOS>MOLECULE
6dj5_1_G52
   42    46     1     0     0
SMALL
NO_CHARGES


@<TRIPOS>ATOM
      1 C2         20.9830   27.6060   15.0380 C.ar      1 G52201      0.0000 
      2 C3         19.6300   27.5470   14.6920 C.ar      1 G52201      0.0000 
      3 C4         18.8650   26.4170   14.9590 C.ar      1 G52201      0.0000 
      4 C5         19.4480   25.3420   15.6340 C.ar      1 G52201      0.0000 
      5 C6         20.7940   25.4020   15.9710 C.ar      1 G52201      0.0000 
      6 C7         21.5710   26.5210   15.6830 C.ar      1 G52201      0.0000 
      7 S8         18.5090   23.9090   16.0160 S.o2      1 G52201      0.0000 
      8 O9         17.4440   23.7580   14.9800 O.2       1 G52201      0.0000 
      9 O10        19.4150   22.7230   16.0720 O.2       1 G52201      0.0000 
     10 N11        17.8140   24.0520   17.4890 N.pl3     1 G52201      0.0000 
     11 C12        18.7620   24.4740   18.5150 C.3       1 G52201      0.0000 
     12 C13        18.5230   23.7040   19.8200 C.3       1 G52201      0.0000 
     13 C14        18.2710   22.2150   19.5780 C.3       1 G52201      0.0000 
     14 C15        19.6770   23.8930   20.8100 C.3       1 G52201      0.0000 
     15 C16        16.6000   24.8640   17.4650 C.3       1 G52201      0.0000 
     16 C17        15.4170   24.0340   17.9430 C.3       1 G52201      0.0000 
     17 O18        14.2560   24.8170   18.1890 O.3       1 G52201      0.0000 
     18 C19        15.0820   22.8750   17.0010 C.3       1 G52201      0.0000 
     19 N20        14.1400   21.9800   17.6980 N.am      1 G52201      0.0000 
     20 C21        14.3580   20.7000   17.9960 C.2       1 G52201      0.0000 
     21 O22        15.4050   20.1090   17.7310 O.2       1 G52201      0.0000 
     22 O23        13.3390   20.0450   18.6220 O.3       1 G52201      0.0000 
     23 C24        13.6370   18.6660   18.8500 C.3       1 G52201      0.0000 
     24 C25        13.2050   18.3390   20.2830 C.3       1 G52201      0.0000 
     25 O26        11.7720   18.3190   20.2330 O.3       1 G52201      0.0000 
     26 C27        11.3740   17.9240   18.9240 C.3       1 G52201      0.0000 
     27 O28        10.5200   18.9000   18.3520 O.3       1 G52201      0.0000 
     28 C29        11.0120   19.3520   17.0990 C.3       1 G52201      0.0000 
     29 C30        12.2130   18.4950   16.7360 C.3       1 G52201      0.0000 
     30 C31        12.6160   17.8350   18.0580 C.3       1 G52201      0.0000 
     31 C32        14.3640   23.3830   15.7390 C.3       1 G52201      0.0000 
     32 C33        12.7270   21.7120   14.7900 C.ar      1 G52201      0.0000 
     33 C34        12.4080   20.6320   13.9800 C.ar      1 G52201      0.0000 
     34 C35        13.3970   20.0130   13.2200 C.ar      1 G52201      0.0000 
     35 C36        14.7030   20.4820   13.2690 C.ar      1 G52201      0.0000 
     36 C37        15.0210   21.5740   14.0760 C.ar      1 G52201      0.0000 
     37 C38        14.0330   22.1890   14.8310 C.ar      1 G52201      0.0000 
     38 O39        21.7040   28.7330   14.7830 O.3       1 G52201      0.0000 
     39 C40        23.0930   28.5410   15.0220 C.3       1 G52201      0.0000 
     40 O41        10.0300   19.0770   16.0870 O.3       1 G52201      0.0000 
     41 C42        10.1220   17.6540   15.8880 C.3       1 G52201      0.0000 
     42 C43        11.6310   17.4420   15.7820 C.3       1 G52201      0.0000 
@<TRIPOS>BOND
     1    1    2 ar   
     2    1    6 ar   
     3    1   38 1    
     4    2    3 ar   
     5    3    4 ar   
     6    4    5 ar   
     7    4    7 1    
     8    5    6 ar   
     9    7    9 2    
    10    7   10 1    
    11    7    8 2    
    12   10   11 1    
    13   10   15 1    
    14   11   12 1    
    15   12   13 1    
    16   12   14 1    
    17   15   16 1    
    18   16   17 1    
    19   16   18 1    
    20   18   19 1    
    21   18   31 1    
    22   19   20 am   
    23   20   21 2    
    24   20   22 1    
    25   22   23 1    
    26   23   24 1    
    27   23   30 1    
    28   24   25 1    
    29   25   26 1    
    30   26   27 1    
    31   26   30 1    
    32   27   28 1    
    33   28   29 1    
    34   28   40 1    
    35   29   30 1    
    36   29   42 1    
    37   31   37 1    
    38   32   33 ar   
    39   32   37 ar   
    40   33   34 ar   
    41   34   35 ar   
    42   35   36 ar   
    43   36   37 ar   
    44   38   39 1    
    45   40   41 1    
    46   41   42 1    
@<TRIPOS>SUBSTRUCTURE
     1 G52201      1 GROUP   
@<TRIPOS>SET

