#    Name: 6o0j_1_DNA_CAVITY_N1_4
#    Modification time : Fri May 22 19:33:45 2020

@<TRIPOS>MOLECULE
6o0j_1_DNA_CAVITY_N1_4
   40     0     5     0     0
SMALL
NO_CHARGES


@<TRIPOS>ATOM
      1 N          -4.4000    6.7400    8.7000 N.am      1 ALA2        0.0000 
      2 N          -3.4000    6.3900    7.6400 N.am      1 ALA2        0.0000 
      3 O          -1.9700   10.6300    5.4500 O.2       1 ALA2        0.0000 
      4 N          -0.9700   10.2800    4.3900 N.am      1 ALA2        0.0000 
      5 O          -0.3300    9.5000    9.4900 O.2       1 ALA2        0.0000 
      6 N          -0.5600   10.8300    8.8400 N.am      1 ALA2        0.0000 
      7 OD1        -2.7500    9.6500    7.1700 O.co2     2 ASP3        0.0000 
      8 OD1        -0.7500    8.9500    5.0500 O.co2     2 ASP3        0.0000 
      9 OD1         0.2500    8.5900    3.9800 O.co2     2 ASP3        0.0000 
     10 OD1        -2.9700   10.9800    6.5200 O.co2     2 ASP3        0.0000 
     11 OD1        -2.9800    6.9500   12.0800 O.co2     2 ASP3        0.0000 
     12 OD1        -1.6500   10.2400    8.0000 O.co2     2 ASP3        0.0000 
     13 CZ         -3.6200    7.7200    6.9800 C.ar      3 PHE5        0.0000 
     14 CZ         -3.8400    9.0500    6.3300 C.ar      3 PHE5        0.0000 
     15 CZ         -1.8400    8.3500    4.2100 C.ar      3 PHE5        0.0000 
     16 CZ         -1.7500    9.3000    6.1100 C.ar      3 PHE5        0.0000 
     17 CA         -4.6200    8.0700    8.0500 C.3       4 GLY6        0.0000 
     18 CA         -3.0800    6.0000   10.1900 C.3       4 GLY6        0.0000 
     19 CA         -4.3000    7.6900   10.6000 C.3       4 GLY6        0.0000 
     20 CA         -3.3000    7.3300    9.5300 C.3       4 GLY6        0.0000 
     21 CA         -2.3000    6.9800    8.4700 C.3       4 GLY6        0.0000 
     22 CA         -2.5300    8.3200    7.8200 C.3       4 GLY6        0.0000 
     23 CA         -1.5300    7.9600    6.7600 C.3       4 GLY6        0.0000 
     24 CA         -1.9800    6.6000   11.0200 C.3       4 GLY6        0.0000 
     25 CA         -3.2100    8.2800   11.4300 C.3       4 GLY6        0.0000 
     26 CA         -2.2100    7.9300   10.3700 C.3       4 GLY6        0.0000 
     27 CA         -2.4300    9.2600    9.7200 C.3       4 GLY6        0.0000 
     28 CA         -1.4300    8.9100    8.6600 C.3       4 GLY6        0.0000 
     29 CA         -0.4300    8.5600    7.5900 C.3       4 GLY6        0.0000 
     30 CA          0.5700    8.2100    6.5300 C.3       4 GLY6        0.0000 
     31 CA         -2.6500   10.5900    9.0700 C.3       4 GLY6        0.0000 
     32 CA         -0.6500    9.8900    6.9400 C.3       4 GLY6        0.0000 
     33 CA          0.3500    9.5400    5.8800 C.3       4 GLY6        0.0000 
     34 CA         -1.8800   11.5700    7.3500 C.3       4 GLY6        0.0000 
     35 CA         -2.1100    8.8700   12.2700 C.3       4 GLY6        0.0000 
     36 CA         -1.1100    8.5200   11.2100 C.3       4 GLY6        0.0000 
     37 CA         -2.3300   10.2100   11.6100 C.3       4 GLY6        0.0000 
     38 CA         -1.3300    9.8500   10.5500 C.3       4 GLY6        0.0000 
     39 CA         -1.5600   11.1900    9.9000 C.3       4 GLY6        0.0000 
     40 DU          1.3500    9.1900    4.8200 H         5 CUB7        0.0000 
@<TRIPOS>BOND
@<TRIPOS>SUBSTRUCTURE
     1 ALA2        1 GROUP   
     2 ASP3        7 GROUP   
     3 PHE5       13 GROUP   
     4 GLY6       17 GROUP   
     5 CUB7       40 GROUP   
@<TRIPOS>SET

