#    Name: 6o0j_1_DNA_CAVITY_N1_8
#    Modification time : Fri May 22 19:33:45 2020

@<TRIPOS>MOLECULE
6o0j_1_DNA_CAVITY_N1_8
   84     0     6     0     0
SMALL
NO_CHARGES


@<TRIPOS>ATOM
      1 OG         -2.2600    7.7900   -0.2400 O.3       1 SER1        0.0000 
      2 OG         -1.1600    8.3900    0.6000 O.3       1 SER1        0.0000 
      3 OG         -1.0700    9.3300    2.5000 O.3       1 SER1        0.0000 
      4 OG         -0.0700    8.9800    1.4300 O.3       1 SER1        0.0000 
      5 OG         -0.2900   10.3100    0.7800 O.3       1 SER1        0.0000 
      6 O          -0.9400    7.0600    1.2500 O.2       2 ALA2        0.0000 
      7 O           0.0600    6.7100    0.1900 O.2       2 ALA2        0.0000 
      8 N          -4.4000    6.7400    8.7000 N.am      2 ALA2        0.0000 
      9 N          -3.4000    6.3900    7.6400 N.am      2 ALA2        0.0000 
     10 O          -1.9700   10.6300    5.4500 O.2       2 ALA2        0.0000 
     11 N          -0.9700   10.2800    4.3900 N.am      2 ALA2        0.0000 
     12 N           0.0300    9.9300    3.3300 N.am      2 ALA2        0.0000 
     13 N           1.0300    9.5800    2.2700 N.am      2 ALA2        0.0000 
     14 N           2.0300    9.2200    1.2100 N.am      2 ALA2        0.0000 
     15 N           0.8000   10.9100    1.6200 N.am      2 ALA2        0.0000 
     16 N           1.8000   10.5600    0.5600 N.am      2 ALA2        0.0000 
     17 N           3.3500    8.4900    2.7000 N.am      2 ALA2        0.0000 
     18 N           1.1200   10.5200    4.1700 N.am      2 ALA2        0.0000 
     19 N           2.1200   10.1700    3.1100 N.am      2 ALA2        0.0000 
     20 N           3.1200    9.8200    2.0400 N.am      2 ALA2        0.0000 
     21 O          -0.3300    9.5000    9.4900 O.2       2 ALA2        0.0000 
     22 N          -0.5600   10.8300    8.8400 N.am      2 ALA2        0.0000 
     23 N           3.4400    9.4300    4.5900 N.am      2 ALA2        0.0000 
     24 N           4.4400    9.0800    3.5300 N.am      2 ALA2        0.0000 
     25 O           2.2200   11.1100    5.0000 O.2       2 ALA2        0.0000 
     26 N           3.2200   10.7600    3.9400 N.am      2 ALA2        0.0000 
     27 N           4.3100   11.3600    4.7800 N.am      2 ALA2        0.0000 
     28 N           5.3100   11.0000    3.7200 N.am      2 ALA2        0.0000 
     29 N           5.0800    8.3000    8.6300 N.am      2 ALA2        0.0000 
     30 OD1         0.2800    5.3700    0.8400 O.co2     3 ASP3        0.0000 
     31 OD1         1.3800    5.9700    1.6800 O.co2     3 ASP3        0.0000 
     32 OD1        -0.8400    8.0000    3.1500 O.co2     3 ASP3        0.0000 
     33 OD1         0.1600    7.6500    2.0900 O.co2     3 ASP3        0.0000 
     34 OD1         1.4700    6.9100    3.5700 O.co2     3 ASP3        0.0000 
     35 OD1         2.4700    6.5600    2.5100 O.co2     3 ASP3        0.0000 
     36 OD1        -2.7500    9.6500    7.1700 O.co2     3 ASP3        0.0000 
     37 OD1        -0.7500    8.9500    5.0500 O.co2     3 ASP3        0.0000 
     38 OD1         0.2500    8.5900    3.9800 O.co2     3 ASP3        0.0000 
     39 OD1         1.2500    8.2400    2.9200 O.co2     3 ASP3        0.0000 
     40 OD1        -2.9700   10.9800    6.5200 O.co2     3 ASP3        0.0000 
     41 OD1        -2.9800    6.9500   12.0800 O.co2     3 ASP3        0.0000 
     42 OD1         1.5700    7.8600    5.4700 O.co2     3 ASP3        0.0000 
     43 OD1        -1.6500   10.2400    8.0000 O.co2     3 ASP3        0.0000 
     44 OD1         4.5400   10.0200    5.4300 O.co2     3 ASP3        0.0000 
     45 OD1         4.8600    9.6400    7.9800 O.co2     3 ASP3        0.0000 
     46 OD1         5.8600    9.2900    6.9200 O.co2     3 ASP3        0.0000 
     47 CZ         -3.6200    7.7200    6.9800 C.ar      4 PHE5        0.0000 
     48 CZ         -3.8400    9.0500    6.3300 C.ar      4 PHE5        0.0000 
     49 CZ         -1.8400    8.3500    4.2100 C.ar      4 PHE5        0.0000 
     50 CZ         -1.7500    9.3000    6.1100 C.ar      4 PHE5        0.0000 
     51 CA         -4.6200    8.0700    8.0500 C.3       5 GLY6        0.0000 
     52 CA         -3.0800    6.0000   10.1900 C.3       5 GLY6        0.0000 
     53 CA         -4.3000    7.6900   10.6000 C.3       5 GLY6        0.0000 
     54 CA         -3.3000    7.3300    9.5300 C.3       5 GLY6        0.0000 
     55 CA         -2.3000    6.9800    8.4700 C.3       5 GLY6        0.0000 
     56 CA         -2.5300    8.3200    7.8200 C.3       5 GLY6        0.0000 
     57 CA         -1.5300    7.9600    6.7600 C.3       5 GLY6        0.0000 
     58 CA         -1.9800    6.6000   11.0200 C.3       5 GLY6        0.0000 
     59 CA         -3.2100    8.2800   11.4300 C.3       5 GLY6        0.0000 
     60 CA         -2.2100    7.9300   10.3700 C.3       5 GLY6        0.0000 
     61 CA         -2.4300    9.2600    9.7200 C.3       5 GLY6        0.0000 
     62 CA         -1.4300    8.9100    8.6600 C.3       5 GLY6        0.0000 
     63 CA         -0.4300    8.5600    7.5900 C.3       5 GLY6        0.0000 
     64 CA          0.5700    8.2100    6.5300 C.3       5 GLY6        0.0000 
     65 CA         -2.6500   10.5900    9.0700 C.3       5 GLY6        0.0000 
     66 CA         -0.6500    9.8900    6.9400 C.3       5 GLY6        0.0000 
     67 CA          0.3500    9.5400    5.8800 C.3       5 GLY6        0.0000 
     68 CA         -1.8800   11.5700    7.3500 C.3       5 GLY6        0.0000 
     69 CA         -2.1100    8.8700   12.2700 C.3       5 GLY6        0.0000 
     70 CA         -1.1100    8.5200   11.2100 C.3       5 GLY6        0.0000 
     71 CA         -2.3300   10.2100   11.6100 C.3       5 GLY6        0.0000 
     72 CA         -1.3300    9.8500   10.5500 C.3       5 GLY6        0.0000 
     73 CA         -1.5600   11.1900    9.9000 C.3       5 GLY6        0.0000 
     74 CA          5.6300   10.6200    6.2600 C.3       5 GLY6        0.0000 
     75 DU         -0.1600    8.0400   -0.4600 H         6 CUB7        0.0000 
     76 DU          1.1600    7.3000    1.0300 H         6 CUB7        0.0000 
     77 DU          0.9300    8.6300    0.3700 H         6 CUB7        0.0000 
     78 DU          0.7100    9.9600   -0.2800 H         6 CUB7        0.0000 
     79 DU          2.2500    7.8900    1.8600 H         6 CUB7        0.0000 
     80 DU          1.3500    9.1900    4.8200 H         6 CUB7        0.0000 
     81 DU          2.3500    8.8400    3.7600 H         6 CUB7        0.0000 
     82 DU          4.9900    7.3600    6.7300 H         6 CUB7        0.0000 
     83 DU          4.7600    8.6900    6.0800 H         6 CUB7        0.0000 
     84 DU          5.5400    9.6700    4.3700 H         6 CUB7        0.0000 
@<TRIPOS>BOND
@<TRIPOS>SUBSTRUCTURE
     1 SER1        1 GROUP   
     2 ALA2        6 GROUP   
     3 ASP3       30 GROUP   
     4 PHE5       47 GROUP   
     5 GLY6       51 GROUP   
     6 CUB7       75 GROUP   
@<TRIPOS>SET

