#    Name: 6o0j_4_TDP
#    Modification time : Fri May 22 19:34:38 2020

@<TRIPOS>MOLECULE
6o0j_4_TDP
   26    27     1     0     0
SMALL
NO_CHARGES


@<TRIPOS>ATOM
      1 N1'        27.2960   -4.5680  -14.7970 N.ar      1 TDP604      0.0000 
      2 C2'        27.0390   -4.1170  -13.5440 C.ar      1 TDP604      0.0000 
      3 C2A        26.7390   -2.6620  -13.3190 C.3       1 TDP604      0.0000 
      4 N3'        27.0470   -4.9340  -12.4690 N.ar      1 TDP604      0.0000 
      5 C4'        27.3120   -6.2420  -12.6280 C.ar      1 TDP604      0.0000 
      6 N4'        27.3120   -7.0690  -11.5580 N.pl3     1 TDP604      0.0000 
      7 C5'        27.6010   -6.7490  -13.9870 C.ar      1 TDP604      0.0000 
      8 C6'        27.5770   -5.8550  -15.0500 C.ar      1 TDP604      0.0000 
      9 C35        27.8990   -8.2060  -14.2070 C.3       1 TDP604      0.0000 
     10 N3         29.1490   -8.6230  -13.5810 N.pl3     1 TDP604      0.0000 
     11 C2         29.1660   -9.2060  -12.3650 C.2       1 TDP604      0.0000 
     12 S1         30.7460   -9.6500  -11.7830 S.3       1 TDP604      0.0000 
     13 C5         31.4230   -9.0290  -13.2450 C.2       1 TDP604      0.0000 
     14 C4         30.3800   -8.4910  -14.1380 C.2       1 TDP604      0.0000 
     15 C4A        30.6920   -7.8990  -15.4810 C.3       1 TDP604      0.0000 
     16 C5A        32.9280   -9.1450  -13.3770 C.3       1 TDP604      0.0000 
     17 C5B        33.6460   -7.9980  -12.6800 C.3       1 TDP604      0.0000 
     18 O5G        34.9980   -7.9180  -13.1430 O.3       1 TDP604      0.0000 
     19 P1         36.1980   -7.5110  -12.1430 P.3       1 TDP604      0.0000 
     20 O11        36.1030   -8.6050  -10.9520 O.3       1 TDP604      0.0000 
     21 O12        37.4900   -7.6300  -12.9080 O.co2     1 TDP604      0.0000 
     22 O13        35.8820   -6.1610  -11.5450 O.co2     1 TDP604      0.0000 
     23 P2         36.8840  -10.0230  -10.9340 P.3       1 TDP604      0.0000 
     24 O21        37.3740  -10.2270  -12.3460 O.co2     1 TDP604      0.0000 
     25 O22        35.8510  -11.0460  -10.5270 O.co2     1 TDP604      0.0000 
     26 O23        37.9590   -9.7940   -9.9040 O.co2     1 TDP604      0.0000 
@<TRIPOS>BOND
     1    1    2 ar   
     2    1    8 ar   
     3    2    3 1    
     4    2    4 ar   
     5    4    5 ar   
     6    5    6 1    
     7    5    7 ar   
     8    7    8 ar   
     9    7    9 1    
    10    9   10 1    
    11   10   11 2    
    12   10   14 1    
    13   11   12 1    
    14   12   13 1    
    15   13   14 2    
    16   13   16 1    
    17   14   15 1    
    18   16   17 1    
    19   17   18 1    
    20   18   19 1    
    21   19   20 1    
    22   19   21 ar   
    23   19   22 ar   
    24   20   23 1    
    25   23   24 ar   
    26   23   25 ar   
    27   23   26 ar   
@<TRIPOS>SUBSTRUCTURE
     1 TDP604      1 GROUP   
@<TRIPOS>SET

