#    Name: 6o0j_4_TDP_CAVITY_N1_4
#    Modification time : Fri May 22 19:34:40 2020

@<TRIPOS>MOLECULE
6o0j_4_TDP_CAVITY_N1_4
   54     0     7     0     0
SMALL
NO_CHARGES


@<TRIPOS>ATOM
      1 OG         30.6500   -9.4500  -12.2800 O.3       1 SER1        0.0000 
      2 N          26.6800  -11.2700  -11.1800 N.am      2 ALA2        0.0000 
      3 N          26.4600   -9.9300  -11.8300 N.am      2 ALA2        0.0000 
      4 N          26.2400   -8.6000  -12.4800 N.am      2 ALA2        0.0000 
      5 N          27.7800  -10.6700  -10.3400 N.am      2 ALA2        0.0000 
      6 N          27.5600   -9.3400  -10.9900 N.am      2 ALA2        0.0000 
      7 N          27.3300   -8.0100  -11.6400 N.am      2 ALA2        0.0000 
      8 N          27.1100   -6.6800  -12.3000 N.am      2 ALA2        0.0000 
      9 N          30.1100   -7.7300  -15.4800 N.am      2 ALA2        0.0000 
     10 O          26.8800   -5.3400  -12.9500 O.2       2 ALA2        0.0000 
     11 N          29.8800   -6.4000  -16.1300 N.am      2 ALA2        0.0000 
     12 O          28.8800  -10.0800   -9.5000 O.2       2 ALA2        0.0000 
     13 N          28.6500   -8.7500  -10.1600 N.am      2 ALA2        0.0000 
     14 OD1        29.1000  -11.4100   -8.8500 O.co2     3 ASP3        0.0000 
     15 NZ         27.6600   -4.3600  -14.6600 N.4       4 LYS4        0.0000 
     16 CZ         28.6800  -11.9700  -13.3000 C.ar      5 PHE5        0.0000 
     17 CZ         28.4600  -10.6400  -13.9500 C.ar      5 PHE5        0.0000 
     18 CZ         29.5600  -10.0400  -13.1200 C.ar      5 PHE5        0.0000 
     19 CZ         29.3300   -8.7100  -13.7700 C.ar      5 PHE5        0.0000 
     20 CZ         30.3300   -9.0600  -14.8300 C.ar      5 PHE5        0.0000 
     21 CZ         31.6500   -9.8000  -13.3400 C.ar      5 PHE5        0.0000 
     22 CZ         31.4300   -8.4700  -13.9900 C.ar      5 PHE5        0.0000 
     23 CZ         32.4300   -8.8200  -15.0500 C.ar      5 PHE5        0.0000 
     24 CA         27.2400   -8.9500  -13.5400 C.3       6 GLY6        0.0000 
     25 CA         28.2400   -9.3000  -14.6000 C.3       6 GLY6        0.0000 
     26 CA         26.0100   -7.2700  -13.1300 C.3       6 GLY6        0.0000 
     27 CA         27.0100   -7.6200  -14.1900 C.3       6 GLY6        0.0000 
     28 CA         25.7900   -5.9400  -13.7800 C.3       6 GLY6        0.0000 
     29 CA         26.7900   -6.2900  -14.8500 C.3       6 GLY6        0.0000 
     30 CA         29.0000  -12.3500  -10.7500 C.3       6 GLY6        0.0000 
     31 CA         29.7800  -11.3700  -12.4600 C.3       6 GLY6        0.0000 
     32 CA         28.1100   -7.0300  -13.3600 C.3       6 GLY6        0.0000 
     33 CA         29.1100   -7.3800  -14.4200 C.3       6 GLY6        0.0000 
     34 CA         31.1100   -8.0800  -16.5400 C.3       6 GLY6        0.0000 
     35 CA         27.8800   -5.6900  -14.0100 C.3       6 GLY6        0.0000 
     36 CA         28.8800   -6.0500  -15.0700 C.3       6 GLY6        0.0000 
     37 CA         26.6600   -4.0100  -13.6000 C.3       6 GLY6        0.0000 
     38 CA         30.1000  -11.7600   -9.9100 C.3       6 GLY6        0.0000 
     39 CA         29.8800  -10.4300  -10.5700 C.3       6 GLY6        0.0000 
     40 CA         30.8800  -10.7800  -11.6300 C.3       6 GLY6        0.0000 
     41 CA         29.6500   -9.1000  -11.2200 C.3       6 GLY6        0.0000 
     42 CA         28.4300   -7.4100  -10.8100 C.3       6 GLY6        0.0000 
     43 CA         29.4300   -7.7700  -11.8700 C.3       6 GLY6        0.0000 
     44 CA         30.4300   -8.1200  -12.9300 C.3       6 GLY6        0.0000 
     45 CA         31.2000   -7.1400  -14.6500 C.3       6 GLY6        0.0000 
     46 CA         32.2000   -7.4900  -15.7100 C.3       6 GLY6        0.0000 
     47 CA         30.7500   -8.5000  -10.3800 C.3       6 GLY6        0.0000 
     48 CA         32.5200   -7.8700  -13.1600 C.3       6 GLY6        0.0000 
     49 CA         33.5200   -8.2300  -14.2200 C.3       6 GLY6        0.0000 
     50 DU         27.6800  -11.6200  -12.2400 H         7 CUB7        0.0000 
     51 DU         27.4600  -10.2800  -12.8900 H         7 CUB7        0.0000 
     52 DU         28.7800  -11.0200  -11.4000 H         7 CUB7        0.0000 
     53 DU         28.5600   -9.6900  -12.0500 H         7 CUB7        0.0000 
     54 DU         28.3300   -8.3600  -12.7100 H         7 CUB7        0.0000 
@<TRIPOS>BOND
@<TRIPOS>SUBSTRUCTURE
     1 SER1        1 GROUP   
     2 ALA2        2 GROUP   
     3 ASP3       14 GROUP   
     4 LYS4       15 GROUP   
     5 PHE5       16 GROUP   
     6 GLY6       24 GROUP   
     7 CUB7       50 GROUP   
@<TRIPOS>SET

