#    Name: 6o0j_2_DNA_CAVITY_N1_4
#    Modification time : Fri May 22 19:34:05 2020

@<TRIPOS>MOLECULE
6o0j_2_DNA_CAVITY_N1_4
   38     0     4     0     0
SMALL
NO_CHARGES


@<TRIPOS>ATOM
      1 O           8.2200   17.7500  -31.8100 O.2       1 ALA2        0.0000 
      2 N           9.2200   17.4000  -32.8800 N.am      1 ALA2        0.0000 
      3 N           6.7600   16.7300  -26.4900 N.am      1 ALA2        0.0000 
      4 N          12.5400   15.9600  -33.5100 N.am      1 ALA2        0.0000 
      5 O           8.8600   16.9700  -26.7200 O.2       1 ALA2        0.0000 
      6 N          12.8600   15.5700  -30.9600 N.am      1 ALA2        0.0000 
      7 OD1         5.6700   16.1400  -27.3300 O.co2     2 ASP3        0.0000 
      8 OD1        10.4400   15.7100  -33.2800 O.co2     2 ASP3        0.0000 
      9 OD1        10.9900   13.9900  -30.0800 O.co2     2 ASP3        0.0000 
     10 OD1        10.8600   16.2700  -28.8400 O.co2     2 ASP3        0.0000 
     11 OD1         9.6300   17.9500  -28.4300 O.co2     2 ASP3        0.0000 
     12 OD1        10.6300   17.6000  -29.4900 O.co2     2 ASP3        0.0000 
     13 OD1         9.4100   19.2900  -29.0800 O.co2     2 ASP3        0.0000 
     14 CZ         10.0800   15.2900  -27.1200 C.ar      3 PHE5        0.0000 
     15 CZ         11.0800   14.9400  -28.1900 C.ar      3 PHE5        0.0000 
     16 CZ          9.8600   16.6200  -27.7800 C.ar      3 PHE5        0.0000 
     17 CA          6.6700   15.7900  -28.3900 C.3       4 GLY6        0.0000 
     18 CA          9.6700   14.7300  -31.5700 C.3       4 GLY6        0.0000 
     19 CA         10.6700   14.3800  -32.6300 C.3       4 GLY6        0.0000 
     20 CA          6.4400   17.1200  -29.0400 C.3       4 GLY6        0.0000 
     21 CA          9.4400   16.0700  -32.2200 C.3       4 GLY6        0.0000 
     22 CA         10.2200   17.0500  -33.9400 C.3       4 GLY6        0.0000 
     23 CA          7.7600   16.3800  -27.5500 C.3       4 GLY6        0.0000 
     24 CA          8.7600   16.0300  -28.6100 C.3       4 GLY6        0.0000 
     25 CA          9.7600   15.6800  -29.6700 C.3       4 GLY6        0.0000 
     26 CA         10.7600   15.3300  -30.7400 C.3       4 GLY6        0.0000 
     27 CA         11.7600   14.9800  -31.8000 C.3       4 GLY6        0.0000 
     28 CA         12.7600   14.6200  -32.8600 C.3       4 GLY6        0.0000 
     29 CA          7.5400   17.7100  -28.2000 C.3       4 GLY6        0.0000 
     30 CA          8.5400   17.3600  -29.2600 C.3       4 GLY6        0.0000 
     31 CA          9.5400   17.0100  -30.3300 C.3       4 GLY6        0.0000 
     32 CA         10.5400   16.6600  -31.3900 C.3       4 GLY6        0.0000 
     33 CA         11.5400   16.3100  -32.4500 C.3       4 GLY6        0.0000 
     34 CA          8.3100   18.6900  -29.9200 C.3       4 GLY6        0.0000 
     35 CA          9.3100   18.3400  -30.9800 C.3       4 GLY6        0.0000 
     36 CA         10.3100   17.9900  -32.0400 C.3       4 GLY6        0.0000 
     37 CA         11.8600   15.9200  -29.9000 C.3       4 GLY6        0.0000 
     38 CA          8.6300   18.3100  -27.3700 C.3       4 GLY6        0.0000 
@<TRIPOS>BOND
@<TRIPOS>SUBSTRUCTURE
     1 ALA2        1 GROUP   
     2 ASP3        7 GROUP   
     3 PHE5       14 GROUP   
     4 GLY6       17 GROUP   
@<TRIPOS>SET

