#    Name: 6o0j_6_TDP_CAVITY_N1_4
#    Modification time : Fri May 22 19:34:54 2020

@<TRIPOS>MOLECULE
6o0j_6_TDP_CAVITY_N1_4
   61     0     7     0     0
SMALL
NO_CHARGES


@<TRIPOS>ATOM
      1 OG        -22.1400  -12.0300  -16.6400 O.3       1 SER1        0.0000 
      2 OG        -21.1400  -12.3800  -17.7100 O.3       1 SER1        0.0000 
      3 OG        -22.3600  -10.7000  -17.3000 O.3       1 SER1        0.0000 
      4 OG        -20.3600  -11.4000  -19.4200 O.3       1 SER1        0.0000 
      5 N         -17.2700  -11.5100  -20.7100 N.am      2 ALA2        0.0000 
      6 O         -18.4900   -9.8300  -20.3000 O.2       2 ALA2        0.0000 
      7 O         -16.7200  -13.2300  -17.5100 O.2       2 ALA2        0.0000 
      8 N         -16.9500  -11.9000  -18.1600 N.am      2 ALA2        0.0000 
      9 N         -15.9500  -12.2500  -19.2200 N.am      2 ALA2        0.0000 
     10 N         -17.1700  -10.5700  -18.8100 N.am      2 ALA2        0.0000 
     11 N         -16.4000   -9.5800  -20.5200 N.am      2 ALA2        0.0000 
     12 N         -18.8500  -10.2500  -14.1400 N.am      2 ALA2        0.0000 
     13 N         -17.8500  -10.6000  -15.2000 N.am      2 ALA2        0.0000 
     14 N         -15.8500  -11.3000  -17.3200 N.am      2 ALA2        0.0000 
     15 N         -17.0800   -9.6200  -16.9100 N.am      2 ALA2        0.0000 
     16 N         -17.3000   -8.2900  -17.5700 N.am      2 ALA2        0.0000 
     17 O         -17.2100   -7.3400  -15.6700 O.2       2 ALA2        0.0000 
     18 N         -16.2100   -7.7000  -16.7300 N.am      2 ALA2        0.0000 
     19 OD1       -18.3600  -12.1000  -21.5400 O.co2     3 ASP3        0.0000 
     20 NZ        -17.9800   -8.3300  -13.9500 N.4       4 LYS4        0.0000 
     21 NZ        -17.1100   -6.4000  -13.7700 N.4       4 LYS4        0.0000 
     22 CZ        -17.8200  -13.8200  -18.3400 C.ar      5 PHE5        0.0000 
     23 CZ        -21.0400  -11.4400  -15.8100 C.ar      5 PHE5        0.0000 
     24 CZ        -20.0400  -11.7900  -16.8700 C.ar      5 PHE5        0.0000 
     25 CZ        -19.0400  -12.1400  -17.9300 C.ar      5 PHE5        0.0000 
     26 CZ        -19.7200  -12.1800  -14.3200 C.ar      5 PHE5        0.0000 
     27 CZ        -18.7200  -12.5300  -15.3800 C.ar      5 PHE5        0.0000 
     28 CZ        -17.7200  -12.8800  -16.4400 C.ar      5 PHE5        0.0000 
     29 CZ        -18.9500  -11.2000  -16.0300 C.ar      5 PHE5        0.0000 
     30 CA        -18.9100  -14.4200  -19.1800 C.3       6 GLY6        0.0000 
     31 CA        -20.1400  -12.7300  -18.7700 C.3       6 GLY6        0.0000 
     32 CA        -19.1400  -13.0800  -19.8300 C.3       6 GLY6        0.0000 
     33 CA        -18.1400  -13.4400  -20.8900 C.3       6 GLY6        0.0000 
     34 CA        -19.3600  -11.7500  -20.4800 C.3       6 GLY6        0.0000 
     35 CA        -22.0400  -11.0900  -14.7500 C.3       6 GLY6        0.0000 
     36 CA        -22.2700   -9.7500  -15.4000 C.3       6 GLY6        0.0000 
     37 CA        -21.2700  -10.1100  -16.4600 C.3       6 GLY6        0.0000 
     38 CA        -20.2700  -10.4600  -17.5200 C.3       6 GLY6        0.0000 
     39 CA        -19.2700  -10.8100  -18.5800 C.3       6 GLY6        0.0000 
     40 CA        -19.4900   -9.4800  -19.2400 C.3       6 GLY6        0.0000 
     41 CA        -15.7200  -13.5800  -18.5700 C.3       6 GLY6        0.0000 
     42 CA        -20.9500  -10.4900  -13.9100 C.3       6 GLY6        0.0000 
     43 CA        -19.9500  -10.8400  -14.9700 C.3       6 GLY6        0.0000 
     44 CA        -20.1700   -9.5100  -15.6300 C.3       6 GLY6        0.0000 
     45 CA        -19.1700   -9.8600  -16.6900 C.3       6 GLY6        0.0000 
     46 CA        -18.1700  -10.2100  -17.7500 C.3       6 GLY6        0.0000 
     47 CA        -18.4000   -8.8800  -18.4000 C.3       6 GLY6        0.0000 
     48 CA        -16.6300  -12.2900  -15.6100 C.3       6 GLY6        0.0000 
     49 CA        -16.8500  -10.9500  -16.2600 C.3       6 GLY6        0.0000 
     50 CA        -19.0800   -8.9200  -14.7900 C.3       6 GLY6        0.0000 
     51 CA        -18.0800   -9.2700  -15.8500 C.3       6 GLY6        0.0000 
     52 CA        -18.3000   -7.9400  -16.5000 C.3       6 GLY6        0.0000 
     53 CA        -16.7600  -10.0100  -14.3600 C.3       6 GLY6        0.0000 
     54 CA        -16.9800   -8.6800  -15.0200 C.3       6 GLY6        0.0000 
     55 CA        -15.9800   -9.0300  -16.0800 C.3       6 GLY6        0.0000 
     56 CA        -18.2100   -6.9900  -14.6100 C.3       6 GLY6        0.0000 
     57 CA        -15.8900   -8.0800  -14.1800 C.3       6 GLY6        0.0000 
     58 DU        -18.0400  -12.4900  -18.9900 H         7 CUB7        0.0000 
     59 DU        -17.0400  -12.8400  -20.0500 H         7 CUB7        0.0000 
     60 DU        -18.2700  -11.1600  -19.6500 H         7 CUB7        0.0000 
     61 DU        -17.9500  -11.5500  -17.1000 H         7 CUB7        0.0000 
@<TRIPOS>BOND
@<TRIPOS>SUBSTRUCTURE
     1 SER1        1 GROUP   
     2 ALA2        5 GROUP   
     3 ASP3       19 GROUP   
     4 LYS4       20 GROUP   
     5 PHE5       22 GROUP   
     6 GLY6       30 GROUP   
     7 CUB7       58 GROUP   
@<TRIPOS>SET

