#    Name: 6o0j_1_DNA
#    Modification time : Fri May 22 19:33:44 2020

@<TRIPOS>MOLECULE
6o0j_1_DNA
   15    16     1     0     0
SMALL
NO_CHARGES


@<TRIPOS>ATOM
      1 O1A        -3.8830    5.3970   12.0900 O.co2     1 DNA601      0.0000 
      2 O1B        -2.5070    6.8580   12.9880 O.co2     1 DNA601      0.0000 
      3 O1C        -3.7560    6.4850    7.1010 O.3       1 DNA601      0.0000 
      4 O1D        -1.8810    9.0020   11.7770 O.3       1 DNA601      0.0000 
      5 C1E        -1.9250   10.2110    6.8180 C.ar      1 DNA601      0.0000 
      6 C1F        -1.4510   10.8510    7.9610 C.ar      1 DNA601      0.0000 
      7 C1G        -2.5450    8.9780    6.8810 C.ar      1 DNA601      0.0000 
      8 C1H        -1.5660   10.2990    9.2290 C.ar      1 DNA601      0.0000 
      9 C1I        -3.4580    6.4650    9.5090 C.ar      1 DNA601      0.0000 
     10 C1J        -3.1460    6.4040   12.0090 C.2       1 DNA601      0.0000 
     11 C1K        -3.3170    7.0630    8.2540 C.ar      1 DNA601      0.0000 
     12 C1L        -2.9990    7.0770   10.6840 C.ar      1 DNA601      0.0000 
     13 C1M        -2.3340    8.3980   10.6440 C.ar      1 DNA601      0.0000 
     14 C1N        -2.6740    8.3880    8.1230 C.ar      1 DNA601      0.0000 
     15 C1O        -2.1700    9.0700    9.3370 C.ar      1 DNA601      0.0000 
@<TRIPOS>BOND
     1    1   10 ar   
     2    2   10 ar   
     3    3   11 1    
     4    4   13 1    
     5    5    6 ar   
     6    5    7 ar   
     7    6    8 ar   
     8    7   14 ar   
     9    8   15 ar   
    10    9   11 ar   
    11    9   12 ar   
    12   10   12 1    
    13   11   14 ar   
    14   12   13 ar   
    15   13   15 ar   
    16   14   15 ar   
@<TRIPOS>SUBSTRUCTURE
     1 DNA601      1 GROUP   
@<TRIPOS>SET

