#    Name: 6o0j_6_TDP
#    Modification time : Fri May 22 19:34:52 2020

@<TRIPOS>MOLECULE
6o0j_6_TDP
   26    27     1     0     0
SMALL
NO_CHARGES


@<TRIPOS>ATOM
      1 N1'       -17.2910   -7.5040  -13.6010 N.ar      1 TDP604      0.0000 
      2 C2'       -17.2060   -6.5770  -14.5930 C.ar      1 TDP604      0.0000 
      3 C2A       -17.1060   -5.1100  -14.2740 C.3       1 TDP604      0.0000 
      4 N3'       -17.2020   -6.9370  -15.8910 N.ar      1 TDP604      0.0000 
      5 C4'       -17.2840   -8.2320  -16.2330 C.ar      1 TDP604      0.0000 
      6 N4'       -17.2710   -8.5560  -17.5400 N.pl3     1 TDP604      0.0000 
      7 C5'       -17.3900   -9.2570  -15.1730 C.ar      1 TDP604      0.0000 
      8 C6'       -17.3830   -8.8150  -13.8600 C.ar      1 TDP604      0.0000 
      9 C35       -17.4910  -10.7370  -15.5020 C.3       1 TDP604      0.0000 
     10 N3        -18.7340  -11.0790  -16.2010 N.pl3     1 TDP604      0.0000 
     11 C2        -18.7770  -11.2140  -17.5460 C.2       1 TDP604      0.0000 
     12 S1        -20.3400  -11.6140  -18.2120 S.3       1 TDP604      0.0000 
     13 C5        -20.9860  -11.6010  -16.6010 C.2       1 TDP604      0.0000 
     14 C4        -19.9400  -11.2840  -15.6110 C.2       1 TDP604      0.0000 
     15 C4A       -20.2280  -11.2110  -14.1420 C.3       1 TDP604      0.0000 
     16 C5A       -22.4600  -11.9310  -16.4500 C.3       1 TDP604      0.0000 
     17 C5B       -23.3530  -10.7990  -16.9550 C.3       1 TDP604      0.0000 
     18 O5G       -24.6900  -10.9350  -16.4620 O.3       1 TDP604      0.0000 
     19 P1        -25.9690  -10.3500  -17.2660 P.3       1 TDP604      0.0000 
     20 O11       -25.8340  -11.0020  -18.7510 O.3       1 TDP604      0.0000 
     21 O12       -25.8160   -8.8400  -17.3650 O.co2     1 TDP604      0.0000 
     22 O13       -27.2150  -10.8230  -16.5420 O.co2     1 TDP604      0.0000 
     23 P2        -26.4270  -12.4180  -19.3070 P.3       1 TDP604      0.0000 
     24 O21       -27.1700  -12.0070  -20.5580 O.co2     1 TDP604      0.0000 
     25 O22       -27.2510  -13.0180  -18.2060 O.co2     1 TDP604      0.0000 
     26 O23       -25.2360  -13.2930  -19.6080 O.co2     1 TDP604      0.0000 
@<TRIPOS>BOND
     1    1    2 ar   
     2    1    8 ar   
     3    2    3 1    
     4    2    4 ar   
     5    4    5 ar   
     6    5    6 1    
     7    5    7 ar   
     8    7    8 ar   
     9    7    9 1    
    10    9   10 1    
    11   10   11 2    
    12   10   14 1    
    13   11   12 1    
    14   12   13 1    
    15   13   14 2    
    16   13   16 1    
    17   14   15 1    
    18   16   17 1    
    19   17   18 1    
    20   18   19 1    
    21   19   20 1    
    22   19   21 ar   
    23   19   22 ar   
    24   20   23 1    
    25   23   24 ar   
    26   23   25 ar   
    27   23   26 ar   
@<TRIPOS>SUBSTRUCTURE
     1 TDP604      1 GROUP   
@<TRIPOS>SET

