#    Name: 6o0j_3_DNA_CAVITY_N1_6
#    Modification time : Fri May 22 19:34:27 2020

@<TRIPOS>MOLECULE
6o0j_3_DNA_CAVITY_N1_6
    2     0     2     0     0
SMALL
NO_CHARGES


@<TRIPOS>ATOM
      1 NZ          9.6300   -5.4300   -3.7400 N.4       1 LYS4        0.0000 
      2 CA          9.8500   -6.7600   -3.0800 C.3       2 GLY6        0.0000 
@<TRIPOS>BOND
@<TRIPOS>SUBSTRUCTURE
     1 LYS4        1 GROUP   
     2 GLY6        2 GROUP   
@<TRIPOS>SET

