#    Name: 6o0j_3_DNA
#    Modification time : Fri May 22 19:34:26 2020

@<TRIPOS>MOLECULE
6o0j_3_DNA
   15    16     1     0     0
SMALL
NO_CHARGES


@<TRIPOS>ATOM
      1 O1A        18.2460   -5.6510    5.0680 O.co2     1 DNA601      0.0000 
      2 O1B        17.2970   -7.4980    5.7610 O.co2     1 DNA601      0.0000 
      3 O1C        16.4940   -4.8790    0.3600 O.3       1 DNA601      0.0000 
      4 O1D        15.6580   -8.8390    4.3210 O.3       1 DNA601      0.0000 
      5 C1E        13.8000   -8.0570   -0.3770 C.ar      1 DNA601      0.0000 
      6 C1F        13.5890   -9.0420    0.5900 C.ar      1 DNA601      0.0000 
      7 C1G        14.6780   -7.0080   -0.1540 C.ar      1 DNA601      0.0000 
      8 C1H        14.2440   -9.0100    1.8150 C.ar      1 DNA601      0.0000 
      9 C1I        16.9750   -5.7800    2.5600 C.ar      1 DNA601      0.0000 
     10 C1J        17.5090   -6.6380    4.8730 C.2       1 DNA601      0.0000 
     11 C1K        16.3040   -5.8290    1.3300 C.ar      1 DNA601      0.0000 
     12 C1L        16.7930   -6.7520    3.5590 C.ar      1 DNA601      0.0000 
     13 C1M        15.8520   -7.8830    3.3590 C.ar      1 DNA601      0.0000 
     14 C1N        15.3570   -6.9330    1.0490 C.ar      1 DNA601      0.0000 
     15 C1O        15.1260   -7.9750    2.0750 C.ar      1 DNA601      0.0000 
@<TRIPOS>BOND
     1    1   10 ar   
     2    2   10 ar   
     3    3   11 1    
     4    4   13 1    
     5    5    6 ar   
     6    5    7 ar   
     7    6    8 ar   
     8    7   14 ar   
     9    8   15 ar   
    10    9   11 ar   
    11    9   12 ar   
    12   10   12 1    
    13   11   14 ar   
    14   12   13 ar   
    15   13   15 ar   
    16   14   15 ar   
@<TRIPOS>SUBSTRUCTURE
     1 DNA601      1 GROUP   
@<TRIPOS>SET

