#    Name: 6o0j_2_DNA
#    Modification time : Fri May 22 19:34:04 2020

@<TRIPOS>MOLECULE
6o0j_2_DNA
   15    16     1     0     0
SMALL
NO_CHARGES


@<TRIPOS>ATOM
      1 O1A        10.1650   16.4820  -34.6320 O.co2     1 DNA601      0.0000 
      2 O1B        11.9340   15.2660  -34.1750 O.co2     1 DNA601      0.0000 
      3 O1C        11.6020   14.3140  -29.2230 O.3       1 DNA601      0.0000 
      4 O1D         9.2900   18.0650  -32.7010 O.3       1 DNA601      0.0000 
      5 C1E         9.2640   17.4090  -27.6430 C.ar      1 DNA601      0.0000 
      6 C1F         8.6820   18.3510  -28.4910 C.ar      1 DNA601      0.0000 
      7 C1G        10.0470   16.3700  -28.1350 C.ar      1 DNA601      0.0000 
      8 C1H         8.8490   18.3060  -29.8680 C.ar      1 DNA601      0.0000 
      9 C1I        11.2530   15.1250  -31.4620 C.ar      1 DNA601      0.0000 
     10 C1J        10.9360   15.9220  -33.8170 C.2       1 DNA601      0.0000 
     11 C1K        11.0580   15.2110  -30.0830 C.ar      1 DNA601      0.0000 
     12 C1L        10.6830   16.0460  -32.3490 C.ar      1 DNA601      0.0000 
     13 C1M         9.8520   17.1660  -31.8510 C.ar      1 DNA601      0.0000 
     14 C1N        10.2400   16.2860  -29.5020 C.ar      1 DNA601      0.0000 
     15 C1O         9.6190   17.2900  -30.3970 C.ar      1 DNA601      0.0000 
@<TRIPOS>BOND
     1    1   10 ar   
     2    2   10 ar   
     3    3   11 1    
     4    4   13 1    
     5    5    6 ar   
     6    5    7 ar   
     7    6    8 ar   
     8    7   14 ar   
     9    8   15 ar   
    10    9   11 ar   
    11    9   12 ar   
    12   10   12 1    
    13   11   14 ar   
    14   12   13 ar   
    15   13   15 ar   
    16   14   15 ar   
@<TRIPOS>SUBSTRUCTURE
     1 DNA601      1 GROUP   
@<TRIPOS>SET

