#    Name: 6o0j_3_DNA_CAVITY_N1_8
#    Modification time : Fri May 22 19:34:27 2020

@<TRIPOS>MOLECULE
6o0j_3_DNA_CAVITY_N1_8
   36     0     5     0     0
SMALL
NO_CHARGES


@<TRIPOS>ATOM
      1 N           7.6600   -7.9500   -4.7600 N.am      1 ALA2        0.0000 
      2 OD1         9.6000   -2.2100   -0.6000 O.co2     2 ASP3        0.0000 
      3 OD1         9.6900   -1.2600    1.3000 O.co2     2 ASP3        0.0000 
      4 NZ          8.5400   -6.0200   -4.5700 N.4       3 LYS4        0.0000 
      5 NZ          9.6300   -5.4300   -3.7400 N.4       3 LYS4        0.0000 
      6 NZ          8.4100   -3.7500   -3.3300 N.4       3 LYS4        0.0000 
      7 CA          6.8900   -8.9300   -3.0400 C.3       4 GLY6        0.0000 
      8 CA          6.6600   -7.6000   -3.6900 C.3       4 GLY6        0.0000 
      9 CA          5.9800   -7.6300   -0.0800 C.3       4 GLY6        0.0000 
     10 CA          7.9800   -8.3400   -2.2100 C.3       4 GLY6        0.0000 
     11 CA          7.7600   -7.0000   -2.8600 C.3       4 GLY6        0.0000 
     12 CA          8.7600   -7.3500   -3.9200 C.3       4 GLY6        0.0000 
     13 CA          9.5400   -6.3700   -5.6300 C.3       4 GLY6        0.0000 
     14 CA          9.8500   -6.7600   -3.0800 C.3       4 GLY6        0.0000 
     15 CA          8.1700   -6.4500    1.5900 C.3       4 GLY6        0.0000 
     16 CA          8.2700   -5.5000    3.4800 C.3       4 GLY6        0.0000 
     17 CA          8.0500   -4.1700    2.8300 C.3       4 GLY6        0.0000 
     18 CA          9.0500   -4.5200    1.7700 C.3       4 GLY6        0.0000 
     19 CA          8.8200   -3.1900    1.1200 C.3       4 GLY6        0.0000 
     20 CA          9.1400   -3.5800    3.6700 C.3       4 GLY6        0.0000 
     21 CA          9.9200   -2.5900    1.9500 C.3       4 GLY6        0.0000 
     22 DU          6.9800   -7.9800   -1.1500 H         5 CUB7        0.0000 
     23 DU          6.7600   -6.6500   -1.8000 H         5 CUB7        0.0000 
     24 DU          7.5400   -5.6700   -3.5100 H         5 CUB7        0.0000 
     25 DU          6.0800   -6.6900    1.8100 H         5 CUB7        0.0000 
     26 DU          7.0800   -7.0400    0.7500 H         5 CUB7        0.0000 
     27 DU          6.8500   -5.7100    0.1000 H         5 CUB7        0.0000 
     28 DU          7.8500   -6.0600   -0.9600 H         5 CUB7        0.0000 
     29 DU          7.6300   -4.7300   -1.6100 H         5 CUB7        0.0000 
     30 DU          8.6300   -5.0800   -2.6800 H         5 CUB7        0.0000 
     31 DU          7.1700   -6.0900    2.6500 H         5 CUB7        0.0000 
     32 DU          6.9500   -4.7600    2.0000 H         5 CUB7        0.0000 
     33 DU          7.9500   -5.1100    0.9400 H         5 CUB7        0.0000 
     34 DU          7.7300   -3.7800    0.2800 H         5 CUB7        0.0000 
     35 DU          8.5000   -2.8000   -1.4300 H         5 CUB7        0.0000 
     36 DU          8.6000   -1.8600    0.4700 H         5 CUB7        0.0000 
@<TRIPOS>BOND
@<TRIPOS>SUBSTRUCTURE
     1 ALA2        1 GROUP   
     2 ASP3        2 GROUP   
     3 LYS4        4 GROUP   
     4 GLY6        7 GROUP   
     5 CUB7       22 GROUP   
@<TRIPOS>SET

