#    Name: 6nds_1_COA
#    Modification time : Fri May 22 19:42:22 2020

@<TRIPOS>MOLECULE
6nds_1_COA
   48    50     1     0     1
SMALL
NO_CHARGES


@<TRIPOS>ATOM
      1 N1A       -17.3140   30.7470  -12.2500 N.ar      1 COA501      0.0000 
      2 C2A       -18.2080   31.6380  -12.7020 C.ar      1 COA501      0.0000 
      3 N3A       -19.0800   31.5260  -13.7030 N.ar      1 COA501      0.0000 
      4 C4A       -18.9860   30.3160  -14.2770 C.ar      1 COA501      0.0000 
      5 C5A       -18.1310   29.2940  -13.9240 C.ar      1 COA501      0.0000 
      6 C6A       -17.2520   29.5310  -12.8500 C.ar      1 COA501      0.0000 
      7 N6A       -16.3690   28.6390  -12.4120 N.pl3     1 COA501      0.0000 
      8 N7A       -18.3250   28.1960  -14.7520 N.2       1 COA501      0.0000 
      9 C8A       -19.2800   28.5660  -15.5750 C.2       1 COA501      0.0000 
     10 N9A       -19.7210   29.8450  -15.3340 N.pl3     1 COA501      0.0000 
     11 C1B       -20.7460   30.5930  -16.0660 C.3       1 COA501      0.0000 
     12 C2B       -20.4790   30.7260  -17.5640 C.3       1 COA501      0.0000 
     13 O2B       -19.5460   31.7250  -17.9140 O.3       1 COA501      0.0000 
     14 C3B       -21.8990   30.9860  -18.0590 C.3       1 COA501      0.0000 
     15 O3B       -22.3290   32.2900  -17.6810 O.3       1 COA501      0.0000 
     16 P3B       -23.5850   32.7570  -18.5890 P.3       1 COA501      0.0000 
     17 O7A       -24.8490   32.1860  -17.9710 O.co2     1 COA501      0.0000 
     18 O8A       -23.3250   32.1950  -19.9740 O.co2     1 COA501      0.0000 
     19 O9A       -23.5740   34.2740  -18.5800 O.co2     1 COA501      0.0000 
     20 C4B       -22.6150   29.8980  -17.2780 C.3       1 COA501      0.0000 
     21 O4B       -21.9890   29.9330  -15.9650 O.3       1 COA501      0.0000 
     22 C5B       -22.3730   28.5380  -17.8780 C.3       1 COA501      0.0000 
     23 O5B       -23.0980   27.5510  -17.1290 O.3       1 COA501      0.0000 
     24 P1A       -22.6120   26.0360  -17.2800 P.3       1 COA501      0.0000 
     25 O1A       -21.2150   25.9930  -17.8020 O.co2     1 COA501      0.0000 
     26 O2A       -23.6790   25.2260  -17.9390 O.co2     1 COA501      0.0000 
     27 O3A       -22.5510   25.6680  -15.7230 O.3       1 COA501      0.0000 
     28 P2A       -23.6970   25.4200  -14.6400 P.3       1 COA501      0.0000 
     29 O4A       -24.3060   24.0810  -14.8940 O.co2     1 COA501      0.0000 
     30 O5A       -24.5890   26.6140  -14.5470 O.co2     1 COA501      0.0000 
     31 O6A       -22.8000   25.3830  -13.3100 O.3       1 COA501      0.0000 
     32 CBP       -20.7710   24.9620  -12.1230 C.3       1 COA501      0.0000 
     33 CCP       -21.6950   24.4490  -13.2220 C.3       1 COA501      0.0000 
     34 CDP       -19.6710   23.9350  -11.8340 C.3       1 COA501      0.0000 
     35 CEP       -20.1230   26.2720  -12.5850 C.3       1 COA501      0.0000 
     36 CAP       -21.6260   25.2010  -10.8760 C.3       1 COA501      0.0000 
     37 OAP       -22.3820   24.0300  -10.6040 O.3       1 COA501      0.0000 
     38 C9P       -20.8120   25.5560   -9.6430 C.2       1 COA501      0.0000 
     39 O9P       -20.2660   26.6510   -9.5490 O.2       1 COA501      0.0000 
     40 N8P       -20.7450   24.6340   -8.6950 N.am      1 COA501      0.0000 
     41 C7P       -19.9070   24.7700   -7.5110 C.3       1 COA501      0.0000 
     42 C6P       -20.7390   24.9410   -6.2660 C.3       1 COA501      0.0000 
     43 C5P       -19.8890   24.9230   -5.0140 C.2       1 COA501      0.0000 
     44 O5P       -18.8890   25.6330   -4.9220 O.2       1 COA501      0.0000 
     45 N4P       -20.2920   24.1110   -4.0290 N.am      1 COA501      0.0000 
     46 C3P       -19.7060   24.0900   -2.6960 C.3       1 COA501      0.0000 
     47 C2P       -18.2320   23.7660   -2.7200 C.3       1 COA501      0.0000 
     48 S1P       -17.8890   22.2350   -3.6240 S.3       1 COA501      0.0000 
@<TRIPOS>BOND
     1    1    2 ar   
     2    1    6 ar   
     3    2    3 ar   
     4    3    4 ar   
     5    4    5 ar   
     6    4   10 1    
     7    5    6 ar   
     8    5    8 1    
     9    6    7 1    
    10    8    9 2    
    11    9   10 1    
    12   10   11 1    
    13   11   12 1    
    14   11   21 1    
    15   12   13 1    
    16   12   14 1    
    17   14   15 1    
    18   14   20 1    
    19   15   16 1    
    20   16   17 ar   
    21   16   18 ar   
    22   16   19 ar   
    23   20   21 1    
    24   20   22 1    
    25   22   23 1    
    26   23   24 1    
    27   24   25 ar   
    28   24   26 ar   
    29   24   27 1    
    30   27   28 1    
    31   28   29 ar   
    32   28   30 ar   
    33   28   31 1    
    34   31   33 1    
    35   32   33 1    
    36   32   34 1    
    37   32   35 1    
    38   32   36 1    
    39   36   37 1    
    40   36   38 1    
    41   38   39 2    
    42   38   40 am   
    43   40   41 1    
    44   41   42 1    
    45   42   43 1    
    46   43   44 2    
    47   43   45 am   
    48   45   46 1    
    49   46   47 1    
    50   47   48 1    
@<TRIPOS>SUBSTRUCTURE
     1 COA501      1 GROUP   
@<TRIPOS>SET
ATOM$ORANGE STATIC     ATOMS   COLORGROUP SYSTEM 
42 2 2 4 4 5 5 6 6 9 9 11 11 12 12 14 14 20 \
20 22 22 32 32 33 33 34 34 35 35 36 36 38 38 41 41 42 \
42 43 43 46 46 47 47 

