#    Name: 5wf5_1_UKA
#    Modification time : Fri May 22 19:17:36 2020

@<TRIPOS>MOLECULE
5wf5_1_UKA
   57    63     1     0     0
SMALL
NO_CHARGES


@<TRIPOS>ATOM
      1 C1        -21.2800   -8.9320    6.9600 C.3       1 UKA1201     0.0000 
      2 N1        -20.3580   -7.5870    8.8630 N.pl3     1 UKA1201     0.0000 
      3 O1        -19.0260   -8.2270    7.0590 O.3       1 UKA1201     0.0000 
      4 C2        -21.0140   -7.9530    5.8160 C.3       1 UKA1201     0.0000 
      5 N2        -18.1370   -6.6710    4.2070 N.am      1 UKA1201     0.0000 
      6 O2        -21.6150   -8.3870    4.6020 O.3       1 UKA1201     0.0000 
      7 C3        -19.4860   -7.9980    5.7200 C.3       1 UKA1201     0.0000 
      8 N3        -20.3110   -5.5660    9.8510 N.2       1 UKA1201     0.0000 
      9 O3        -21.2480  -10.2900    6.5330 O.3       1 UKA1201     0.0000 
     10 C4        -20.1010   -8.6370    7.8830 C.3       1 UKA1201     0.0000 
     11 N4        -21.9920   -7.5290   12.5170 N.ar      1 UKA1201     0.0000 
     12 O4        -19.4460   -5.6020    5.7010 O.2       1 UKA1201     0.0000 
     13 C5        -19.0190   -6.6420    5.2060 C.2       1 UKA1201     0.0000 
     14 N5        -21.4880   -8.8490   10.6030 N.ar      1 UKA1201     0.0000 
     15 O5        -22.6820  -10.9650   11.7760 O.2       1 UKA1201     0.0000 
     16 C6        -17.5830   -5.4750    3.5750 C.3       1 UKA1201     0.0000 
     17 N6        -21.3640   -5.3040   12.7430 N.pl3     1 UKA1201     0.0000 
     18 O6        -25.5440  -10.2080   17.0950 O.2       1 UKA1201     0.0000 
     19 C7        -16.8440   -5.8060    2.3190 C.3       1 UKA1201     0.0000 
     20 N7        -23.3430   -9.7330   13.5410 N.am      1 UKA1201     0.0000 
     21 C8        -20.0020   -6.2670    8.7870 C.2       1 UKA1201     0.0000 
     22 N8        -23.4110   -9.9280   16.4150 N.am      1 UKA1201     0.0000 
     23 C9        -20.9160   -6.4950   10.6870 C.ar      1 UKA1201     0.0000 
     24 N9        -24.2840   -8.5530   18.0010 N.am      1 UKA1201     0.0000 
     25 C10       -20.9650   -7.7360   10.0870 C.ar      1 UKA1201     0.0000 
     26 N10       -26.5470   -5.9600   20.4730 N.3       1 UKA1201     0.0000 
     27 C11       -21.4490   -6.4140   11.9930 C.ar      1 UKA1201     0.0000 
     28 N11       -25.2850   -4.3870   21.5930 N.ar      1 UKA1201     0.0000 
     29 C12       -22.0030   -8.6770   11.8240 C.ar      1 UKA1201     0.0000 
     30 C13       -21.6420   -5.2760   14.1700 C.3       1 UKA1201     0.0000 
     31 C14       -22.9500   -4.5520   14.4880 C.3       1 UKA1201     0.0000 
     32 C15       -23.0780   -4.1500   15.9520 C.ar      1 UKA1201     0.0000 
     33 C16       -24.1400   -5.3890   14.0430 C.ar      1 UKA1201     0.0000 
     34 C17       -22.1840   -4.6100   16.9090 C.ar      1 UKA1201     0.0000 
     35 C18       -22.3350   -4.2650   18.2400 C.ar      1 UKA1201     0.0000 
     36 C19       -23.3790   -3.4570   18.6320 C.ar      1 UKA1201     0.0000 
     37 C20       -24.2690   -2.9890   17.6930 C.ar      1 UKA1201     0.0000 
     38 C21       -24.1210   -3.3310   16.3610 C.ar      1 UKA1201     0.0000 
     39 C22       -24.8550   -5.0610   12.9000 C.ar      1 UKA1201     0.0000 
     40 C23       -25.9320   -5.8310   12.4970 C.ar      1 UKA1201     0.0000 
     41 C24       -26.3080   -6.9350   13.2290 C.ar      1 UKA1201     0.0000 
     42 C25       -25.6080   -7.2700   14.3660 C.ar      1 UKA1201     0.0000 
     43 C26       -24.5310   -6.5030   14.7730 C.ar      1 UKA1201     0.0000 
     44 C27       -22.7120   -9.8940   12.3770 C.2       1 UKA1201     0.0000 
     45 C28       -24.0250  -10.8280   14.2140 C.3       1 UKA1201     0.0000 
     46 C29       -23.4070  -11.1110   15.5660 C.3       1 UKA1201     0.0000 
     47 C30       -24.4790   -9.6000   17.1650 C.2       1 UKA1201     0.0000 
     48 C31       -25.3210   -8.0600   18.9040 C.3       1 UKA1201     0.0000 
     49 C32       -24.7140   -7.5890   20.2120 C.3       1 UKA1201     0.0000 
     50 C33       -25.8000   -7.0380   21.1280 C.3       1 UKA1201     0.0000 
     51 C34       -27.1650   -6.4140   19.2240 C.3       1 UKA1201     0.0000 
     52 C35       -26.1160   -6.9450   18.2560 C.3       1 UKA1201     0.0000 
     53 C36       -26.9780   -3.6180   20.0720 C.ar      1 UKA1201     0.0000 
     54 C37       -26.6480   -2.3090   20.3710 C.ar      1 UKA1201     0.0000 
     55 C38       -25.6480   -2.0410   21.2730 C.ar      1 UKA1201     0.0000 
     56 C39       -24.9980   -3.1040   21.8560 C.ar      1 UKA1201     0.0000 
     57 C40       -26.2650   -4.6340   20.7120 C.ar      1 UKA1201     0.0000 
@<TRIPOS>BOND
     1    1    4 1    
     2    1    9 1    
     3    1   10 1    
     4    2   10 1    
     5    2   21 1    
     6    2   25 1    
     7    3    7 1    
     8    3   10 1    
     9    4    6 1    
    10    4    7 1    
    11    5   13 am   
    12    5   16 1    
    13    7   13 1    
    14    8   21 2    
    15    8   23 1    
    16   11   27 ar   
    17   11   29 ar   
    18   12   13 2    
    19   14   25 ar   
    20   14   29 ar   
    21   15   44 2    
    22   16   19 1    
    23   17   27 1    
    24   17   30 1    
    25   18   47 2    
    26   20   44 am   
    27   20   45 1    
    28   22   46 1    
    29   22   47 am   
    30   23   25 ar   
    31   23   27 ar   
    32   24   47 am   
    33   24   48 1    
    34   26   50 1    
    35   26   51 1    
    36   26   57 1    
    37   28   56 ar   
    38   28   57 ar   
    39   29   44 1    
    40   30   31 1    
    41   31   32 1    
    42   31   33 1    
    43   32   34 ar   
    44   32   38 ar   
    45   33   39 ar   
    46   33   43 ar   
    47   34   35 ar   
    48   35   36 ar   
    49   36   37 ar   
    50   37   38 ar   
    51   39   40 ar   
    52   40   41 ar   
    53   41   42 ar   
    54   42   43 ar   
    55   45   46 1    
    56   48   49 1    
    57   48   52 1    
    58   49   50 1    
    59   51   52 1    
    60   53   54 ar   
    61   53   57 ar   
    62   54   55 ar   
    63   55   56 ar   
@<TRIPOS>SUBSTRUCTURE
     1 UKA1201     1 GROUP   
@<TRIPOS>SET

