#    Name: 6ers_1_M77
#    Modification time : Fri May 22 19:35:46 2020

@<TRIPOS>MOLECULE
6ers_1_M77
   37    39     1     0     0
SMALL
NO_CHARGES


@<TRIPOS>ATOM
      1 O1          7.0910   10.5690    6.8500 O.2       1 M77401      0.0000 
      2 S1          7.8260   10.9190    8.0250 S.o2      1 M77401      0.0000 
      3 O2          8.1930    9.9030    8.9530 O.2       1 M77401      0.0000 
      4 N4          6.9270   12.0130    8.8490 N.pl3     1 M77401      0.0000 
      5 C22         7.6020   12.5700   10.0400 C.3       1 M77401      0.0000 
      6 C21         6.8880   12.2770   11.3410 C.3       1 M77401      0.0000 
      7 N17         5.6990   13.1180   11.5140 N.4       1 M77401      0.0000 
      8 C16         4.7000   12.9180   10.4300 C.3       1 M77401      0.0000 
      9 C20         5.0520   13.6580    9.1650 C.3       1 M77401      0.0000 
     10 C15         5.9040   12.8510    8.1900 C.3       1 M77401      0.0000 
     11 C5          9.3030   11.7580    7.5650 C.ar      1 M77401      0.0000 
     12 C6          9.2570   13.1220    7.4740 C.ar      1 M77401      0.0000 
     13 C7         10.3960   13.8480    7.1750 C.ar      1 M77401      0.0000 
     14 C8         11.6020   13.2110    7.0120 C.ar      1 M77401      0.0000 
     15 C9         11.6940   11.8020    7.0920 C.ar      1 M77401      0.0000 
     16 C10        10.5210   11.0390    7.3340 C.ar      1 M77401      0.0000 
     17 C11        10.6400    9.6290    7.3160 C.ar      1 M77401      0.0000 
     18 C14        12.9020   11.0910    6.9190 C.ar      1 M77401      0.0000 
     19 N13        13.0010    9.7710    6.9360 N.ar      1 M77401      0.0000 
     20 C12        11.8690    9.0650    7.1150 C.ar      1 M77401      0.0000 
     21 H221        8.6160   12.1760   10.0810 H         1 M77401      0.0000 
     22 H222        7.7330   13.6430    9.9090 H         1 M77401      0.0000 
     23 H211        7.5560   12.3640   12.1970 H         1 M77401      0.0000 
     24 H212        6.5460   11.2430   11.3400 H         1 M77401      0.0000 
     25 H17         5.2870   12.9940   12.4330 H         1 M77401      0.0000 
     26 H161        4.5980   11.8490   10.2500 H         1 M77401      0.0000 
     27 H162        3.7330   13.2460   10.8080 H         1 M77401      0.0000 
     28 H201        5.5790   14.5740    9.4250 H         1 M77401      0.0000 
     29 H202        4.1490   14.0200    8.6750 H         1 M77401      0.0000 
     30 H151        6.3860   13.5080    7.4660 H         1 M77401      0.0000 
     31 H152        5.2630   12.2250    7.5710 H         1 M77401      0.0000 
     32 H6          8.3300   13.6710    7.6340 H         1 M77401      0.0000 
     33 H7         10.3320   14.9300    7.0680 H         1 M77401      0.0000 
     34 H8         12.5080   13.7820    6.8190 H         1 M77401      0.0000 
     35 H11         9.7790    8.9780    7.4590 H         1 M77401      0.0000 
     36 H14        13.8360   11.6280    6.7590 H         1 M77401      0.0000 
     37 H12        12.0060    7.9850    7.0870 H         1 M77401      0.0000 
@<TRIPOS>BOND
     1    1    2 2    
     2    2    3 2    
     3    2    4 1    
     4    2   11 1    
     5    4    5 1    
     6    4   10 1    
     7    5    6 1    
     8    5   21 1    
     9    5   22 1    
    10    6    7 1    
    11    6   23 1    
    12    6   24 1    
    13    7    8 1    
    14    7   25 1    
    15    8    9 1    
    16    8   26 1    
    17    8   27 1    
    18    9   10 1    
    19    9   28 1    
    20    9   29 1    
    21   10   30 1    
    22   10   31 1    
    23   11   12 ar   
    24   11   16 ar   
    25   12   13 ar   
    26   12   32 1    
    27   13   14 ar   
    28   13   33 1    
    29   14   15 ar   
    30   14   34 1    
    31   15   16 ar   
    32   15   18 ar   
    33   16   17 ar   
    34   17   20 ar   
    35   17   35 1    
    36   18   19 ar   
    37   18   36 1    
    38   19   20 ar   
    39   20   37 1    
@<TRIPOS>SUBSTRUCTURE
     1 M77401      1 GROUP   
@<TRIPOS>SET

