#    Name: 6eq9_2_ACP
#    Modification time : Fri May 22 19:33:02 2020

@<TRIPOS>MOLECULE
6eq9_2_ACP
   31    33     1     0     1
SMALL
NO_CHARGES


@<TRIPOS>ATOM
      1 PG        -64.3860   38.1290  -21.1660 P.3       1 ACP502      0.0000 
      2 O1G       -65.0430   38.2770  -22.5070 O.co2     1 ACP502      0.0000 
      3 O2G       -65.4170   38.2310  -20.0550 O.co2     1 ACP502      0.0000 
      4 O3G       -63.3560   39.1800  -20.9480 O.co2     1 ACP502      0.0000 
      5 PB        -64.5050   35.2350  -19.9670 P.3       1 ACP502      0.0000 
      6 O1B       -65.9070   35.0240  -20.5740 O.co2     1 ACP502      0.0000 
      7 O2B       -64.6100   35.8660  -18.5550 O.co2     1 ACP502      0.0000 
      8 C3B       -63.5920   36.3960  -21.1140 C.3       1 ACP502      0.0000 
      9 PA        -62.5520   33.0920  -20.6470 P.3       1 ACP502      0.0000 
     10 O1A       -61.9250   33.9930  -21.6530 O.co2     1 ACP502      0.0000 
     11 O2A       -63.0730   31.8630  -21.2960 O.co2     1 ACP502      0.0000 
     12 O3A       -63.7770   33.7730  -19.7920 O.3       1 ACP502      0.0000 
     13 O5'       -61.3660   32.6440  -19.5780 O.3       1 ACP502      0.0000 
     14 C5'       -61.7190   32.2620  -18.2790 C.3       1 ACP502      0.0000 
     15 C4'       -60.3570   31.8630  -17.5620 C.3       1 ACP502      0.0000 
     16 O4'       -59.7310   30.7010  -18.3390 O.3       1 ACP502      0.0000 
     17 C3'       -59.2630   32.9850  -17.6630 C.3       1 ACP502      0.0000 
     18 O3'       -59.4360   33.8960  -16.6290 O.3       1 ACP502      0.0000 
     19 C2'       -58.1480   32.2850  -17.5200 C.3       1 ACP502      0.0000 
     20 O2'       -57.8920   31.9250  -16.2500 O.3       1 ACP502      0.0000 
     21 C1'       -58.4200   30.9190  -18.3510 C.3       1 ACP502      0.0000 
     22 N9        -57.9400   30.9820  -19.7600 N.pl3     1 ACP502      0.0000 
     23 C8        -58.6160   31.2950  -20.8690 C.2       1 ACP502      0.0000 
     24 N7        -57.7990   31.2540  -21.9370 N.2       1 ACP502      0.0000 
     25 C5        -56.5920   30.8840  -21.4930 C.ar      1 ACP502      0.0000 
     26 C6        -55.3650   30.6600  -22.0860 C.ar      1 ACP502      0.0000 
     27 N6        -55.2020   30.8170  -23.5510 N.pl3     1 ACP502      0.0000 
     28 N1        -54.3330   30.3090  -21.3160 N.ar      1 ACP502      0.0000 
     29 C2        -54.4590   30.1560  -19.9950 C.ar      1 ACP502      0.0000 
     30 N3        -55.6100   30.3720  -19.3630 N.ar      1 ACP502      0.0000 
     31 C4        -56.6880   30.7310  -20.1000 C.ar      1 ACP502      0.0000 
@<TRIPOS>BOND
     1    1    2 ar   
     2    1    3 ar   
     3    1    4 ar   
     4    1    8 1    
     5    5    6 ar   
     6    5    7 ar   
     7    5    8 1    
     8    5   12 1    
     9    9   10 ar   
    10    9   11 ar   
    11    9   12 1    
    12    9   13 1    
    13   13   14 1    
    14   14   15 1    
    15   15   16 1    
    16   15   17 1    
    17   16   21 1    
    18   17   18 1    
    19   17   19 1    
    20   19   20 1    
    21   19   21 1    
    22   21   22 1    
    23   22   23 1    
    24   22   31 1    
    25   23   24 2    
    26   24   25 1    
    27   25   26 ar   
    28   25   31 ar   
    29   26   27 1    
    30   26   28 ar   
    31   28   29 ar   
    32   29   30 ar   
    33   30   31 ar   
@<TRIPOS>SUBSTRUCTURE
     1 ACP502      1 GROUP   
@<TRIPOS>SET
ATOM$ORANGE STATIC     ATOMS   COLORGROUP SYSTEM 
22 8 8 14 14 15 15 17 17 19 19 21 21 23 23 25 25 26 \
26 29 29 31 31 

