#    Name: 6eq9_1_ACP
#    Modification time : Fri May 22 19:32:59 2020

@<TRIPOS>MOLECULE
6eq9_1_ACP
   31    33     1     0     1
SMALL
NO_CHARGES


@<TRIPOS>ATOM
      1 PG        -24.0890   34.2970  -23.9650 P.3       1 ACP505      0.0000 
      2 O1G       -23.3070   33.2400  -24.7390 O.co2     1 ACP505      0.0000 
      3 O2G       -25.1490   33.6170  -23.1840 O.co2     1 ACP505      0.0000 
      4 O3G       -23.1940   35.0090  -23.0320 O.co2     1 ACP505      0.0000 
      5 PB        -23.7120   36.9790  -25.6700 P.3       1 ACP505      0.0000 
      6 O1B       -24.3290   37.8770  -26.7360 O.co2     1 ACP505      0.0000 
      7 O2B       -23.2930   37.8350  -24.4690 O.co2     1 ACP505      0.0000 
      8 C3B       -24.8800   35.6020  -25.1310 C.3       1 ACP505      0.0000 
      9 PA        -20.9960   35.8890  -25.9930 P.3       1 ACP505      0.0000 
     10 O1A       -20.2370   37.1490  -25.6640 O.co2     1 ACP505      0.0000 
     11 O2A       -21.0480   35.0290  -24.8030 O.co2     1 ACP505      0.0000 
     12 O3A       -22.4520   36.3210  -26.5120 O.3       1 ACP505      0.0000 
     13 O5'       -20.2740   35.0000  -27.1570 O.3       1 ACP505      0.0000 
     14 C5'       -21.0090   33.9170  -27.7100 C.3       1 ACP505      0.0000 
     15 C4'       -19.9690   32.7850  -28.0940 C.3       1 ACP505      0.0000 
     16 O4'       -18.7080   33.4530  -28.6710 O.3       1 ACP505      0.0000 
     17 C3'       -19.4470   32.0730  -26.8310 C.3       1 ACP505      0.0000 
     18 O3'       -20.3940   31.1370  -26.3970 O.3       1 ACP505      0.0000 
     19 C2'       -18.2820   31.5800  -27.2560 C.3       1 ACP505      0.0000 
     20 O2'       -18.3720   30.4590  -28.0320 O.3       1 ACP505      0.0000 
     21 C1'       -17.7050   32.7860  -28.1690 C.3       1 ACP505      0.0000 
     22 N9        -16.8060   33.7340  -27.4830 N.pl3     1 ACP505      0.0000 
     23 C8        -17.0920   34.9180  -26.9280 C.2       1 ACP505      0.0000 
     24 N7        -15.9760   35.4620  -26.4750 N.2       1 ACP505      0.0000 
     25 C5        -14.9720   34.6320  -26.7790 C.ar      1 ACP505      0.0000 
     26 C6        -13.6130   34.6360  -26.5620 C.ar      1 ACP505      0.0000 
     27 N6        -12.9790   35.7510  -25.8550 N.pl3     1 ACP505      0.0000 
     28 N1        -12.8860   33.6080  -26.9800 N.ar      1 ACP505      0.0000 
     29 C2        -13.4580   32.5810  -27.6070 C.ar      1 ACP505      0.0000 
     30 N3        -14.7420   32.5340  -27.8140 N.ar      1 ACP505      0.0000 
     31 C4        -15.5130   33.5320  -27.3880 C.ar      1 ACP505      0.0000 
@<TRIPOS>BOND
     1    1    2 ar   
     2    1    3 ar   
     3    1    4 ar   
     4    1    8 1    
     5    5    6 ar   
     6    5    7 ar   
     7    5    8 1    
     8    5   12 1    
     9    9   10 ar   
    10    9   11 ar   
    11    9   12 1    
    12    9   13 1    
    13   13   14 1    
    14   14   15 1    
    15   15   16 1    
    16   15   17 1    
    17   16   21 1    
    18   17   18 1    
    19   17   19 1    
    20   19   20 1    
    21   19   21 1    
    22   21   22 1    
    23   22   23 1    
    24   22   31 1    
    25   23   24 2    
    26   24   25 1    
    27   25   26 ar   
    28   25   31 ar   
    29   26   27 1    
    30   26   28 ar   
    31   28   29 ar   
    32   29   30 ar   
    33   30   31 ar   
@<TRIPOS>SUBSTRUCTURE
     1 ACP505      1 GROUP   
@<TRIPOS>SET
ATOM$ORANGE STATIC     ATOMS   COLORGROUP SYSTEM 
22 8 8 14 14 15 15 17 17 19 19 21 21 23 23 25 25 26 \
26 29 29 31 31 

