#    Name: 6hyc_2_H4B_CAVITY_N1_6
#    Modification time : Fri May 22 19:33:53 2020

@<TRIPOS>MOLECULE
6hyc_2_H4B_CAVITY_N1_6
    4     0     2     0     0
SMALL
NO_CHARGES


@<TRIPOS>ATOM
      1 CZ          3.3300    7.2900   72.3600 C.ar      1 PHE5        0.0000 
      2 CZ          0.7400    8.2900   74.2500 C.ar      1 PHE5        0.0000 
      3 CZ         -1.0200    9.3300   73.6900 C.ar      1 PHE5        0.0000 
      4 CA          0.1300    8.3000   72.2200 C.3       2 GLY6        0.0000 
@<TRIPOS>BOND
@<TRIPOS>SUBSTRUCTURE
     1 PHE5        1 GROUP   
     2 GLY6        4 GROUP   
@<TRIPOS>SET

