#    Name: 6hyc_2_H4B_CAVITY_N1_8
#    Modification time : Fri May 22 19:33:53 2020

@<TRIPOS>MOLECULE
6hyc_2_H4B_CAVITY_N1_8
   21     0     6     0     0
SMALL
NO_CHARGES


@<TRIPOS>ATOM
      1 OG          4.4300    8.3900   70.9200 O.3       1 SER1        0.0000 
      2 N          -1.6300    9.3400   71.6600 N.am      2 ALA2        0.0000 
      3 N           0.0900   10.4200   72.2500 N.am      2 ALA2        0.0000 
      4 NZ          2.1800    8.3200   73.8200 N.4       3 LYS4        0.0000 
      5 NZ          2.8000    8.3000   75.8500 N.4       3 LYS4        0.0000 
      6 NZ          4.2300    8.3300   75.4100 N.4       3 LYS4        0.0000 
      7 CZ          3.3300    7.2900   72.3600 C.ar      4 PHE5        0.0000 
      8 CZ          0.7400    8.2900   74.2500 C.ar      4 PHE5        0.0000 
      9 CZ          3.6200    8.3500   73.3800 C.ar      4 PHE5        0.0000 
     10 CZ          5.0500    8.3700   72.9500 C.ar      4 PHE5        0.0000 
     11 CZ         -1.0200    9.3300   73.6900 C.ar      4 PHE5        0.0000 
     12 CZ          1.0400    9.3400   75.2800 C.ar      4 PHE5        0.0000 
     13 CZ          2.4700    9.3700   74.8500 C.ar      4 PHE5        0.0000 
     14 CZ          0.7100   10.4100   74.2800 C.ar      4 PHE5        0.0000 
     15 CA          0.1300    8.3000   72.2200 C.3       5 GLY6        0.0000 
     16 CA          1.5600    8.3300   71.7900 C.3       5 GLY6        0.0000 
     17 CA          3.0000    8.3600   71.3500 C.3       5 GLY6        0.0000 
     18 CA         -1.3400   10.3900   72.6800 C.3       5 GLY6        0.0000 
     19 DU          0.4200    9.3500   73.2500 H         6 CUB7        0.0000 
     20 DU          1.8500    9.3800   72.8200 H         6 CUB7        0.0000 
     21 DU          3.2900    9.4100   72.3800 H         6 CUB7        0.0000 
@<TRIPOS>BOND
@<TRIPOS>SUBSTRUCTURE
     1 SER1        1 GROUP   
     2 ALA2        2 GROUP   
     3 LYS4        4 GROUP   
     4 PHE5        7 GROUP   
     5 GLY6       15 GROUP   
     6 CUB7       19 GROUP   
@<TRIPOS>SET

