#    Name: 6hyc_3_H4B
#    Modification time : Fri May 22 19:33:57 2020

@<TRIPOS>MOLECULE
6hyc_3_H4B
   17    18     1     0     1
SMALL
NO_CHARGES


@<TRIPOS>ATOM
      1 N1         10.5570  -44.3060   73.5130 N.2       1 H4B501      0.0000 
      2 C2          9.3820  -44.0150   72.8980 C.2       1 H4B501      0.0000 
      3 N2          9.4100  -43.5700   71.6190 N.pl3     1 H4B501      0.0000 
      4 N3          8.1900  -44.1480   73.5080 N.am      1 H4B501      0.0000 
      5 C4          8.0780  -44.5810   74.7700 C.2       1 H4B501      0.0000 
      6 O4          6.9570  -44.6960   75.3110 O.2       1 H4B501      0.0000 
      7 C4A         9.3150  -44.9200   75.5070 C.2       1 H4B501      0.0000 
      8 C8A        10.5910  -44.7520   74.7860 C.2       1 H4B501      0.0000 
      9 N5          9.3080  -45.3630   76.7810 N.3       1 H4B501      0.0000 
     10 N8         11.7500  -45.0460   75.4100 N.pl3     1 H4B501      0.0000 
     11 C6         10.5540  -45.3810   77.5260 C.3       1 H4B501      0.0000 
     12 C7         11.7130  -45.8240   76.6350 C.3       1 H4B501      0.0000 
     13 C9         10.4210  -46.2940   78.7400 C.3       1 H4B501      0.0000 
     14 O9         10.7750  -47.6320   78.3720 O.3       1 H4B501      0.0000 
     15 C10        11.3220  -45.8260   79.8760 C.3       1 H4B501      0.0000 
     16 C11        11.0220  -44.3790   80.2490 C.3       1 H4B501      0.0000 
     17 O10        12.6920  -45.9420   79.4780 O.3       1 H4B501      0.0000 
@<TRIPOS>BOND
     1    1    2 2    
     2    1    8 1    
     3    2    3 1    
     4    2    4 1    
     5    4    5 am   
     6    5    6 2    
     7    5    7 1    
     8    7    8 2    
     9    7    9 1    
    10    8   10 1    
    11    9   11 1    
    12   10   12 1    
    13   11   12 1    
    14   11   13 1    
    15   13   14 1    
    16   13   15 1    
    17   15   16 1    
    18   15   17 1    
@<TRIPOS>SUBSTRUCTURE
     1 H4B501      1 GROUP   
@<TRIPOS>SET
ATOM$ORANGE STATIC     ATOMS   COLORGROUP SYSTEM 
18 2 2 5 5 7 7 8 8 11 11 12 12 13 13 15 15 16 \
16 

