#    Name: 6hyc_2_H4B
#    Modification time : Fri May 22 19:33:53 2020

@<TRIPOS>MOLECULE
6hyc_2_H4B
   17    18     1     0     1
SMALL
NO_CHARGES


@<TRIPOS>ATOM
      1 N1         -3.3510    1.6520   70.9030 N.2       1 H4B501      0.0000 
      2 C2         -2.1420    1.4400   70.3230 C.2       1 H4B501      0.0000 
      3 N2         -2.1040    0.9220   69.0710 N.pl3     1 H4B501      0.0000 
      4 N3         -0.9800    1.7230   70.9390 N.am      1 H4B501      0.0000 
      5 C4         -0.9340    2.2360   72.1740 C.2       1 H4B501      0.0000 
      6 O4          0.1600    2.4890   72.7230 O.2       1 H4B501      0.0000 
      7 C4A        -2.2110    2.4960   72.8740 C.2       1 H4B501      0.0000 
      8 C8A        -3.4520    2.1640   72.1470 C.2       1 H4B501      0.0000 
      9 N5         -2.2700    3.0100   74.1190 N.3       1 H4B501      0.0000 
     10 N8         -4.6440    2.3810   72.7370 N.pl3     1 H4B501      0.0000 
     11 C6         -3.5270    2.9620   74.8450 C.3       1 H4B501      0.0000 
     12 C7         -4.7060    3.2320   73.9110 C.3       1 H4B501      0.0000 
     13 C9         -3.4960    3.9600   75.9970 C.3       1 H4B501      0.0000 
     14 O9         -4.1410    5.1770   75.6030 O.3       1 H4B501      0.0000 
     15 C10        -4.1890    3.3930   77.2300 C.3       1 H4B501      0.0000 
     16 C11        -3.6970    1.9830   77.5330 C.3       1 H4B501      0.0000 
     17 O10        -5.6050    3.3690   77.0140 O.3       1 H4B501      0.0000 
@<TRIPOS>BOND
     1    1    2 2    
     2    1    8 1    
     3    2    3 1    
     4    2    4 1    
     5    4    5 am   
     6    5    6 2    
     7    5    7 1    
     8    7    8 2    
     9    7    9 1    
    10    8   10 1    
    11    9   11 1    
    12   10   12 1    
    13   11   12 1    
    14   11   13 1    
    15   13   14 1    
    16   13   15 1    
    17   15   16 1    
    18   15   17 1    
@<TRIPOS>SUBSTRUCTURE
     1 H4B501      1 GROUP   
@<TRIPOS>SET
ATOM$ORANGE STATIC     ATOMS   COLORGROUP SYSTEM 
18 2 2 5 5 7 7 8 8 11 11 12 12 13 13 15 15 16 \
16 

