#    Name: 6hyc_1_H4B
#    Modification time : Fri May 22 19:33:48 2020

@<TRIPOS>MOLECULE
6hyc_1_H4B
   17    18     1     0     1
SMALL
NO_CHARGES


@<TRIPOS>ATOM
      1 N1         -3.9230   -1.4020   31.2540 N.2       1 H4B501      0.0000 
      2 C2         -2.7190   -1.1430   31.8250 C.2       1 H4B501      0.0000 
      3 N2         -2.6910   -0.5350   33.0350 N.pl3     1 H4B501      0.0000 
      4 N3         -1.5510   -1.4660   31.2390 N.am      1 H4B501      0.0000 
      5 C4         -1.4950   -2.0690   30.0450 C.2       1 H4B501      0.0000 
      6 O4         -0.3960   -2.3570   29.5240 O.2       1 H4B501      0.0000 
      7 C4A        -2.7670   -2.3850   29.3590 C.2       1 H4B501      0.0000 
      8 C8A        -4.0130   -2.0060   30.0500 C.2       1 H4B501      0.0000 
      9 N5         -2.8160   -2.9890   28.1540 N.3       1 H4B501      0.0000 
     10 N8         -5.2020   -2.2700   29.4700 N.pl3     1 H4B501      0.0000 
     11 C6         -4.0620   -2.9610   27.4100 C.3       1 H4B501      0.0000 
     12 C7         -5.2500   -3.1850   28.3440 C.3       1 H4B501      0.0000 
     13 C9         -4.0310   -4.0100   26.3050 C.3       1 H4B501      0.0000 
     14 O9         -4.5110   -5.2580   26.8180 O.3       1 H4B501      0.0000 
     15 C10        -4.8910   -3.5830   25.1220 C.3       1 H4B501      0.0000 
     16 C11        -4.5240   -2.1780   24.6580 C.3       1 H4B501      0.0000 
     17 O10        -6.2720   -3.6140   25.5000 O.3       1 H4B501      0.0000 
@<TRIPOS>BOND
     1    1    2 2    
     2    1    8 1    
     3    2    3 1    
     4    2    4 1    
     5    4    5 am   
     6    5    6 2    
     7    5    7 1    
     8    7    8 2    
     9    7    9 1    
    10    8   10 1    
    11    9   11 1    
    12   10   12 1    
    13   11   12 1    
    14   11   13 1    
    15   13   14 1    
    16   13   15 1    
    17   15   16 1    
    18   15   17 1    
@<TRIPOS>SUBSTRUCTURE
     1 H4B501      1 GROUP   
@<TRIPOS>SET
ATOM$ORANGE STATIC     ATOMS   COLORGROUP SYSTEM 
18 2 2 5 5 7 7 8 8 11 11 12 12 13 13 15 15 16 \
16 

