#    Name: 6hyc_3_H4B_CAVITY_N1_4
#    Modification time : Fri May 22 19:33:57 2020

@<TRIPOS>MOLECULE
6hyc_3_H4B_CAVITY_N1_4
   67     0     6     0     0
SMALL
NO_CHARGES


@<TRIPOS>ATOM
      1 OG          7.2100  -46.7900   76.3900 O.3       1 SER1        0.0000 
      2 OG          5.4400  -45.7600   75.8200 O.3       1 SER1        0.0000 
      3 OG          6.8800  -45.7300   75.3900 O.3       1 SER1        0.0000 
      4 OG          9.5800  -47.8400   78.9900 O.3       1 SER1        0.0000 
      5 OG         11.0200  -47.8200   78.5500 O.3       1 SER1        0.0000 
      6 OG          7.5000  -45.7400   77.4200 O.3       1 SER1        0.0000 
      7 OG         11.3100  -46.7600   79.5800 O.3       1 SER1        0.0000 
      8 OG         12.4200  -45.6700   78.1400 O.3       1 SER1        0.0000 
      9 OG         12.7100  -44.6100   79.1700 O.3       1 SER1        0.0000 
     10 N          11.8700  -49.8900   76.0600 N.am      2 ALA2        0.0000 
     11 N           8.8100  -44.5900   71.4800 N.am      2 ALA2        0.0000 
     12 N           9.1000  -43.5400   72.5100 N.am      2 ALA2        0.0000 
     13 N          10.5300  -43.5100   72.0800 N.am      2 ALA2        0.0000 
     14 N          10.6900  -46.7500   77.5500 N.am      2 ALA2        0.0000 
     15 N          12.1300  -46.7200   77.1100 N.am      2 ALA2        0.0000 
     16 N          11.8000  -45.6500   76.1100 N.am      2 ALA2        0.0000 
     17 N          11.4800  -44.5900   75.1100 N.am      2 ALA2        0.0000 
     18 O          11.1500  -43.5200   74.1100 O.2       2 ALA2        0.0000 
     19 N          12.7400  -46.7300   79.1400 N.am      2 ALA2        0.0000 
     20 NZ          6.2600  -45.7100   73.3600 N.4       3 LYS4        0.0000 
     21 NZ          7.3700  -44.6200   71.9200 N.4       3 LYS4        0.0000 
     22 CZ          9.0000  -49.9500   76.9300 C.ar      4 PHE5        0.0000 
     23 CZ          8.6800  -48.8900   75.9300 C.ar      4 PHE5        0.0000 
     24 CZ          5.4800  -47.8800   75.8000 C.ar      4 PHE5        0.0000 
     25 CZ          9.2900  -48.9000   77.9600 C.ar      4 PHE5        0.0000 
     26 CZ          7.5300  -47.8600   77.3900 C.ar      4 PHE5        0.0000 
     27 CZ          6.5500  -44.6600   74.3800 C.ar      4 PHE5        0.0000 
     28 CZ          7.9900  -44.6300   73.9500 C.ar      4 PHE5        0.0000 
     29 CZ          7.6600  -43.5600   72.9500 C.ar      4 PHE5        0.0000 
     30 CZ          9.2600  -46.7800   77.9800 C.ar      4 PHE5        0.0000 
     31 CZ          8.9300  -45.7100   76.9800 C.ar      4 PHE5        0.0000 
     32 CZ         10.3700  -45.6800   76.5500 C.ar      4 PHE5        0.0000 
     33 CZ          8.6100  -44.6400   75.9800 C.ar      4 PHE5        0.0000 
     34 CZ         10.0400  -44.6200   75.5400 C.ar      4 PHE5        0.0000 
     35 CZ          9.7100  -43.5500   74.5400 C.ar      4 PHE5        0.0000 
     36 CZ         10.8200  -42.4500   73.1000 C.ar      4 PHE5        0.0000 
     37 CZ          9.8700  -46.7900   80.0100 C.ar      4 PHE5        0.0000 
     38 CZ          9.5500  -45.7200   79.0100 C.ar      4 PHE5        0.0000 
     39 CZ         10.9800  -45.6900   78.5800 C.ar      4 PHE5        0.0000 
     40 CZ         10.6600  -44.6300   77.5700 C.ar      4 PHE5        0.0000 
     41 CZ         11.2700  -44.6400   79.6000 C.ar      4 PHE5        0.0000 
     42 CA         12.2000  -50.9600   77.0700 C.3       5 GLY6        0.0000 
     43 CA         10.4400  -49.9200   76.5000 C.3       5 GLY6        0.0000 
     44 CA         10.1100  -48.8600   75.5000 C.3       5 GLY6        0.0000 
     45 CA         11.5500  -48.8300   75.0600 C.3       5 GLY6        0.0000 
     46 CA          6.9200  -47.8500   75.3600 C.3       5 GLY6        0.0000 
     47 CA          8.3500  -47.8200   74.9300 C.3       5 GLY6        0.0000 
     48 CA          9.7900  -47.7900   74.4900 C.3       5 GLY6        0.0000 
     49 CA          6.5900  -46.7800   74.3600 C.3       5 GLY6        0.0000 
     50 CA          8.0200  -46.7500   73.9200 C.3       5 GLY6        0.0000 
     51 CA          9.4600  -46.7200   73.4900 C.3       5 GLY6        0.0000 
     52 CA          7.7000  -45.6900   72.9200 C.3       5 GLY6        0.0000 
     53 CA          9.1300  -45.6600   72.4900 C.3       5 GLY6        0.0000 
     54 CA         10.7300  -48.8700   77.5300 C.3       5 GLY6        0.0000 
     55 CA         11.8400  -47.7700   76.0900 C.3       5 GLY6        0.0000 
     56 CA         11.5100  -46.7100   75.0800 C.3       5 GLY6        0.0000 
     57 CA          9.7500  -45.6700   74.5200 C.3       5 GLY6        0.0000 
     58 CA         11.1900  -45.6400   74.0800 C.3       5 GLY6        0.0000 
     59 CA          9.4200  -44.6000   73.5100 C.3       5 GLY6        0.0000 
     60 CA         10.8600  -44.5700   73.0800 C.3       5 GLY6        0.0000 
     61 CA         12.0900  -44.6000   77.1400 C.3       5 GLY6        0.0000 
     62 CA         11.6000  -45.7100   80.6100 C.3       5 GLY6        0.0000 
     63 DU          8.9700  -47.8300   76.9600 H         6 CUB7        0.0000 
     64 DU         10.4000  -47.8000   76.5200 H         6 CUB7        0.0000 
     65 DU          8.6400  -46.7600   75.9500 H         6 CUB7        0.0000 
     66 DU         10.0800  -46.7400   75.5200 H         6 CUB7        0.0000 
     67 DU          8.3200  -45.7000   74.9500 H         6 CUB7        0.0000 
@<TRIPOS>BOND
@<TRIPOS>SUBSTRUCTURE
     1 SER1        1 GROUP   
     2 ALA2       10 GROUP   
     3 LYS4       20 GROUP   
     4 PHE5       22 GROUP   
     5 GLY6       42 GROUP   
     6 CUB7       63 GROUP   
@<TRIPOS>SET

