#    Name: 6hyc_1_H4B_CAVITY_N1_4
#    Modification time : Fri May 22 19:33:49 2020

@<TRIPOS>MOLECULE
6hyc_1_H4B_CAVITY_N1_4
   70     0     6     0     0
SMALL
NO_CHARGES


@<TRIPOS>ATOM
      1 OG         -4.2700   -5.0400   25.8100 O.3       1 SER1        0.0000 
      2 OG         -6.0300   -4.0100   25.2500 O.3       1 SER1        0.0000 
      3 OG         -6.3500   -2.9400   24.2400 O.3       1 SER1        0.0000 
      4 OG         -5.4100   -4.0200   27.2800 O.3       1 SER1        0.0000 
      5 OG         -5.7400   -2.9500   26.2700 O.3       1 SER1        0.0000 
      6 OG         -6.0600   -1.8900   25.2700 O.3       1 SER1        0.0000 
      7 OG         -0.4900   -3.9400   28.0000 O.3       1 SER1        0.0000 
      8 N          -5.0500   -7.2100   28.2600 N.am      2 ALA2        0.0000 
      9 N          -3.9400   -6.1100   26.8200 N.am      2 ALA2        0.0000 
     10 N          -5.1200   -2.9600   28.3000 N.am      2 ALA2        0.0000 
     11 N          -4.5100   -2.9800   30.3300 N.am      2 ALA2        0.0000 
     12 N          -4.8300   -1.9100   29.3300 N.am      2 ALA2        0.0000 
     13 O          -4.2200   -1.9200   31.3600 O.2       2 ALA2        0.0000 
     14 O          -2.4900   -0.8400   31.9500 O.2       2 ALA2        0.0000 
     15 N          -0.4400   -0.8200   33.5500 N.am      2 ALA2        0.0000 
     16 N          -0.7700    0.2400   32.5400 N.am      2 ALA2        0.0000 
     17 NZ          0.4100   -2.9000   31.0600 N.4       3 LYS4        0.0000 
     18 NZ          0.0900   -1.8400   30.0500 N.4       3 LYS4        0.0000 
     19 NZ          0.7000   -1.8500   32.0800 N.4       3 LYS4        0.0000 
     20 NZ          0.3800   -0.7800   31.0800 N.4       3 LYS4        0.0000 
     21 CZ         -2.1800   -7.1500   27.3900 C.ar      4 PHE5        0.0000 
     22 CZ         -2.5100   -6.0800   26.3800 C.ar      4 PHE5        0.0000 
     23 CZ         -1.0700   -6.0500   25.9500 C.ar      4 PHE5        0.0000 
     24 CZ         -2.8300   -5.0200   25.3800 C.ar      4 PHE5        0.0000 
     25 CZ         -4.5900   -3.9800   24.8100 C.ar      4 PHE5        0.0000 
     26 CZ         -4.9200   -2.9100   23.8100 C.ar      4 PHE5        0.0000 
     27 CZ         -2.2200   -5.0300   27.4100 C.ar      4 PHE5        0.0000 
     28 CZ         -0.7800   -5.0000   26.9700 C.ar      4 PHE5        0.0000 
     29 CZ         -3.9800   -3.9900   26.8400 C.ar      4 PHE5        0.0000 
     30 CZ         -2.5400   -3.9600   26.4100 C.ar      4 PHE5        0.0000 
     31 CZ         -4.3000   -2.9200   25.8400 C.ar      4 PHE5        0.0000 
     32 CZ         -4.6300   -1.8600   24.8400 C.ar      4 PHE5        0.0000 
     33 CZ          0.9400   -3.9200   27.5700 C.ar      4 PHE5        0.0000 
     34 CZ         -3.6900   -2.9400   27.8700 C.ar      4 PHE5        0.0000 
     35 CZ         -2.2500   -2.9100   27.4300 C.ar      4 PHE5        0.0000 
     36 CZ         -0.2000   -2.8900   29.0300 C.ar      4 PHE5        0.0000 
     37 CZ          1.2300   -2.8600   28.5900 C.ar      4 PHE5        0.0000 
     38 CZ         -3.4000   -1.8800   28.9000 C.ar      4 PHE5        0.0000 
     39 CZ         -1.9600   -1.8500   28.4600 C.ar      4 PHE5        0.0000 
     40 CZ         -1.3500   -1.8700   30.4900 C.ar      4 PHE5        0.0000 
     41 CZ         -1.0600   -0.8100   31.5200 C.ar      4 PHE5        0.0000 
     42 CA         -4.7300   -8.2700   29.2600 C.3       5 GLY6        0.0000 
     43 CA         -3.6200   -7.1800   27.8200 C.3       5 GLY6        0.0000 
     44 CA         -4.4400   -7.2200   30.2900 C.3       5 GLY6        0.0000 
     45 CA         -3.0000   -7.1900   29.8500 C.3       5 GLY6        0.0000 
     46 CA         -4.7600   -6.1500   29.2800 C.3       5 GLY6        0.0000 
     47 CA         -3.3300   -6.1200   28.8500 C.3       5 GLY6        0.0000 
     48 CA         -0.4600   -6.0700   27.9800 C.3       5 GLY6        0.0000 
     49 CA         -5.0900   -5.0900   28.2800 C.3       5 GLY6        0.0000 
     50 CA         -1.2800   -6.1100   30.4400 C.3       5 GLY6        0.0000 
     51 CA         -1.6000   -5.0400   29.4400 C.3       5 GLY6        0.0000 
     52 CA         -0.1700   -5.0100   29.0000 C.3       5 GLY6        0.0000 
     53 CA          1.2700   -4.9800   28.5700 C.3       5 GLY6        0.0000 
     54 CA         -4.8000   -4.0300   29.3100 C.3       5 GLY6        0.0000 
     55 CA         -3.3600   -4.0000   28.8700 C.3       5 GLY6        0.0000 
     56 CA         -5.4500   -1.9000   27.3000 C.3       5 GLY6        0.0000 
     57 CA         -1.3100   -3.9900   30.4700 C.3       5 GLY6        0.0000 
     58 CA          0.1200   -3.9600   30.0300 C.3       5 GLY6        0.0000 
     59 CA          1.5600   -3.9300   29.6000 C.3       5 GLY6        0.0000 
     60 CA         -3.0700   -2.9500   29.9000 C.3       5 GLY6        0.0000 
     61 CA         -1.6400   -2.9200   29.4600 C.3       5 GLY6        0.0000 
     62 CA         -1.0200   -2.9300   31.4900 C.3       5 GLY6        0.0000 
     63 CA         -2.7800   -1.8900   30.9300 C.3       5 GLY6        0.0000 
     64 CA         -0.4000   -2.9400   33.5200 C.3       5 GLY6        0.0000 
     65 CA         -2.1700   -1.9100   32.9600 C.3       5 GLY6        0.0000 
     66 CA         -0.7300   -1.8800   32.5200 C.3       5 GLY6        0.0000 
     67 DU         -3.2900   -8.2400   28.8200 H         6 CUB7        0.0000 
     68 DU         -1.8900   -6.0900   28.4100 H         6 CUB7        0.0000 
     69 DU         -3.6500   -5.0600   27.8400 H         6 CUB7        0.0000 
     70 DU         -1.9300   -3.9700   28.4400 H         6 CUB7        0.0000 
@<TRIPOS>BOND
@<TRIPOS>SUBSTRUCTURE
     1 SER1        1 GROUP   
     2 ALA2        8 GROUP   
     3 LYS4       17 GROUP   
     4 PHE5       21 GROUP   
     5 GLY6       42 GROUP   
     6 CUB7       67 GROUP   
@<TRIPOS>SET

