#    Name: 6hyc_2_H4B_CAVITY_N1_12
#    Modification time : Fri May 22 19:33:53 2020

@<TRIPOS>MOLECULE
6hyc_2_H4B_CAVITY_N1_12
   64     0     6     0     0
SMALL
NO_CHARGES


@<TRIPOS>ATOM
      1 OG          4.4300    8.3900   70.9200 O.3       1 SER1        0.0000 
      2 OG          5.3400    9.4300   73.9800 O.3       1 SER1        0.0000 
      3 OG          6.7800    9.4600   73.5400 O.3       1 SER1        0.0000 
      4 N          -1.6300    9.3400   71.6600 N.am      2 ALA2        0.0000 
      5 N           4.7200    9.4400   71.9500 N.am      2 ALA2        0.0000 
      6 N           0.0900   10.4200   72.2500 N.am      2 ALA2        0.0000 
      7 N           1.5300   10.4500   71.8100 N.am      2 ALA2        0.0000 
      8 N           2.9600   10.4800   71.3800 N.am      2 ALA2        0.0000 
      9 N          -0.2300   11.4900   71.2400 N.am      2 ALA2        0.0000 
     10 N           3.2500   11.5300   72.4000 N.am      2 ALA2        0.0000 
     11 N           4.6900   11.5600   71.9700 N.am      2 ALA2        0.0000 
     12 N           6.1200   11.5900   71.5300 N.am      2 ALA2        0.0000 
     13 N           2.9300   12.6000   71.4000 N.am      2 ALA2        0.0000 
     14 N           5.8000   12.6600   70.5300 N.am      2 ALA2        0.0000 
     15 N           5.6300   10.4800   75.0000 N.am      2 ALA2        0.0000 
     16 N           2.4300   11.4900   74.8700 N.am      2 ALA2        0.0000 
     17 N           2.1100   12.5600   73.8700 N.am      2 ALA2        0.0000 
     18 N           3.8300   13.6400   74.4600 N.am      2 ALA2        0.0000 
     19 NZ          2.1800    8.3200   73.8200 N.4       3 LYS4        0.0000 
     20 NZ          2.8000    8.3000   75.8500 N.4       3 LYS4        0.0000 
     21 NZ          4.2300    8.3300   75.4100 N.4       3 LYS4        0.0000 
     22 CZ          3.3300    7.2900   72.3600 C.ar      4 PHE5        0.0000 
     23 CZ          0.7400    8.2900   74.2500 C.ar      4 PHE5        0.0000 
     24 CZ          3.6200    8.3500   73.3800 C.ar      4 PHE5        0.0000 
     25 CZ          5.0500    8.3700   72.9500 C.ar      4 PHE5        0.0000 
     26 CZ          6.4900    8.4000   72.5100 C.ar      4 PHE5        0.0000 
     27 CZ         -1.0200    9.3300   73.6900 C.ar      4 PHE5        0.0000 
     28 CZ          1.0400    9.3400   75.2800 C.ar      4 PHE5        0.0000 
     29 CZ          2.4700    9.3700   74.8500 C.ar      4 PHE5        0.0000 
     30 CZ          0.7100   10.4100   74.2800 C.ar      4 PHE5        0.0000 
     31 CZ          2.7600   10.4200   75.8700 C.ar      4 PHE5        0.0000 
     32 CZ          4.2000   10.4500   75.4400 C.ar      4 PHE5        0.0000 
     33 CZ          5.9200   11.5400   76.0300 C.ar      4 PHE5        0.0000 
     34 CZ          4.1600   12.5700   75.4600 C.ar      4 PHE5        0.0000 
     35 CA          0.1300    8.3000   72.2200 C.3       5 GLY6        0.0000 
     36 CA          1.5600    8.3300   71.7900 C.3       5 GLY6        0.0000 
     37 CA          3.0000    8.3600   71.3500 C.3       5 GLY6        0.0000 
     38 CA          5.8700    8.4200   70.4800 C.3       5 GLY6        0.0000 
     39 CA          6.1600    9.4700   71.5100 C.3       5 GLY6        0.0000 
     40 CA          7.6000    9.5000   71.0800 C.3       5 GLY6        0.0000 
     41 CA         -1.3400   10.3900   72.6800 C.3       5 GLY6        0.0000 
     42 CA          5.8300   10.5400   70.5100 C.3       5 GLY6        0.0000 
     43 CA          5.6700    8.3600   74.9800 C.3       5 GLY6        0.0000 
     44 CA          6.4500   10.5200   72.5400 C.3       5 GLY6        0.0000 
     45 CA          7.8900   10.5500   72.1000 C.3       5 GLY6        0.0000 
     46 CA          0.3800   11.4800   73.2700 C.3       5 GLY6        0.0000 
     47 CA          7.5600   11.6200   71.1000 C.3       5 GLY6        0.0000 
     48 CA          1.4900   12.5700   71.8400 C.3       5 GLY6        0.0000 
     49 CA          7.0700   10.5100   74.5700 C.3       5 GLY6        0.0000 
     50 CA          6.7400   11.5800   73.5600 C.3       5 GLY6        0.0000 
     51 CA          6.4100   12.6400   72.5600 C.3       5 GLY6        0.0000 
     52 CA          5.6000   12.6000   75.0300 C.3       5 GLY6        0.0000 
     53 DU          0.4200    9.3500   73.2500 H         6 CUB7        0.0000 
     54 DU          1.8500    9.3800   72.8200 H         6 CUB7        0.0000 
     55 DU          3.2900    9.4100   72.3800 H         6 CUB7        0.0000 
     56 DU          3.9100    9.4000   74.4100 H         6 CUB7        0.0000 
     57 DU          2.1400   10.4400   73.8400 H         6 CUB7        0.0000 
     58 DU          3.5800   10.4700   73.4100 H         6 CUB7        0.0000 
     59 DU          5.0100   10.5000   72.9700 H         6 CUB7        0.0000 
     60 DU          1.8200   11.5000   72.8400 H         6 CUB7        0.0000 
     61 DU          3.8700   11.5200   74.4300 H         6 CUB7        0.0000 
     62 DU          5.3100   11.5500   74.0000 H         6 CUB7        0.0000 
     63 DU          3.5400   12.5900   73.4300 H         6 CUB7        0.0000 
     64 DU          4.9800   12.6200   73.0000 H         6 CUB7        0.0000 
@<TRIPOS>BOND
@<TRIPOS>SUBSTRUCTURE
     1 SER1        1 GROUP   
     2 ALA2        4 GROUP   
     3 LYS4       19 GROUP   
     4 PHE5       22 GROUP   
     5 GLY6       35 GROUP   
     6 CUB7       53 GROUP   
@<TRIPOS>SET

