#    Name: 5od3_3_NAD
#    Modification time : Fri May 22 19:21:27 2020

@<TRIPOS>MOLECULE
5od3_3_NAD
   44    48     1     0     1
SMALL
NO_CHARGES


@<TRIPOS>ATOM
      1 PA         23.1810  -13.8990  101.6890 P.3       1 NAD503      0.0000 
      2 O1A        22.9350  -14.7050  102.9510 O.co2     1 NAD503      0.0000 
      3 O2A        22.5500  -12.5890  101.3270 O.co2     1 NAD503      0.0000 
      4 O5B        22.8340  -14.8070  100.4280 O.3       1 NAD503      0.0000 
      5 C5B        23.1130  -16.1600  100.3150 C.3       1 NAD503      0.0000 
      6 C4B        22.3530  -16.6810   99.1020 C.3       1 NAD503      0.0000 
      7 O4B        23.0730  -17.8450   98.7450 O.3       1 NAD503      0.0000 
      8 C3B        20.8690  -17.0710   99.2440 C.3       1 NAD503      0.0000 
      9 O3B        20.0640  -16.6180   98.1360 O.3       1 NAD503      0.0000 
     10 C2B        20.9150  -18.5760   99.2440 C.3       1 NAD503      0.0000 
     11 O2B        19.7820  -19.2710   98.7390 O.3       1 NAD503      0.0000 
     12 C1B        22.1510  -18.8370   98.3600 C.3       1 NAD503      0.0000 
     13 N9A        22.7790  -20.1390   98.5570 N.pl3     1 NAD503      0.0000 
     14 C8A        23.1670  -20.6790   99.7390 C.2       1 NAD503      0.0000 
     15 N7A        23.7060  -21.8850   99.5320 N.2       1 NAD503      0.0000 
     16 C5A        23.6900  -22.1260   98.2020 C.ar      1 NAD503      0.0000 
     17 C6A        24.1240  -23.1890   97.2790 C.ar      1 NAD503      0.0000 
     18 N6A        24.6860  -24.3060   97.7570 N.pl3     1 NAD503      0.0000 
     19 N1A        23.9240  -23.0470   95.9400 N.ar      1 NAD503      0.0000 
     20 C2A        23.3590  -21.9430   95.4510 C.ar      1 NAD503      0.0000 
     21 N3A        22.9340  -20.9320   96.2180 N.ar      1 NAD503      0.0000 
     22 C4A        23.0760  -20.9650   97.5630 C.ar      1 NAD503      0.0000 
     23 O3         24.8000  -13.8290  101.5940 O.3       1 NAD503      0.0000 
     24 PN         25.6110  -12.5180  101.2160 P.3       1 NAD503      0.0000 
     25 O1N        25.6530  -11.4670  102.3010 O.co2     1 NAD503      0.0000 
     26 O2N        25.1720  -12.0900   99.8320 O.co2     1 NAD503      0.0000 
     27 O5D        27.1250  -13.0880  101.1680 O.3       1 NAD503      0.0000 
     28 C5D        27.4650  -14.1680  100.2730 C.3       1 NAD503      0.0000 
     29 C4D        28.8880  -14.6080  100.5830 C.3       1 NAD503      0.0000 
     30 O4D        29.8340  -13.5570  100.2660 O.3       1 NAD503      0.0000 
     31 C3D        29.0760  -14.9830  102.0600 C.3       1 NAD503      0.0000 
     32 O3D        29.8270  -16.1860  102.2030 O.3       1 NAD503      0.0000 
     33 C2D        29.8420  -13.8140  102.6210 C.3       1 NAD503      0.0000 
     34 O2D        30.5750  -14.1710  103.7960 O.3       1 NAD503      0.0000 
     35 C1D        30.7130  -13.4810  101.3880 C.3       1 NAD503      0.0000 
     36 N1N        31.3910  -12.2000  101.3290 N.pl3     1 NAD503      0.0000 
     37 C2N        32.6620  -12.1850  100.8630 C.ar      1 NAD503      0.0000 
     38 C3N        33.4120  -11.0140  100.7780 C.ar      1 NAD503      0.0000 
     39 C7N        34.8140  -10.9860  100.2150 C.2       1 NAD503      0.0000 
     40 O7N        35.5190  -10.0070  100.3960 O.2       1 NAD503      0.0000 
     41 N7N        35.2590  -11.9760   99.4430 N.am      1 NAD503      0.0000 
     42 C4N        32.7800   -9.8160  101.1230 C.ar      1 NAD503      0.0000 
     43 C5N        31.4430   -9.8470  101.5580 C.ar      1 NAD503      0.0000 
     44 C6N        30.7670  -11.0530  101.6460 C.ar      1 NAD503      0.0000 
@<TRIPOS>BOND
     1    1    2 ar   
     2    1    3 ar   
     3    1    4 1    
     4    1   23 1    
     5    4    5 1    
     6    5    6 1    
     7    6    7 1    
     8    6    8 1    
     9    7   12 1    
    10    8    9 1    
    11    8   10 1    
    12   10   11 1    
    13   10   12 1    
    14   12   13 1    
    15   13   14 1    
    16   13   22 1    
    17   14   15 2    
    18   15   16 1    
    19   16   17 ar   
    20   16   22 ar   
    21   17   18 1    
    22   17   19 ar   
    23   19   20 ar   
    24   20   21 ar   
    25   21   22 ar   
    26   23   24 1    
    27   24   25 ar   
    28   24   26 ar   
    29   24   27 1    
    30   27   28 1    
    31   28   29 1    
    32   29   30 1    
    33   29   31 1    
    34   30   35 1    
    35   31   32 1    
    36   31   33 1    
    37   33   34 1    
    38   33   35 1    
    39   35   36 1    
    40   36   37 ar   
    41   36   44 ar   
    42   37   38 ar   
    43   38   39 1    
    44   38   42 ar   
    45   39   40 2    
    46   39   41 am   
    47   42   43 ar   
    48   43   44 ar   
@<TRIPOS>SUBSTRUCTURE
     1 NAD503      1 GROUP   
@<TRIPOS>SET
ATOM$ORANGE STATIC     ATOMS   COLORGROUP SYSTEM 
42 5 5 6 6 8 8 10 10 12 12 14 14 16 16 17 17 20 \
20 22 22 28 28 29 29 31 31 33 33 35 35 37 37 38 38 39 \
39 42 42 43 43 44 44 

