#    Name: 5od3_1_NAD
#    Modification time : Fri May 22 19:21:18 2020

@<TRIPOS>MOLECULE
5od3_1_NAD
   44    48     1     0     1
SMALL
NO_CHARGES


@<TRIPOS>ATOM
      1 PA         67.6330   18.9350   78.9400 P.3       1 NAD503      0.0000 
      2 O1A        67.9590   20.3480   78.6870 O.co2     1 NAD503      0.0000 
      3 O2A        68.2970   18.1080   80.0310 O.co2     1 NAD503      0.0000 
      4 O5B        67.8480   18.0700   77.6260 O.3       1 NAD503      0.0000 
      5 C5B        68.1170   18.6530   76.3910 C.3       1 NAD503      0.0000 
      6 C4B        68.6920   17.5730   75.4970 C.3       1 NAD503      0.0000 
      7 O4B        67.8920   17.6470   74.3290 O.3       1 NAD503      0.0000 
      8 C3B        70.1380   17.8070   75.0950 C.3       1 NAD503      0.0000 
      9 O3B        70.9020   16.6010   75.0460 O.3       1 NAD503      0.0000 
     10 C2B        70.0190   18.4050   73.7090 C.3       1 NAD503      0.0000 
     11 O2B        71.1190   18.1330   72.8610 O.3       1 NAD503      0.0000 
     12 C1B        68.7720   17.6800   73.2240 C.3       1 NAD503      0.0000 
     13 N9A        68.1030   18.2940   72.0780 N.pl3     1 NAD503      0.0000 
     14 C8A        67.7310   19.5920   71.9480 C.2       1 NAD503      0.0000 
     15 N7A        67.1440   19.7820   70.7500 N.2       1 NAD503      0.0000 
     16 C5A        67.1640   18.6030   70.0900 C.ar      1 NAD503      0.0000 
     17 C6A        66.6810   18.1250   68.8230 C.ar      1 NAD503      0.0000 
     18 N6A        66.0930   18.9910   67.9520 N.pl3     1 NAD503      0.0000 
     19 N1A        66.8440   16.8110   68.5220 N.ar      1 NAD503      0.0000 
     20 C2A        67.4350   15.9590   69.4030 C.ar      1 NAD503      0.0000 
     21 N3A        67.9080   16.3440   70.5870 N.ar      1 NAD503      0.0000 
     22 C4A        67.7980   17.6280   70.9730 C.ar      1 NAD503      0.0000 
     23 O3         66.0140   18.7990   79.0570 O.3       1 NAD503      0.0000 
     24 PN         65.1890   17.9570   80.1850 P.3       1 NAD503      0.0000 
     25 O1N        65.2930   18.7320   81.5050 O.co2     1 NAD503      0.0000 
     26 O2N        65.6050   16.5010   80.0660 O.co2     1 NAD503      0.0000 
     27 O5D        63.6880   18.1990   79.6650 O.3       1 NAD503      0.0000 
     28 C5D        63.3030   17.6710   78.3970 C.3       1 NAD503      0.0000 
     29 C4D        61.9480   18.2170   77.9890 C.3       1 NAD503      0.0000 
     30 O4D        60.9300   17.5580   78.7290 O.3       1 NAD503      0.0000 
     31 C3D        61.7650   19.7310   78.1840 C.3       1 NAD503      0.0000 
     32 O3D        61.0400   20.2190   77.0440 O.3       1 NAD503      0.0000 
     33 C2D        60.9660   19.7890   79.4510 C.3       1 NAD503      0.0000 
     34 O2D        60.2530   21.0210   79.5580 O.3       1 NAD503      0.0000 
     35 C1D        60.0860   18.5490   79.3120 C.3       1 NAD503      0.0000 
     36 N1N        59.4490   17.9940   80.5130 N.pl3     1 NAD503      0.0000 
     37 C2N        58.1840   17.5830   80.3700 C.ar      1 NAD503      0.0000 
     38 C3N        57.4570   17.0180   81.3950 C.ar      1 NAD503      0.0000 
     39 C7N        56.0560   16.5420   81.1780 C.2       1 NAD503      0.0000 
     40 O7N        55.3580   16.3080   82.1680 O.2       1 NAD503      0.0000 
     41 N7N        55.5710   16.2790   79.9370 N.am      1 NAD503      0.0000 
     42 C4N        58.0870   16.8720   82.6390 C.ar      1 NAD503      0.0000 
     43 C5N        59.4290   17.2690   82.7720 C.ar      1 NAD503      0.0000 
     44 C6N        60.0930   17.8410   81.7000 C.ar      1 NAD503      0.0000 
@<TRIPOS>BOND
     1    1    2 ar   
     2    1    3 ar   
     3    1    4 1    
     4    1   23 1    
     5    4    5 1    
     6    5    6 1    
     7    6    7 1    
     8    6    8 1    
     9    7   12 1    
    10    8    9 1    
    11    8   10 1    
    12   10   11 1    
    13   10   12 1    
    14   12   13 1    
    15   13   14 1    
    16   13   22 1    
    17   14   15 2    
    18   15   16 1    
    19   16   17 ar   
    20   16   22 ar   
    21   17   18 1    
    22   17   19 ar   
    23   19   20 ar   
    24   20   21 ar   
    25   21   22 ar   
    26   23   24 1    
    27   24   25 ar   
    28   24   26 ar   
    29   24   27 1    
    30   27   28 1    
    31   28   29 1    
    32   29   30 1    
    33   29   31 1    
    34   30   35 1    
    35   31   32 1    
    36   31   33 1    
    37   33   34 1    
    38   33   35 1    
    39   35   36 1    
    40   36   37 ar   
    41   36   44 ar   
    42   37   38 ar   
    43   38   39 1    
    44   38   42 ar   
    45   39   40 2    
    46   39   41 am   
    47   42   43 ar   
    48   43   44 ar   
@<TRIPOS>SUBSTRUCTURE
     1 NAD503      1 GROUP   
@<TRIPOS>SET
ATOM$ORANGE STATIC     ATOMS   COLORGROUP SYSTEM 
42 5 5 6 6 8 8 10 10 12 12 14 14 16 16 17 17 20 \
20 22 22 28 28 29 29 31 31 33 33 35 35 37 37 38 38 39 \
39 42 42 43 43 44 44 

