#    Name: 5od3_2_NAD
#    Modification time : Fri May 22 19:21:22 2020

@<TRIPOS>MOLECULE
5od3_2_NAD
   44    48     1     0     1
SMALL
NO_CHARGES


@<TRIPOS>ATOM
      1 PA         63.4460  -31.1340   83.5660 P.3       1 NAD503      0.0000 
      2 O1A        63.5210  -32.5880   83.9380 O.co2     1 NAD503      0.0000 
      3 O2A        64.3830  -30.4910   82.6150 O.co2     1 NAD503      0.0000 
      4 O5B        63.6630  -30.3340   84.9070 O.3       1 NAD503      0.0000 
      5 C5B        63.5180  -30.8820   86.1840 C.3       1 NAD503      0.0000 
      6 C4B        64.1950  -29.8820   87.0850 C.3       1 NAD503      0.0000 
      7 O4B        63.3310  -29.8070   88.1990 O.3       1 NAD503      0.0000 
      8 C3B        65.5770  -30.2870   87.5740 C.3       1 NAD503      0.0000 
      9 O3B        66.4390  -29.1440   87.6910 O.3       1 NAD503      0.0000 
     10 C2B        65.2680  -30.8800   88.9550 C.3       1 NAD503      0.0000 
     11 O2B        66.2940  -30.7270   89.9180 O.3       1 NAD503      0.0000 
     12 C1B        64.1050  -30.0000   89.3580 C.3       1 NAD503      0.0000 
     13 N9A        63.2440  -30.5160   90.4400 N.pl3     1 NAD503      0.0000 
     14 C8A        62.6540  -31.7220   90.5020 C.2       1 NAD503      0.0000 
     15 N7A        61.9300  -31.8160   91.6470 N.2       1 NAD503      0.0000 
     16 C5A        62.0660  -30.6570   92.3200 C.ar      1 NAD503      0.0000 
     17 C6A        61.5590  -30.0630   93.5590 C.ar      1 NAD503      0.0000 
     18 N6A        60.7490  -30.7680   94.3950 N.pl3     1 NAD503      0.0000 
     19 N1A        61.9200  -28.7970   93.8710 N.ar      1 NAD503      0.0000 
     20 C2A        62.6990  -28.0650   93.0570 C.ar      1 NAD503      0.0000 
     21 N3A        63.2100  -28.5610   91.9160 N.ar      1 NAD503      0.0000 
     22 C4A        62.9100  -29.7920   91.4950 C.ar      1 NAD503      0.0000 
     23 O3         61.9010  -30.8230   83.2140 O.3       1 NAD503      0.0000 
     24 PN         61.3750  -29.8360   81.9940 P.3       1 NAD503      0.0000 
     25 O1N        61.4160  -30.6180   80.7040 O.co2     1 NAD503      0.0000 
     26 O2N        61.9400  -28.4770   82.2710 O.co2     1 NAD503      0.0000 
     27 O5D        59.8290  -29.8360   82.4090 O.3       1 NAD503      0.0000 
     28 C5D        59.3640  -29.2300   83.6260 C.3       1 NAD503      0.0000 
     29 C4D        57.8790  -29.5500   83.8840 C.3       1 NAD503      0.0000 
     30 O4D        57.0270  -28.7610   83.0580 O.3       1 NAD503      0.0000 
     31 C3D        57.4870  -31.0120   83.6490 C.3       1 NAD503      0.0000 
     32 O3D        56.5480  -31.3820   84.6600 O.3       1 NAD503      0.0000 
     33 C2D        56.8550  -30.9580   82.2800 C.3       1 NAD503      0.0000 
     34 O2D        55.9550  -32.0070   82.0590 O.3       1 NAD503      0.0000 
     35 C1D        56.1170  -29.6260   82.3770 C.3       1 NAD503      0.0000 
     36 N1N        55.6750  -28.9900   81.1290 N.pl3     1 NAD503      0.0000 
     37 C2N        54.4790  -28.3500   81.1600 C.ar      1 NAD503      0.0000 
     38 C3N        53.9570  -27.6880   80.0540 C.ar      1 NAD503      0.0000 
     39 C7N        52.6430  -26.9650   80.0950 C.2       1 NAD503      0.0000 
     40 O7N        52.0920  -26.5830   79.0540 O.2       1 NAD503      0.0000 
     41 N7N        52.1180  -26.6210   81.2930 N.am      1 NAD503      0.0000 
     42 C4N        54.7500  -27.6750   78.9020 C.ar      1 NAD503      0.0000 
     43 C5N        56.0150  -28.2760   78.9010 C.ar      1 NAD503      0.0000 
     44 C6N        56.4780  -28.9330   80.0380 C.ar      1 NAD503      0.0000 
@<TRIPOS>BOND
     1    1    2 ar   
     2    1    3 ar   
     3    1    4 1    
     4    1   23 1    
     5    4    5 1    
     6    5    6 1    
     7    6    7 1    
     8    6    8 1    
     9    7   12 1    
    10    8    9 1    
    11    8   10 1    
    12   10   11 1    
    13   10   12 1    
    14   12   13 1    
    15   13   14 1    
    16   13   22 1    
    17   14   15 2    
    18   15   16 1    
    19   16   17 ar   
    20   16   22 ar   
    21   17   18 1    
    22   17   19 ar   
    23   19   20 ar   
    24   20   21 ar   
    25   21   22 ar   
    26   23   24 1    
    27   24   25 ar   
    28   24   26 ar   
    29   24   27 1    
    30   27   28 1    
    31   28   29 1    
    32   29   30 1    
    33   29   31 1    
    34   30   35 1    
    35   31   32 1    
    36   31   33 1    
    37   33   34 1    
    38   33   35 1    
    39   35   36 1    
    40   36   37 ar   
    41   36   44 ar   
    42   37   38 ar   
    43   38   39 1    
    44   38   42 ar   
    45   39   40 2    
    46   39   41 am   
    47   42   43 ar   
    48   43   44 ar   
@<TRIPOS>SUBSTRUCTURE
     1 NAD503      1 GROUP   
@<TRIPOS>SET
ATOM$ORANGE STATIC     ATOMS   COLORGROUP SYSTEM 
42 5 5 6 6 8 8 10 10 12 12 14 14 16 16 17 17 20 \
20 22 22 28 28 29 29 31 31 33 33 35 35 37 37 38 38 39 \
39 42 42 43 43 44 44 

