#    Name: 6ot0_1_CO1
#    Modification time : Fri May 22 19:30:43 2020

@<TRIPOS>MOLECULE
6ot0_1_CO1
   29    33     1     0     0
SMALL
NO_CHARGES


@<TRIPOS>ATOM
      1 O24       164.6730  121.1670  170.0890 O.3       1 CO1601      0.0000 
      2 C22       164.8450  122.5680  169.7520 C.3       1 CO1601      0.0000 
      3 C18       163.4250  123.2020  169.4900 C.3       1 CO1601      0.0000 
      4 C14       163.4850  124.6260  168.8340 C.2       1 CO1601      0.0000 
      5 C9        162.6710  125.6280  169.3090 C.2       1 CO1601      0.0000 
      6 C4        162.7500  127.0430  168.7610 C.3       1 CO1601      0.0000 
      7 C1        163.3370  127.1140  167.3170 C.3       1 CO1601      0.0000 
      8 C3        164.7540  126.4050  167.3010 C.3       1 CO1601      0.0000 
      9 C8        165.6500  126.7140  166.0300 C.3       1 CO1601      0.0000 
     10 C11       165.4230  128.1480  165.4970 C.3       1 CO1601      0.0000 
     11 C5        163.8860  128.5720  165.3160 C.3       1 CO1601      0.0000 
     12 C12       163.0650  127.5910  164.3460 C.3       1 CO1601      0.0000 
     13 C10       163.6530  130.0980  165.0070 C.3       1 CO1601      0.0000 
     14 C13       162.2840  130.4530  165.6330 C.3       1 CO1601      0.0000 
     15 C6        162.0800  129.3940  166.7300 C.3       1 CO1601      0.0000 
     16 C2        163.3890  128.5780  166.7790 C.3       1 CO1601      0.0000 
     17 C17       163.7290  130.4920  163.4650 C.3       1 CO1601      0.0000 
     18 C21       164.6520  129.6470  162.5270 C.3       1 CO1601      0.0000 
     19 C20       164.0940  131.9720  163.2880 C.3       1 CO1601      0.0000 
     20 C23       164.1350  132.4770  161.8460 C.3       1 CO1601      0.0000 
     21 C25       162.9060  132.0280  161.0310 C.3       1 CO1601      0.0000 
     22 O27       162.8380  130.9180  160.1800 O.3       1 CO1601      0.0000 
     23 C26       162.8380  132.2450  159.5400 C.3       1 CO1601      0.0000 
     24 C28       161.5250  132.8460  158.9530 C.3       1 CO1601      0.0000 
     25 C29       164.0890  132.4760  158.7060 C.3       1 CO1601      0.0000 
     26 C7        164.5220  124.8300  167.5940 C.3       1 CO1601      0.0000 
     27 C16       163.9400  124.0860  166.3190 C.3       1 CO1601      0.0000 
     28 C15       165.8970  124.2100  168.0220 C.3       1 CO1601      0.0000 
     29 C19       165.8340  122.7570  168.5390 C.3       1 CO1601      0.0000 
@<TRIPOS>BOND
     1    1    2 1    
     2    2    3 1    
     3    2   29 1    
     4    3    4 1    
     5    4    5 2    
     6    4   26 1    
     7    5    6 1    
     8    6    7 1    
     9    7    8 1    
    10    7   16 1    
    11    8    9 1    
    12    8   26 1    
    13    9   10 1    
    14   10   11 1    
    15   11   12 1    
    16   11   13 1    
    17   11   16 1    
    18   13   14 1    
    19   13   17 1    
    20   14   15 1    
    21   15   16 1    
    22   17   18 1    
    23   17   19 1    
    24   19   20 1    
    25   20   21 1    
    26   21   22 1    
    27   21   23 1    
    28   22   23 1    
    29   23   24 1    
    30   23   25 1    
    31   26   27 1    
    32   26   28 1    
    33   28   29 1    
@<TRIPOS>SUBSTRUCTURE
     1 CO1601      1 GROUP   
@<TRIPOS>SET

