#    Name: 6fa4_5_GNP
#    Modification time : Fri May 22 19:26:14 2020

@<TRIPOS>MOLECULE
6fa4_5_GNP
   32    34     1     0     1
SMALL
NO_CHARGES


@<TRIPOS>ATOM
      1 PG         36.8570   98.5190   58.7000 P.3       1 GNP202      0.0000 
      2 O1G        36.4470   99.0830   57.2730 O.co2     1 GNP202      0.0000 
      3 O2G        37.0250   97.0450   58.5620 O.co2     1 GNP202      0.0000 
      4 O3G        35.8610   98.9970   59.8180 O.co2     1 GNP202      0.0000 
      5 N3B        38.3010   99.2750   59.2430 N.3       1 GNP202      0.0000 
      6 PB         39.7360   99.3650   58.2720 P.3       1 GNP202      0.0000 
      7 O1B        39.3690   99.8340   56.9060 O.co2     1 GNP202      0.0000 
      8 O2B        40.5900   98.0760   58.2790 O.co2     1 GNP202      0.0000 
      9 O3A        40.5370  100.5960   58.9790 O.3       1 GNP202      0.0000 
     10 PA         40.5750  102.1770   58.5650 P.3       1 GNP202      0.0000 
     11 O1A        41.3320  102.3730   57.2720 O.co2     1 GNP202      0.0000 
     12 O2A        39.1900  102.6870   58.6150 O.co2     1 GNP202      0.0000 
     13 O5'        41.6260  102.7320   59.6530 O.3       1 GNP202      0.0000 
     14 C5'        41.2690  102.5480   61.0190 C.3       1 GNP202      0.0000 
     15 C4'        41.9700  103.5670   61.9000 C.3       1 GNP202      0.0000 
     16 O4'        43.3830  103.3480   62.0080 O.3       1 GNP202      0.0000 
     17 C3'        41.7760  104.9630   61.3890 C.3       1 GNP202      0.0000 
     18 O3'        41.7150  105.8020   62.5330 O.3       1 GNP202      0.0000 
     19 C2'        43.0650  105.2760   60.6580 C.3       1 GNP202      0.0000 
     20 O2'        43.2980  106.6740   60.5690 O.3       1 GNP202      0.0000 
     21 C1'        44.0810  104.5090   61.4880 C.3       1 GNP202      0.0000 
     22 N9         45.2100  104.0170   60.6780 N.pl3     1 GNP202      0.0000 
     23 C8         45.0740  103.2410   59.5750 C.2       1 GNP202      0.0000 
     24 N7         46.2570  102.8890   59.0780 N.2       1 GNP202      0.0000 
     25 C5         47.1900  103.4600   59.8400 C.2       1 GNP202      0.0000 
     26 C6         48.6620  103.4910   59.8120 C.2       1 GNP202      0.0000 
     27 O6         49.3380  102.8910   58.9480 O.2       1 GNP202      0.0000 
     28 N1         49.2500  104.2030   60.7530 N.am      1 GNP202      0.0000 
     29 C2         48.5250  104.8350   61.7200 C.2       1 GNP202      0.0000 
     30 N2         49.1640  105.5190   62.6650 N.pl3     1 GNP202      0.0000 
     31 N3         47.1820  104.8680   61.8050 N.2       1 GNP202      0.0000 
     32 C4         46.4800  104.1870   60.9020 C.2       1 GNP202      0.0000 
@<TRIPOS>BOND
     1    1    2 ar   
     2    1    3 ar   
     3    1    4 ar   
     4    1    5 1    
     5    5    6 1    
     6    6    7 ar   
     7    6    8 ar   
     8    6    9 1    
     9    9   10 1    
    10   10   11 ar   
    11   10   12 ar   
    12   10   13 1    
    13   13   14 1    
    14   14   15 1    
    15   15   16 1    
    16   15   17 1    
    17   16   21 1    
    18   17   18 1    
    19   17   19 1    
    20   19   20 1    
    21   19   21 1    
    22   21   22 1    
    23   22   23 1    
    24   22   32 1    
    25   23   24 2    
    26   24   25 1    
    27   25   26 1    
    28   25   32 2    
    29   26   27 2    
    30   26   28 am   
    31   28   29 1    
    32   29   30 1    
    33   29   31 2    
    34   31   32 1    
@<TRIPOS>SUBSTRUCTURE
     1 GNP202      1 GROUP   
@<TRIPOS>SET
ATOM$ORANGE STATIC     ATOMS   COLORGROUP SYSTEM 
20 14 14 15 15 17 17 19 19 21 21 23 23 25 25 26 26 29 \
29 32 32 

