#    Name: 6fa4_1_GNP
#    Modification time : Fri May 22 19:25:56 2020

@<TRIPOS>MOLECULE
6fa4_1_GNP
   32    34     1     0     1
SMALL
NO_CHARGES


@<TRIPOS>ATOM
      1 PG         69.9920  107.9350    2.1280 P.3       1 GNP202      0.0000 
      2 O1G        71.0000  108.5320    1.0860 O.co2     1 GNP202      0.0000 
      3 O2G        70.4030  108.1650    3.6060 O.co2     1 GNP202      0.0000 
      4 O3G        69.9290  106.4680    1.8730 O.co2     1 GNP202      0.0000 
      5 N3B        68.4400  108.6460    1.8330 N.3       1 GNP202      0.0000 
      6 PB         67.1090  108.2920    2.7950 P.3       1 GNP202      0.0000 
      7 O1B        66.6060  106.9050    2.4120 O.co2     1 GNP202      0.0000 
      8 O2B        67.4390  108.4020    4.2140 O.co2     1 GNP202      0.0000 
      9 O3A        66.0860  109.4380    2.2980 O.3       1 GNP202      0.0000 
     10 PA         65.7480  110.7900    3.1530 P.3       1 GNP202      0.0000 
     11 O1A        67.0390  111.5030    3.1000 O.co2     1 GNP202      0.0000 
     12 O2A        64.9200  110.5150    4.3760 O.co2     1 GNP202      0.0000 
     13 O5'        64.7900  111.4320    2.0610 O.3       1 GNP202      0.0000 
     14 C5'        65.2250  111.6870    0.7180 C.3       1 GNP202      0.0000 
     15 C4'        64.3710  112.7620    0.0770 C.3       1 GNP202      0.0000 
     16 O4'        63.0200  112.2870    0.0000 O.3       1 GNP202      0.0000 
     17 C3'        64.2630  114.0010    1.0020 C.3       1 GNP202      0.0000 
     18 O3'        64.1900  115.0970    0.1390 O.3       1 GNP202      0.0000 
     19 C2'        62.9170  113.8980    1.7150 C.3       1 GNP202      0.0000 
     20 O2'        62.2400  115.0990    2.1150 O.3       1 GNP202      0.0000 
     21 C1'        62.0530  113.1550    0.7040 C.3       1 GNP202      0.0000 
     22 N9         61.0290  112.2790    1.3730 N.pl3     1 GNP202      0.0000 
     23 C8         61.2630  111.3240    2.3110 C.2       1 GNP202      0.0000 
     24 N7         60.1560  110.7210    2.6920 N.2       1 GNP202      0.0000 
     25 C5         59.1600  111.3260    1.9670 C.2       1 GNP202      0.0000 
     26 C6         57.7100  111.2320    1.9040 C.2       1 GNP202      0.0000 
     27 O6         57.0390  110.4110    2.5730 O.2       1 GNP202      0.0000 
     28 N1         57.0610  112.0790    1.0760 N.am      1 GNP202      0.0000 
     29 C2         57.7260  112.9850    0.3200 C.2       1 GNP202      0.0000 
     30 N2         57.0100  113.7890   -0.4800 N.pl3     1 GNP202      0.0000 
     31 N3         59.0500  113.1460    0.3280 N.2       1 GNP202      0.0000 
     32 C4         59.7450  112.3650    1.1690 C.2       1 GNP202      0.0000 
@<TRIPOS>BOND
     1    1    2 ar   
     2    1    3 ar   
     3    1    4 ar   
     4    1    5 1    
     5    5    6 1    
     6    6    7 ar   
     7    6    8 ar   
     8    6    9 1    
     9    9   10 1    
    10   10   11 ar   
    11   10   12 ar   
    12   10   13 1    
    13   13   14 1    
    14   14   15 1    
    15   15   16 1    
    16   15   17 1    
    17   16   21 1    
    18   17   18 1    
    19   17   19 1    
    20   19   20 1    
    21   19   21 1    
    22   21   22 1    
    23   22   23 1    
    24   22   32 1    
    25   23   24 2    
    26   24   25 1    
    27   25   26 1    
    28   25   32 2    
    29   26   27 2    
    30   26   28 am   
    31   28   29 1    
    32   29   30 1    
    33   29   31 2    
    34   31   32 1    
@<TRIPOS>SUBSTRUCTURE
     1 GNP202      1 GROUP   
@<TRIPOS>SET
ATOM$ORANGE STATIC     ATOMS   COLORGROUP SYSTEM 
20 14 14 15 15 17 17 19 19 21 21 23 23 25 25 26 26 29 \
29 32 32 

