#    Name: 6fa4_3_GNP
#    Modification time : Fri May 22 19:26:02 2020

@<TRIPOS>MOLECULE
6fa4_3_GNP
   32    34     1     0     1
SMALL
NO_CHARGES


@<TRIPOS>ATOM
      1 PG         77.0150   94.0230   49.0040 P.3       1 GNP202      0.0000 
      2 O1G        76.4430   93.8710   47.5280 O.co2     1 GNP202      0.0000 
      3 O2G        78.0550   95.0720   48.8100 O.co2     1 GNP202      0.0000 
      4 O3G        77.4090   92.5330   49.5020 O.co2     1 GNP202      0.0000 
      5 N3B        75.7240   94.4700   50.0580 N.3       1 GNP202      0.0000 
      6 PB         74.8000   95.9160   49.7800 P.3       1 GNP202      0.0000 
      7 O1B        74.3440   95.9030   48.3710 O.co2     1 GNP202      0.0000 
      8 O2B        75.5180   97.2410   50.2000 O.co2     1 GNP202      0.0000 
      9 O3A        73.6240   95.5720   50.8120 O.3       1 GNP202      0.0000 
     10 PA         72.0970   95.1760   50.5290 P.3       1 GNP202      0.0000 
     11 O1A        71.4980   96.2110   49.6470 O.co2     1 GNP202      0.0000 
     12 O2A        72.1370   93.7430   50.1390 O.co2     1 GNP202      0.0000 
     13 O5'        71.5130   95.2860   52.0190 O.3       1 GNP202      0.0000 
     14 C5'        72.0170   94.4160   53.0400 C.3       1 GNP202      0.0000 
     15 C4'        70.9720   94.1780   54.1780 C.3       1 GNP202      0.0000 
     16 O4'        70.6310   95.4210   54.7230 O.3       1 GNP202      0.0000 
     17 C3'        69.6840   93.5870   53.6910 C.3       1 GNP202      0.0000 
     18 O3'        69.1270   92.6270   54.5980 O.3       1 GNP202      0.0000 
     19 C2'        68.7500   94.7720   53.5570 C.3       1 GNP202      0.0000 
     20 O2'        67.4040   94.3820   53.6770 O.3       1 GNP202      0.0000 
     21 C1'        69.2260   95.6560   54.6460 C.3       1 GNP202      0.0000 
     22 N9         69.0500   97.0890   54.3490 N.pl3     1 GNP202      0.0000 
     23 C8         69.5470   97.7660   53.3060 C.2       1 GNP202      0.0000 
     24 N7         69.1500   99.0370   53.3070 N.2       1 GNP202      0.0000 
     25 C5         68.4030   99.1930   54.4070 C.2       1 GNP202      0.0000 
     26 C6         67.6550  100.3160   55.0210 C.2       1 GNP202      0.0000 
     27 O6         67.6710  101.4870   54.5460 O.2       1 GNP202      0.0000 
     28 N1         67.0090  100.0870   56.1310 N.am      1 GNP202      0.0000 
     29 C2         66.9720   98.8330   56.7060 C.2       1 GNP202      0.0000 
     30 N2         66.2450   98.6460   57.8430 N.pl3     1 GNP202      0.0000 
     31 N3         67.5990   97.7570   56.1730 N.2       1 GNP202      0.0000 
     32 C4         68.3390   97.8960   55.0700 C.2       1 GNP202      0.0000 
@<TRIPOS>BOND
     1    1    2 ar   
     2    1    3 ar   
     3    1    4 ar   
     4    1    5 1    
     5    5    6 1    
     6    6    7 ar   
     7    6    8 ar   
     8    6    9 1    
     9    9   10 1    
    10   10   11 ar   
    11   10   12 ar   
    12   10   13 1    
    13   13   14 1    
    14   14   15 1    
    15   15   16 1    
    16   15   17 1    
    17   16   21 1    
    18   17   18 1    
    19   17   19 1    
    20   19   20 1    
    21   19   21 1    
    22   21   22 1    
    23   22   23 1    
    24   22   32 1    
    25   23   24 2    
    26   24   25 1    
    27   25   26 1    
    28   25   32 2    
    29   26   27 2    
    30   26   28 am   
    31   28   29 1    
    32   29   30 1    
    33   29   31 2    
    34   31   32 1    
@<TRIPOS>SUBSTRUCTURE
     1 GNP202      1 GROUP   
@<TRIPOS>SET
ATOM$ORANGE STATIC     ATOMS   COLORGROUP SYSTEM 
20 14 14 15 15 17 17 19 19 21 21 23 23 25 25 26 26 29 \
29 32 32 

