#    Name: 6fa4_1_GNP_CAVITY_N1_4
#    Modification time : Fri May 22 19:25:59 2020

@<TRIPOS>MOLECULE
6fa4_1_GNP_CAVITY_N1_4
   73     0     6     0     0
SMALL
NO_CHARGES


@<TRIPOS>ATOM
      1 N          64.8300  111.3800   -2.7300 N.am      1 ALA2        0.0000 
      2 O          59.3100  111.1700    2.5700 O.2       1 ALA2        0.0000 
      3 N          64.2800  111.8400   -0.7300 N.am      1 ALA2        0.0000 
      4 N          62.0100  113.4900    1.6400 N.am      1 ALA2        0.0000 
      5 N          62.7800  115.0100    0.3700 N.am      1 ALA2        0.0000 
      6 N          64.0200  115.1700   -0.4500 N.am      1 ALA2        0.0000 
      7 N          65.4500  111.1200    0.8900 N.am      1 ALA2        0.0000 
      8 N          63.9500  114.2900    1.9900 N.am      1 ALA2        0.0000 
      9 N          64.4200  112.9400    2.4400 N.am      1 ALA2        0.0000 
     10 N          65.1900  114.4600    1.1600 N.am      1 ALA2        0.0000 
     11 N          65.6700  113.1100    1.6100 N.am      1 ALA2        0.0000 
     12 O          65.5900  112.2200    4.0500 O.2       1 ALA2        0.0000 
     13 OD1        56.7100  115.9400   -0.3900 O.co2     2 ASP3        0.0000 
     14 OD1        63.1100  112.5600   -2.3500 O.co2     2 ASP3        0.0000 
     15 OD1        61.3200  112.8600    0.4700 O.co2     2 ASP3        0.0000 
     16 OD1        62.5600  113.0200   -0.3500 O.co2     2 ASP3        0.0000 
     17 OD1        63.0400  111.6700    0.0900 O.co2     2 ASP3        0.0000 
     18 OD1        63.8000  113.1900   -1.1800 O.co2     2 ASP3        0.0000 
     19 OD1        67.1000  109.0600    2.9500 O.co2     2 ASP3        0.0000 
     20 OD1        68.3400  109.2200    2.1300 O.co2     2 ASP3        0.0000 
     21 NZ         56.5000  113.9600   -1.1200 N.4       3 LYS4        0.0000 
     22 NZ         56.9700  112.6100   -0.6700 N.4       3 LYS4        0.0000 
     23 NZ         56.4200  113.0700    1.3300 N.4       3 LYS4        0.0000 
     24 NZ         56.9000  111.7200    1.7700 N.4       3 LYS4        0.0000 
     25 NZ         57.1900  114.5900    0.0600 N.4       3 LYS4        0.0000 
     26 NZ         57.6700  113.2400    0.5000 N.4       3 LYS4        0.0000 
     27 CZ         58.3600  113.8700    1.6700 C.ar      4 PHE5        0.0000 
     28 CZ         58.8400  112.5200    2.1200 C.ar      4 PHE5        0.0000 
     29 CZ         58.6400  116.7400   -0.0400 C.ar      4 PHE5        0.0000 
     30 CZ         59.1200  115.3900    0.4000 C.ar      4 PHE5        0.0000 
     31 CZ         59.6000  114.0400    0.8500 C.ar      4 PHE5        0.0000 
     32 CZ         60.0800  112.6900    1.3000 C.ar      4 PHE5        0.0000 
     33 CZ         60.3600  115.5600   -0.4200 C.ar      4 PHE5        0.0000 
     34 CZ         60.8400  114.2100    0.0200 C.ar      4 PHE5        0.0000 
     35 CZ         65.0500  113.3600   -2.0000 C.ar      4 PHE5        0.0000 
     36 CZ         65.5200  112.0100   -1.5500 C.ar      4 PHE5        0.0000 
     37 CZ         60.7700  113.3200    2.4700 C.ar      4 PHE5        0.0000 
     38 CZ         61.5300  114.8400    1.2000 C.ar      4 PHE5        0.0000 
     39 CZ         64.9700  112.4700    0.4400 C.ar      4 PHE5        0.0000 
     40 CZ         66.6900  111.2900    0.0600 C.ar      4 PHE5        0.0000 
     41 CZ         66.1400  111.7600    2.0600 C.ar      4 PHE5        0.0000 
     42 CZ         67.8600  110.5700    1.6800 C.ar      4 PHE5        0.0000 
     43 CA         56.0200  115.3100   -1.5600 C.3       5 GLY6        0.0000 
     44 CA         57.7400  114.1300   -1.9400 C.3       5 GLY6        0.0000 
     45 CA         58.2200  112.7800   -1.4900 C.3       5 GLY6        0.0000 
     46 CA         58.1400  111.8900    0.9500 C.3       5 GLY6        0.0000 
     47 CA         58.6200  110.5400    1.4000 C.3       5 GLY6        0.0000 
     48 CA         59.3900  112.0600    0.1200 C.3       5 GLY6        0.0000 
     49 CA         57.4000  116.5700    0.7800 C.3       5 GLY6        0.0000 
     50 CA         60.5600  111.3400    1.7400 C.3       5 GLY6        0.0000 
     51 CA         61.0300  109.9900    2.1900 C.3       5 GLY6        0.0000 
     52 CA         61.8000  111.5100    0.9200 C.3       5 GLY6        0.0000 
     53 CA         62.2800  110.1600    1.3600 C.3       5 GLY6        0.0000 
     54 CA         60.0100  111.8100    3.7400 C.3       5 GLY6        0.0000 
     55 CA         61.2500  111.9700    2.9100 C.3       5 GLY6        0.0000 
     56 CA         61.7300  110.6200    3.3600 C.3       5 GLY6        0.0000 
     57 CA         62.4900  112.1400    2.0900 C.3       5 GLY6        0.0000 
     58 CA         62.9700  110.7900    2.5400 C.3       5 GLY6        0.0000 
     59 CA         64.2100  110.9600    1.7100 C.3       5 GLY6        0.0000 
     60 CA         64.5000  113.8200   -0.0100 C.3       5 GLY6        0.0000 
     61 CA         65.9300  109.7700    1.3300 C.3       5 GLY6        0.0000 
     62 CA         66.4100  108.4200    1.7800 C.3       5 GLY6        0.0000 
     63 CA         65.2600  115.3400   -1.2800 C.3       5 GLY6        0.0000 
     64 CA         63.1800  112.7700    3.2600 C.3       5 GLY6        0.0000 
     65 CA         63.6600  111.4200    3.7100 C.3       5 GLY6        0.0000 
     66 CA         64.9000  111.5900    2.8800 C.3       5 GLY6        0.0000 
     67 CA         65.3800  110.2400    3.3300 C.3       5 GLY6        0.0000 
     68 DU         58.4300  114.7600   -0.7700 H         6 CUB7        0.0000 
     69 DU         58.9100  113.4100   -0.3200 H         6 CUB7        0.0000 
     70 DU         62.0800  114.3700   -0.8000 H         6 CUB7        0.0000 
     71 DU         63.2500  113.6600    0.8200 H         6 CUB7        0.0000 
     72 DU         63.7300  112.3100    1.2600 H         6 CUB7        0.0000 
     73 DU         66.6200  110.4100    2.5000 H         6 CUB7        0.0000 
@<TRIPOS>BOND
@<TRIPOS>SUBSTRUCTURE
     1 ALA2        1 GROUP   
     2 ASP3       13 GROUP   
     3 LYS4       21 GROUP   
     4 PHE5       27 GROUP   
     5 GLY6       43 GROUP   
     6 CUB7       68 GROUP   
@<TRIPOS>SET

