#    Name: 6fa4_3_GNP_CAVITY_N1_4
#    Modification time : Fri May 22 19:26:05 2020

@<TRIPOS>MOLECULE
6fa4_3_GNP_CAVITY_N1_4
   85     0     6     0     0
SMALL
NO_CHARGES


@<TRIPOS>ATOM
      1 O          70.6300   92.0400   48.4900 O.2       1 ALA2        0.0000 
      2 N          69.6000   93.8600   50.0400 N.am      1 ALA2        0.0000 
      3 O          71.3200   92.6700   49.6600 O.2       1 ALA2        0.0000 
      4 N          69.0500   94.3200   52.0400 N.am      1 ALA2        0.0000 
      5 N          70.2900   94.4900   51.2100 N.am      1 ALA2        0.0000 
      6 N          70.7700   93.1400   51.6600 N.am      1 ALA2        0.0000 
      7 O          71.0600   96.0100   49.9400 O.2       1 ALA2        0.0000 
      8 N          68.5000   94.7900   54.0300 N.am      1 ALA2        0.0000 
      9 N          68.9800   93.4400   54.4800 N.am      1 ALA2        0.0000 
     10 N          69.4600   92.0900   54.9200 N.am      1 ALA2        0.0000 
     11 O          73.4700   95.4600   50.7300 O.2       1 ALA2        0.0000 
     12 O          75.1900   94.2700   50.3600 O.2       1 ALA2        0.0000 
     13 N          68.4300   93.9000   56.4700 N.am      1 ALA2        0.0000 
     14 O          69.4800   98.2900   53.4800 O.2       1 ALA2        0.0000 
     15 N          71.6800   95.7500   53.5500 N.am      1 ALA2        0.0000 
     16 N          72.1600   94.4000   54.0000 N.am      1 ALA2        0.0000 
     17 N          72.9200   95.9200   52.7300 N.am      1 ALA2        0.0000 
     18 N          72.8500   95.0400   55.1700 N.am      1 ALA2        0.0000 
     19 OD1        72.7800   94.8200   49.5600 O.co2     2 ASP3        0.0000 
     20 OD1        74.7100   95.6200   49.9100 O.co2     2 ASP3        0.0000 
     21 OD1        70.4400   95.5900   54.3800 O.co2     2 ASP3        0.0000 
     22 OD1        70.9100   94.2400   54.8200 O.co2     2 ASP3        0.0000 
     23 OD1        69.8900   96.0500   56.3700 O.co2     2 ASP3        0.0000 
     24 OD1        70.3600   94.7000   56.8200 O.co2     2 ASP3        0.0000 
     25 OD1        71.6100   94.8700   56.0000 O.co2     2 ASP3        0.0000 
     26 NZ         66.0200   94.4500   55.6800 N.4       3 LYS4        0.0000 
     27 NZ         65.4700   94.9200   57.6800 N.4       3 LYS4        0.0000 
     28 NZ         67.1900   93.7400   57.3000 N.4       3 LYS4        0.0000 
     29 NZ         65.2000   98.2500   57.9500 N.4       3 LYS4        0.0000 
     30 NZ         65.9700   99.7700   56.6800 N.4       3 LYS4        0.0000 
     31 NZ         66.4500   98.4200   57.1300 N.4       3 LYS4        0.0000 
     32 NZ         67.2100   99.9400   55.8600 N.4       3 LYS4        0.0000 
     33 CZ         72.0100   93.3100   50.8300 C.ar      4 PHE5        0.0000 
     34 CZ         67.2600   94.6200   54.8600 C.ar      4 PHE5        0.0000 
     35 CZ         68.0200   96.1400   53.5800 C.ar      4 PHE5        0.0000 
     36 CZ         71.4600   93.7700   52.8300 C.ar      4 PHE5        0.0000 
     37 CZ         72.7100   93.9400   52.0000 C.ar      4 PHE5        0.0000 
     38 CZ         73.9500   94.1100   51.1800 C.ar      4 PHE5        0.0000 
     39 CZ         64.9900   96.2700   57.2300 C.ar      4 PHE5        0.0000 
     40 CZ         66.2300   96.4400   56.4000 C.ar      4 PHE5        0.0000 
     41 CZ         66.7100   95.0900   56.8500 C.ar      4 PHE5        0.0000 
     42 CZ         66.5200   99.3000   54.6900 C.ar      4 PHE5        0.0000 
     43 CZ         67.0000   97.9500   55.1300 C.ar      4 PHE5        0.0000 
     44 CZ         67.4700   96.6000   55.5800 C.ar      4 PHE5        0.0000 
     45 CZ         67.9500   95.2500   56.0300 C.ar      4 PHE5        0.0000 
     46 CZ         68.2400   98.1200   54.3100 C.ar      4 PHE5        0.0000 
     47 CZ         68.7200   96.7700   54.7600 C.ar      4 PHE5        0.0000 
     48 CZ         71.3900   92.8900   55.2700 C.ar      4 PHE5        0.0000 
     49 CZ         73.3300   93.6900   55.6200 C.ar      4 PHE5        0.0000 
     50 CA         68.9100   93.2200   48.8700 C.3       5 GLY6        0.0000 
     51 CA         70.1500   93.3900   48.0500 C.3       5 GLY6        0.0000 
     52 CA         69.1200   95.2100   49.5900 C.3       5 GLY6        0.0000 
     53 CA         70.8400   94.0200   49.2200 C.3       5 GLY6        0.0000 
     54 CA         68.5700   95.6700   51.5900 C.3       5 GLY6        0.0000 
     55 CA         69.8200   95.8400   50.7600 C.3       5 GLY6        0.0000 
     56 CA         69.2700   96.3000   52.7600 C.3       5 GLY6        0.0000 
     57 CA         70.2200   93.6100   53.6500 C.3       5 GLY6        0.0000 
     58 CA         70.5100   96.4700   51.9400 C.3       5 GLY6        0.0000 
     59 CA         72.2300   95.2900   51.5600 C.3       5 GLY6        0.0000 
     60 CA         67.7600   99.4700   53.8600 C.3       5 GLY6        0.0000 
     61 CA         69.9600   96.9400   53.9300 C.3       5 GLY6        0.0000 
     62 CA         71.2000   97.1000   53.1100 C.3       5 GLY6        0.0000 
     63 CA         73.4000   94.5700   53.1800 C.3       5 GLY6        0.0000 
     64 CA         74.1600   96.0900   51.9000 C.3       5 GLY6        0.0000 
     65 CA         65.6800   96.9000   58.4000 C.3       5 GLY6        0.0000 
     66 CA         67.6900   98.5900   56.3000 C.3       5 GLY6        0.0000 
     67 CA         68.1700   97.2400   56.7500 C.3       5 GLY6        0.0000 
     68 CA         68.4500  100.1000   55.0300 C.3       5 GLY6        0.0000 
     69 CA         68.9300   98.7500   55.4800 C.3       5 GLY6        0.0000 
     70 CA         69.4100   97.4000   55.9300 C.3       5 GLY6        0.0000 
     71 CA         70.1700   98.9200   54.6600 C.3       5 GLY6        0.0000 
     72 CA         67.1400   99.0500   58.3000 C.3       5 GLY6        0.0000 
     73 CA         67.6200   97.7000   58.7500 C.3       5 GLY6        0.0000 
     74 CA         68.3800   99.2200   57.4700 C.3       5 GLY6        0.0000 
     75 CA         68.8600   97.8700   57.9200 C.3       5 GLY6        0.0000 
     76 CA         69.3400   96.5200   58.3700 C.3       5 GLY6        0.0000 
     77 DU         71.5400   94.6600   50.3900 H         6 CUB7        0.0000 
     78 DU         69.7400   94.9600   53.2100 H         6 CUB7        0.0000 
     79 DU         70.9900   95.1200   52.3800 H         6 CUB7        0.0000 
     80 DU         69.1900   95.4200   55.2000 H         6 CUB7        0.0000 
     81 DU         69.6700   94.0700   55.6500 H         6 CUB7        0.0000 
     82 DU         66.9200   97.0700   57.5700 H         6 CUB7        0.0000 
     83 DU         67.4000   95.7200   58.0200 H         6 CUB7        0.0000 
     84 DU         68.6400   95.8900   57.2000 H         6 CUB7        0.0000 
     85 DU         69.1200   94.5400   57.6400 H         6 CUB7        0.0000 
@<TRIPOS>BOND
@<TRIPOS>SUBSTRUCTURE
     1 ALA2        1 GROUP   
     2 ASP3       19 GROUP   
     3 LYS4       26 GROUP   
     4 PHE5       33 GROUP   
     5 GLY6       50 GROUP   
     6 CUB7       77 GROUP   
@<TRIPOS>SET

