#    Name: 6fa4_4_GNP
#    Modification time : Fri May 22 19:26:08 2020

@<TRIPOS>MOLECULE
6fa4_4_GNP
   32    34     1     0     1
SMALL
NO_CHARGES


@<TRIPOS>ATOM
      1 PG         40.0400  134.7900   11.7990 P.3       1 GNP201      0.0000 
      2 O1G        41.2320  135.5240   11.3000 O.co2     1 GNP201      0.0000 
      3 O2G        40.2780  134.4670   13.3250 O.co2     1 GNP201      0.0000 
      4 O3G        38.6650  135.4870   11.4410 O.co2     1 GNP201      0.0000 
      5 N3B        39.9460  133.3110   10.8730 N.3       1 GNP201      0.0000 
      6 PB         41.0980  132.1130   11.2200 P.3       1 GNP201      0.0000 
      7 O1B        42.4870  132.4660   10.6660 O.co2     1 GNP201      0.0000 
      8 O2B        41.2100  131.7910   12.6300 O.co2     1 GNP201      0.0000 
      9 O3A        40.5550  130.7990   10.3960 O.3       1 GNP201      0.0000 
     10 PA         39.6150  129.7160   11.0250 P.3       1 GNP201      0.0000 
     11 O1A        38.4180  130.2640   11.6630 O.co2     1 GNP201      0.0000 
     12 O2A        40.4570  128.8620   11.9540 O.co2     1 GNP201      0.0000 
     13 O5'        39.3050  128.8780    9.6960 O.3       1 GNP201      0.0000 
     14 C5'        38.5870  129.4370    8.5770 C.3       1 GNP201      0.0000 
     15 C4'        37.9380  128.3340    7.7370 C.3       1 GNP201      0.0000 
     16 O4'        38.9160  127.4970    7.0860 O.3       1 GNP201      0.0000 
     17 C3'        37.0520  127.4690    8.5850 C.3       1 GNP201      0.0000 
     18 O3'        35.8000  127.2030    7.8830 O.3       1 GNP201      0.0000 
     19 C2'        37.9200  126.2310    8.7890 C.3       1 GNP201      0.0000 
     20 O2'        37.1830  125.0420    9.0140 O.3       1 GNP201      0.0000 
     21 C1'        38.6770  126.1390    7.5130 C.3       1 GNP201      0.0000 
     22 N9         40.0320  125.5610    7.6530 N.pl3     1 GNP201      0.0000 
     23 C8         41.0000  125.9460    8.4920 C.2       1 GNP201      0.0000 
     24 N7         42.1350  125.2650    8.2850 N.2       1 GNP201      0.0000 
     25 C5         41.9020  124.3880    7.3000 C.2       1 GNP201      0.0000 
     26 C6         42.6510  123.3250    6.6240 C.2       1 GNP201      0.0000 
     27 O6         43.8770  123.0190    6.8190 O.2       1 GNP201      0.0000 
     28 N1         41.9710  122.6980    5.6380 N.am      1 GNP201      0.0000 
     29 C2         40.6720  122.9600    5.3170 C.2       1 GNP201      0.0000 
     30 N2         40.0990  122.2250    4.3670 N.pl3     1 GNP201      0.0000 
     31 N3         39.9150  123.9080    5.9130 N.2       1 GNP201      0.0000 
     32 C4         40.5000  124.6220    6.8880 C.2       1 GNP201      0.0000 
@<TRIPOS>BOND
     1    1    2 ar   
     2    1    3 ar   
     3    1    4 ar   
     4    1    5 1    
     5    5    6 1    
     6    6    7 ar   
     7    6    8 ar   
     8    6    9 1    
     9    9   10 1    
    10   10   11 ar   
    11   10   12 ar   
    12   10   13 1    
    13   13   14 1    
    14   14   15 1    
    15   15   16 1    
    16   15   17 1    
    17   16   21 1    
    18   17   18 1    
    19   17   19 1    
    20   19   20 1    
    21   19   21 1    
    22   21   22 1    
    23   22   23 1    
    24   22   32 1    
    25   23   24 2    
    26   24   25 1    
    27   25   26 1    
    28   25   32 2    
    29   26   27 2    
    30   26   28 am   
    31   28   29 1    
    32   29   30 1    
    33   29   31 2    
    34   31   32 1    
@<TRIPOS>SUBSTRUCTURE
     1 GNP201      1 GROUP   
@<TRIPOS>SET
ATOM$ORANGE STATIC     ATOMS   COLORGROUP SYSTEM 
20 14 14 15 15 17 17 19 19 21 21 23 23 25 25 26 26 29 \
29 32 32 

