#    Name: 6omz_1_PMM_CAVITY_N1_6
#    Modification time : Fri May 22 19:41:28 2020

@<TRIPOS>MOLECULE
6omz_1_PMM_CAVITY_N1_6
   60     0     6     0     0
SMALL
NO_CHARGES


@<TRIPOS>ATOM
      1 OG         -2.9200   63.0000    6.8000 O.3       1 SER1        0.0000 
      2 OG         -2.8500   63.3900    8.8800 O.3       1 SER1        0.0000 
      3 OG         -2.2000   67.8400    9.1000 O.3       1 SER1        0.0000 
      4 OG         -2.3400   69.4400    7.7100 O.3       1 SER1        0.0000 
      5 OG         -0.7400   70.3300    5.3300 O.3       1 SER1        0.0000 
      6 OG         -2.4700   71.0500    6.3300 O.3       1 SER1        0.0000 
      7 N          -3.9200   63.7600    4.5300 N.am      2 ALA2        0.0000 
      8 N          -3.1200   64.2000    3.3400 N.am      2 ALA2        0.0000 
      9 N          -4.0500   65.3600    3.1400 N.am      2 ALA2        0.0000 
     10 N          -2.1200   63.4400    5.6100 N.am      2 ALA2        0.0000 
     11 OD1        -4.8500   64.9200    4.3300 O.co2     3 ASP3        0.0000 
     12 OD1        -5.7800   66.0700    4.1400 O.co2     3 ASP3        0.0000 
     13 OD1        -3.8500   64.1500    6.6100 O.co2     3 ASP3        0.0000 
     14 OD1        -3.0600   64.6000    5.4200 O.co2     3 ASP3        0.0000 
     15 OD1        -3.1900   66.2000    4.0400 O.co2     3 ASP3        0.0000 
     16 OD1        -4.1200   67.3600    3.8500 O.co2     3 ASP3        0.0000 
     17 OD1        -3.7900   64.5500    8.6900 O.co2     3 ASP3        0.0000 
     18 OD1        -2.9900   65.0000    7.5000 O.co2     3 ASP3        0.0000 
     19 OD1        -2.1900   65.4400    6.3100 O.co2     3 ASP3        0.0000 
     20 OD1        -2.3300   67.0500    4.9300 O.co2     3 ASP3        0.0000 
     21 OD1        -3.2600   68.2000    4.7400 O.co2     3 ASP3        0.0000 
     22 OD1        -1.9900   64.2400    9.7800 O.co2     3 ASP3        0.0000 
     23 OD1        -1.2000   64.6800    8.5900 O.co2     3 ASP3        0.0000 
     24 OD1        -2.9300   65.3900    9.5900 O.co2     3 ASP3        0.0000 
     25 OD1        -2.1300   65.8400    8.4000 O.co2     3 ASP3        0.0000 
     26 OD1        -2.2600   67.4400    7.0100 O.co2     3 ASP3        0.0000 
     27 OD1        -1.4700   67.8900    5.8200 O.co2     3 ASP3        0.0000 
     28 OD1        -3.2000   68.6000    6.8200 O.co2     3 ASP3        0.0000 
     29 OD1        -2.4000   69.0500    5.6300 O.co2     3 ASP3        0.0000 
     30 OD1         0.6000   64.3600    9.6700 O.co2     3 ASP3        0.0000 
     31 OD1        -1.1300   65.0800   10.6700 O.co2     3 ASP3        0.0000 
     32 OD1        -0.3300   65.5200    9.4800 O.co2     3 ASP3        0.0000 
     33 OD1         3.1900   64.4900    9.5700 O.co2     3 ASP3        0.0000 
     34 OD1         1.4600   65.2100   10.5700 O.co2     3 ASP3        0.0000 
     35 OD1        -0.2700   65.9200   11.5600 O.co2     3 ASP3        0.0000 
     36 CZ         -1.2700   66.6800    9.2900 C.ar      4 PHE5        0.0000 
     37 CZ         -0.4700   67.1300    8.1000 C.ar      4 PHE5        0.0000 
     38 CZ         -1.4000   68.2900    7.9100 C.ar      4 PHE5        0.0000 
     39 CZ         -0.6000   68.7300    6.7200 C.ar      4 PHE5        0.0000 
     40 CZ          0.1900   69.1800    5.5300 C.ar      4 PHE5        0.0000 
     41 CZ         -1.5400   69.8900    6.5200 C.ar      4 PHE5        0.0000 
     42 CZ          2.2600   65.6500    9.3800 C.ar      4 PHE5        0.0000 
     43 CZ          0.5300   66.3700   10.3700 C.ar      4 PHE5        0.0000 
     44 CA         -2.2600   65.0500    4.2300 C.3       5 GLY6        0.0000 
     45 CA         -1.4600   65.4900    3.0400 C.3       5 GLY6        0.0000 
     46 CA         -1.4000   65.8900    5.1200 C.3       5 GLY6        0.0000 
     47 CA         -0.6000   66.3300    3.9300 C.3       5 GLY6        0.0000 
     48 CA         -1.3300   66.2800    7.2100 C.3       5 GLY6        0.0000 
     49 CA         -0.5300   66.7300    6.0200 C.3       5 GLY6        0.0000 
     50 CA          0.2600   67.1800    4.8300 C.3       5 GLY6        0.0000 
     51 CA         -3.3300   70.2100    5.4400 C.3       5 GLY6        0.0000 
     52 CA          0.4600   65.9700    8.2900 C.3       5 GLY6        0.0000 
     53 CA          2.4000   64.0500   10.7600 C.3       5 GLY6        0.0000 
     54 CA          3.2600   64.8900   11.6500 C.3       5 GLY6        0.0000 
     55 CA          1.5300   65.6000   12.6500 C.3       5 GLY6        0.0000 
     56 CA          2.3200   66.0500   11.4600 C.3       5 GLY6        0.0000 
     57 DU         -1.5300   67.4900    3.7400 H         6 CUB7        0.0000 
     58 DU         -0.6700   68.3300    4.6300 H         6 CUB7        0.0000 
     59 DU         -1.6000   69.4900    4.4400 H         6 CUB7        0.0000 
     60 DU         -2.0600   66.2400   10.4800 H         6 CUB7        0.0000 
@<TRIPOS>BOND
@<TRIPOS>SUBSTRUCTURE
     1 SER1        1 GROUP   
     2 ALA2        7 GROUP   
     3 ASP3       11 GROUP   
     4 PHE5       36 GROUP   
     5 GLY6       44 GROUP   
     6 CUB7       57 GROUP   
@<TRIPOS>SET

