#    Name: 6omz_1_PMM
#    Modification time : Fri May 22 19:41:26 2020

@<TRIPOS>MOLECULE
6omz_1_PMM
   18    19     1     0     0
SMALL
NO_CHARGES


@<TRIPOS>ATOM
      1 N5          0.9740   65.3280    9.8210 N.ar      1 PMM303      0.0000 
      2 C6         -0.1880   65.7870   10.3230 C.ar      1 PMM303      0.0000 
      3 C7         -0.3490   65.9590   11.6870 C.ar      1 PMM303      0.0000 
      4 N8          0.6040   65.7260   12.5970 N.ar      1 PMM303      0.0000 
      5 N1          2.7460   65.1160   13.0230 N.2       1 PMM303      0.0000 
      6 C2          3.9460   64.7300   12.5970 C.2       1 PMM303      0.0000 
      7 N2          4.9450   64.5900   13.4730 N.pl3     1 PMM303      0.0000 
      8 N3          4.2300   64.4910   11.2820 N.am      1 PMM303      0.0000 
      9 C4          3.3340   64.6270   10.2430 C.2       1 PMM303      0.0000 
     10 O4          3.6610   64.3690    9.0890 O.2       1 PMM303      0.0000 
     11 C4A         1.9900   65.0760   10.6630 C.ar      1 PMM303      0.0000 
     12 C8A         1.7620   65.2970   12.0770 C.ar      1 PMM303      0.0000 
     13 C9         -1.2370   66.2040    9.3340 C.3       1 PMM303      0.0000 
     14 O10        -1.7690   65.0320    8.6620 O.3       1 PMM303      0.0000 
     15 PA         -3.0810   64.1590    9.0820 P.3       1 PMM303      0.0000 
     16 O1P        -3.1350   63.0480    8.0980 O.co2     1 PMM303      0.0000 
     17 O2P        -2.9010   63.6430   10.5110 O.co2     1 PMM303      0.0000 
     18 O3P        -4.3030   65.0660    9.0220 O.co2     1 PMM303      0.0000 
@<TRIPOS>BOND
     1    1    2 ar   
     2    1   11 ar   
     3    2    3 ar   
     4    2   13 1    
     5    3    4 ar   
     6    4   12 ar   
     7    5    6 2    
     8    5   12 1    
     9    6    7 1    
    10    6    8 1    
    11    8    9 am   
    12    9   10 2    
    13    9   11 1    
    14   11   12 ar   
    15   13   14 1    
    16   14   15 1    
    17   15   16 ar   
    18   15   17 ar   
    19   15   18 ar   
@<TRIPOS>SUBSTRUCTURE
     1 PMM303      1 GROUP   
@<TRIPOS>SET

