#    Name: 6o2p_2_ATP
#    Modification time : Fri May 22 19:36:30 2020

@<TRIPOS>MOLECULE
6o2p_2_ATP
   31    33     1     0     1
SMALL
NO_CHARGES


@<TRIPOS>ATOM
      1 PG        141.4480  133.1860  125.9820 P.3       1 ATP1504     0.0000 
      2 O1G       141.1590  131.8580  125.3310 O.co2     1 ATP1504     0.0000 
      3 O2G       142.1270  133.0410  127.3220 O.co2     1 ATP1504     0.0000 
      4 O3G       140.2320  134.0780  126.0390 O.co2     1 ATP1504     0.0000 
      5 PB        142.3250  134.9280  123.7870 P.3       1 ATP1504     0.0000 
      6 O1B       142.0560  134.1120  122.5660 O.co2     1 ATP1504     0.0000 
      7 O2B       141.3730  136.0100  124.1690 O.co2     1 ATP1504     0.0000 
      8 O3B       142.5110  133.9380  125.0310 O.3       1 ATP1504     0.0000 
      9 PA        144.3340  137.0090  124.1050 P.3       1 ATP1504     0.0000 
     10 O1A       143.9870  137.9950  123.0410 O.co2     1 ATP1504     0.0000 
     11 O2A       143.8690  137.2880  125.4950 O.co2     1 ATP1504     0.0000 
     12 O3A       143.7890  135.5630  123.6750 O.3       1 ATP1504     0.0000 
     13 O5'       145.9180  136.7680  124.1130 O.3       1 ATP1504     0.0000 
     14 C5'       146.5950  136.3530  122.9020 C.3       1 ATP1504     0.0000 
     15 C4'       148.0880  136.3800  123.1280 C.3       1 ATP1504     0.0000 
     16 O4'       148.5440  137.7560  123.1360 O.3       1 ATP1504     0.0000 
     17 C3'       148.5900  135.7990  124.4550 C.3       1 ATP1504     0.0000 
     18 O3'       148.7740  134.3940  124.3450 O.3       1 ATP1504     0.0000 
     19 C2'       149.9100  136.5490  124.6550 C.3       1 ATP1504     0.0000 
     20 O2'       150.9900  135.9360  123.9820 O.3       1 ATP1504     0.0000 
     21 C1'       149.5980  137.9220  124.0600 C.3       1 ATP1504     0.0000 
     22 N9        149.1860  138.9210  125.0500 N.pl3     1 ATP1504     0.0000 
     23 C8        147.9550  139.0520  125.6520 C.2       1 ATP1504     0.0000 
     24 N7        147.9090  140.0570  126.4970 N.2       1 ATP1504     0.0000 
     25 C5        149.1800  140.6170  126.4460 C.ar      1 ATP1504     0.0000 
     26 C6        149.7680  141.7100  127.1140 C.ar      1 ATP1504     0.0000 
     27 N6        149.1240  142.4690  127.9960 N.pl3     1 ATP1504     0.0000 
     28 N1        151.0640  141.9940  126.8300 N.ar      1 ATP1504     0.0000 
     29 C2        151.7070  141.2260  125.9380 C.ar      1 ATP1504     0.0000 
     30 N3        151.2580  140.1760  125.2510 N.ar      1 ATP1504     0.0000 
     31 C4        149.9730  139.9210  125.5560 C.ar      1 ATP1504     0.0000 
@<TRIPOS>BOND
     1    1    2 ar   
     2    1    3 ar   
     3    1    4 ar   
     4    1    8 1    
     5    5    6 ar   
     6    5    7 ar   
     7    5    8 1    
     8    5   12 1    
     9    9   10 ar   
    10    9   11 ar   
    11    9   12 1    
    12    9   13 1    
    13   13   14 1    
    14   14   15 1    
    15   15   16 1    
    16   15   17 1    
    17   16   21 1    
    18   17   18 1    
    19   17   19 1    
    20   19   20 1    
    21   19   21 1    
    22   21   22 1    
    23   22   23 1    
    24   22   31 1    
    25   23   24 2    
    26   24   25 1    
    27   25   26 ar   
    28   25   31 ar   
    29   26   27 1    
    30   26   28 ar   
    31   28   29 ar   
    32   29   30 ar   
    33   30   31 ar   
@<TRIPOS>SUBSTRUCTURE
     1 ATP1504     1 GROUP   
@<TRIPOS>SET
ATOM$ORANGE STATIC     ATOMS   COLORGROUP SYSTEM 
20 14 14 15 15 17 17 19 19 21 21 23 23 25 25 26 26 29 \
29 31 31 

