#    Name: 6o2p_1_ATP
#    Modification time : Fri May 22 19:36:21 2020

@<TRIPOS>MOLECULE
6o2p_1_ATP
   31    33     1     0     1
SMALL
NO_CHARGES


@<TRIPOS>ATOM
      1 PG        130.2570  128.2500  141.1780 P.3       1 ATP1503     0.0000 
      2 O1G       129.4930  127.2710  140.3230 O.co2     1 ATP1503     0.0000 
      3 O2G       129.9530  129.6820  140.8310 O.co2     1 ATP1503     0.0000 
      4 O3G       131.7340  127.9570  141.2040 O.co2     1 ATP1503     0.0000 
      5 PB        130.0440  126.9640  143.8250 P.3       1 ATP1503     0.0000 
      6 O1B       129.0770  125.8360  143.6750 O.co2     1 ATP1503     0.0000 
      7 O2B       131.5100  126.6770  143.8560 O.co2     1 ATP1503     0.0000 
      8 O3B       129.7400  128.0570  142.6960 O.3       1 ATP1503     0.0000 
      9 PA        130.6010  128.2520  146.3590 P.3       1 ATP1503     0.0000 
     10 O1A       131.0190  127.0510  147.1380 O.co2     1 ATP1503     0.0000 
     11 O2A       131.6650  129.1390  145.8000 O.co2     1 ATP1503     0.0000 
     12 O3A       129.6670  127.7770  145.1500 O.3       1 ATP1503     0.0000 
     13 O5'       129.5810  129.1310  147.2300 O.3       1 ATP1503     0.0000 
     14 C5'       128.3890  128.5240  147.7870 C.3       1 ATP1503     0.0000 
     15 C4'       127.6130  129.5700  148.5510 C.3       1 ATP1503     0.0000 
     16 O4'       128.4480  130.0900  149.6190 O.3       1 ATP1503     0.0000 
     17 C3'       127.1570  130.7930  147.7420 C.3       1 ATP1503     0.0000 
     18 O3'       125.8490  131.1960  148.1250 O.3       1 ATP1503     0.0000 
     19 C2'       128.2140  131.8500  148.0780 C.3       1 ATP1503     0.0000 
     20 O2'       127.7160  133.1670  147.9810 O.3       1 ATP1503     0.0000 
     21 C1'       128.5750  131.4890  149.5160 C.3       1 ATP1503     0.0000 
     22 N9        129.9470  131.8400  149.8980 N.pl3     1 ATP1503     0.0000 
     23 C8        131.1090  131.4560  149.2700 C.2       1 ATP1503     0.0000 
     24 N7        132.1830  131.9350  149.8540 N.2       1 ATP1503     0.0000 
     25 C5        131.7000  132.6650  150.9330 C.ar      1 ATP1503     0.0000 
     26 C6        132.3420  133.4100  151.9440 C.ar      1 ATP1503     0.0000 
     27 N6        133.6610  133.5480  152.0360 N.pl3     1 ATP1503     0.0000 
     28 N1        131.5550  134.0120  152.8710 N.ar      1 ATP1503     0.0000 
     29 C2        130.2240  133.8700  152.7730 C.ar      1 ATP1503     0.0000 
     30 N3        129.5130  133.1980  151.8690 N.ar      1 ATP1503     0.0000 
     31 C4        130.3200  132.6100  150.9680 C.ar      1 ATP1503     0.0000 
@<TRIPOS>BOND
     1    1    2 ar   
     2    1    3 ar   
     3    1    4 ar   
     4    1    8 1    
     5    5    6 ar   
     6    5    7 ar   
     7    5    8 1    
     8    5   12 1    
     9    9   10 ar   
    10    9   11 ar   
    11    9   12 1    
    12    9   13 1    
    13   13   14 1    
    14   14   15 1    
    15   15   16 1    
    16   15   17 1    
    17   16   21 1    
    18   17   18 1    
    19   17   19 1    
    20   19   20 1    
    21   19   21 1    
    22   21   22 1    
    23   22   23 1    
    24   22   31 1    
    25   23   24 2    
    26   24   25 1    
    27   25   26 ar   
    28   25   31 ar   
    29   26   27 1    
    30   26   28 ar   
    31   28   29 ar   
    32   29   30 ar   
    33   30   31 ar   
@<TRIPOS>SUBSTRUCTURE
     1 ATP1503     1 GROUP   
@<TRIPOS>SET
ATOM$ORANGE STATIC     ATOMS   COLORGROUP SYSTEM 
20 14 14 15 15 17 17 19 19 21 21 23 23 25 25 26 26 29 \
29 31 31 

