#    Name: 6jd1_11_NAI
#    Modification time : Fri May 22 19:34:30 2020

@<TRIPOS>MOLECULE
6jd1_11_NAI
   71    75     1     0     1
SMALL
NO_CHARGES


@<TRIPOS>ATOM
      1 PA        157.9280  186.8530  126.0180 P.3       1 NAI404      0.0000 
      2 O1A       157.1310  188.0680  125.4410 O.co2     1 NAI404      0.0000 
      3 O2A       157.1940  185.5790  125.6950 O.co2     1 NAI404      0.0000 
      4 O5B       159.4410  186.7800  125.3520 O.3       1 NAI404      0.0000 
      5 C5B       159.7020  187.4290  124.1450 C.3       1 NAI404      0.0000 
      6 C4B       161.2330  187.7370  124.0600 C.3       1 NAI404      0.0000 
      7 O4B       161.8910  186.7460  123.5030 O.3       1 NAI404      0.0000 
      8 C3B       161.5040  188.9190  123.1450 C.3       1 NAI404      0.0000 
      9 O3B       161.8620  190.0070  123.8940 O.3       1 NAI404      0.0000 
     10 C2B       162.7000  188.4750  122.2500 C.3       1 NAI404      0.0000 
     11 O2B       163.6610  189.5830  122.1620 O.3       1 NAI404      0.0000 
     12 C1B       163.1970  187.4780  122.8910 C.3       1 NAI404      0.0000 
     13 N9A       163.9380  186.5700  122.0180 N.pl3     1 NAI404      0.0000 
     14 C8A       163.7180  185.2740  122.0040 C.2       1 NAI404      0.0000 
     15 N7A       164.5430  184.7140  121.1210 N.2       1 NAI404      0.0000 
     16 C5A       165.2830  185.6830  120.5920 C.ar      1 NAI404      0.0000 
     17 C6A       166.2840  185.6640  119.6400 C.ar      1 NAI404      0.0000 
     18 N6A       166.8880  184.6260  118.8840 N.pl3     1 NAI404      0.0000 
     19 N1A       166.8670  186.7770  119.2850 N.ar      1 NAI404      0.0000 
     20 C2A       166.4910  187.9450  119.8460 C.ar      1 NAI404      0.0000 
     21 N3A       165.5170  187.9660  120.7740 N.ar      1 NAI404      0.0000 
     22 C4A       164.9190  186.8260  121.1400 C.ar      1 NAI404      0.0000 
     23 O3        158.0490  187.0110  127.6950 O.3       1 NAI404      0.0000 
     24 PN        159.4690  187.3350  128.5400 P.3       1 NAI404      0.0000 
     25 O1N       159.2510  188.5070  129.4460 O.co2     1 NAI404      0.0000 
     26 O2N       160.6140  187.6820  127.5450 O.co2     1 NAI404      0.0000 
     27 O5D       159.8580  186.0010  129.4680 O.3       1 NAI404      0.0000 
     28 C5D       161.0170  185.3210  129.2460 C.3       1 NAI404      0.0000 
     29 C4D       161.5630  184.7900  130.6150 C.3       1 NAI404      0.0000 
     30 O4D       160.9630  185.4250  131.5800 O.3       1 NAI404      0.0000 
     31 C3D       161.2670  183.2720  130.8550 C.3       1 NAI404      0.0000 
     32 O3D       162.3630  182.6680  131.3320 O.3       1 NAI404      0.0000 
     33 C2D       160.1810  183.2420  131.9260 C.3       1 NAI404      0.0000 
     34 O2D       160.3360  182.0240  132.7590 O.3       1 NAI404      0.0000 
     35 C1D       160.4320  184.3150  132.6380 C.3       1 NAI404      0.0000 
     36 N1N       159.2790  184.8060  133.3490 N.pl3     1 NAI404      0.0000 
     37 C2N       158.2400  185.5500  132.6730 C.2       1 NAI404      0.0000 
     38 C3N       156.9350  185.9290  133.4040 C.2       1 NAI404      0.0000 
     39 C7N       155.6540  186.1490  132.5460 C.2       1 NAI404      0.0000 
     40 O7N       155.2160  185.2510  131.8870 O.2       1 NAI404      0.0000 
     41 N7N       154.9990  187.4340  132.5420 N.am      1 NAI404      0.0000 
     42 C4N       156.7720  185.6490  134.8940 C.3       1 NAI404      0.0000 
     43 C5N       158.0710  185.2140  135.5940 C.2       1 NAI404      0.0000 
     44 C6N       159.1860  184.5550  134.7760 C.2       1 NAI404      0.0000 
     45 H51A      159.4520  186.8760  123.4290 H         1 NAI404      0.0000 
     46 H52A      159.2170  188.2320  124.1080 H         1 NAI404      0.0000 
     47 H4B       161.5790  187.9090  124.9160 H         1 NAI404      0.0000 
     48 H3B       160.7510  189.1070  122.6170 H         1 NAI404      0.0000 
     49 HO3A      161.2070  190.2670  124.3360 H         1 NAI404      0.0000 
     50 H2B       162.4020  188.2120  121.3990 H         1 NAI404      0.0000 
     51 HO2A      163.4270  190.1940  122.6760 H         1 NAI404      0.0000 
     52 H1B       163.7480  187.7860  123.5860 H         1 NAI404      0.0000 
     53 H8A       163.2400  184.5460  122.3270 H         1 NAI404      0.0000 
     54 H61A      166.6380  184.4830  118.0650 H         1 NAI404      0.0000 
     55 H62A      167.5080  184.1340  119.2400 H         1 NAI404      0.0000 
     56 H2A       166.9380  188.7070  119.5590 H         1 NAI404      0.0000 
     57 H51N      160.8530  184.6000  128.6680 H         1 NAI404      0.0000 
     58 H52N      161.6500  185.8960  128.8590 H         1 NAI404      0.0000 
     59 H4D       162.4880  184.9400  130.6690 H         1 NAI404      0.0000 
     60 H3D       160.9680  182.8590  130.0670 H         1 NAI404      0.0000 
     61 HO3N      162.1760  182.2740  132.0410 H         1 NAI404      0.0000 
     62 H2D       159.3270  183.2850  131.5380 H         1 NAI404      0.0000 
     63 HO2N      160.3040  181.3500  132.2730 H         1 NAI404      0.0000 
     64 H1D       161.1170  184.1220  133.2500 H         1 NAI404      0.0000 
     65 H2N       158.3600  185.8030  131.7860 H         1 NAI404      0.0000 
     66 H71N      155.3180  188.0850  133.0200 H         1 NAI404      0.0000 
     67 H72N      154.2850  187.5560  132.0630 H         1 NAI404      0.0000 
     68 H4N       156.4620  186.4320  135.3090 H         1 NAI404      0.0000 
     69 H42N      156.1290  184.9760  135.0040 H         1 NAI404      0.0000 
     70 H5N       158.1330  185.2480  136.5210 H         1 NAI404      0.0000 
     71 H6N       159.8480  184.0630  135.2050 H         1 NAI404      0.0000 
@<TRIPOS>BOND
     1    1    2 ar   
     2    1    3 ar   
     3    1    4 1    
     4    1   23 1    
     5    4    5 1    
     6    5    6 1    
     7    6    7 1    
     8    5   45 1    
     9    5   46 1    
    10    6    8 1    
    11    7   12 1    
    12    6   47 1    
    13    8    9 1    
    14    8   10 1    
    15   10   11 1    
    16    8   48 1    
    17    9   49 1    
    18   10   12 1    
    19   12   13 1    
    20   10   50 1    
    21   12   52 1    
    22   11   51 1    
    23   13   14 1    
    24   13   22 1    
    25   14   15 2    
    26   15   16 1    
    27   14   53 1    
    28   16   17 ar   
    29   16   22 ar   
    30   17   18 1    
    31   17   19 ar   
    32   19   20 ar   
    33   18   54 1    
    34   18   55 1    
    35   20   21 ar   
    36   21   22 ar   
    37   20   56 1    
    38   23   24 1    
    39   24   25 ar   
    40   24   26 ar   
    41   24   27 1    
    42   27   28 1    
    43   28   29 1    
    44   29   30 1    
    45   28   57 1    
    46   28   58 1    
    47   29   31 1    
    48   30   35 1    
    49   29   59 1    
    50   31   32 1    
    51   31   33 1    
    52   33   34 1    
    53   31   60 1    
    54   32   61 1    
    55   33   35 1    
    56   35   36 1    
    57   33   62 1    
    58   35   64 1    
    59   34   63 1    
    60   36   37 1    
    61   36   44 1    
    62   37   38 2    
    63   38   39 1    
    64   37   65 1    
    65   38   42 1    
    66   39   40 2    
    67   39   41 am   
    68   42   43 1    
    69   41   66 1    
    70   41   67 1    
    71   43   44 2    
    72   42   68 1    
    73   42   69 1    
    74   43   70 1    
    75   44   71 1    
@<TRIPOS>SUBSTRUCTURE
     1 NAI404      1 GROUP   
@<TRIPOS>SET
ATOM$ORANGE STATIC     ATOMS   COLORGROUP SYSTEM 
42 5 5 6 6 8 8 10 10 12 12 14 14 16 16 17 17 20 \
20 22 22 28 28 29 29 31 31 33 33 35 35 37 37 38 38 39 \
39 42 42 43 43 44 44 

