#    Name: 6jd1_3_NAI
#    Modification time : Fri May 22 19:33:36 2020

@<TRIPOS>MOLECULE
6jd1_3_NAI
   71    75     1     0     1
SMALL
NO_CHARGES


@<TRIPOS>ATOM
      1 PA        155.6600  124.0100  186.6830 P.3       1 NAI404      0.0000 
      2 O1A       155.8870  124.9000  187.9500 O.co2     1 NAI404      0.0000 
      3 O2A       156.2010  124.7160  185.4680 O.co2     1 NAI404      0.0000 
      4 O5B       156.4220  122.5510  186.8450 O.3       1 NAI404      0.0000 
      5 C5B       157.5670  122.4370  187.6300 C.3       1 NAI404      0.0000 
      6 C4B       157.4760  121.1080  188.4460 C.3       1 NAI404      0.0000 
      7 O4B       157.5250  120.0820  187.6270 O.3       1 NAI404      0.0000 
      8 C3B       158.6590  120.9980  189.3900 C.3       1 NAI404      0.0000 
      9 O3B       158.2230  121.0140  190.6890 O.3       1 NAI404      0.0000 
     10 C2B       159.3430  119.6320  189.0880 C.3       1 NAI404      0.0000 
     11 O2B       159.1850  118.7480  190.2510 O.3       1 NAI404      0.0000 
     12 C1B       158.7470  119.1170  188.0670 C.3       1 NAI404      0.0000 
     13 N9A       159.6840  119.0240  186.9550 N.pl3     1 NAI404      0.0000 
     14 C8A       159.9090  120.0300  186.1370 C.2       1 NAI404      0.0000 
     15 N7A       160.8080  119.6420  185.2330 N.2       1 NAI404      0.0000 
     16 C5A       161.1300  118.3800  185.5050 C.ar      1 NAI404      0.0000 
     17 C6A       162.0020  117.5020  184.8930 C.ar      1 NAI404      0.0000 
     18 N6A       162.8590  117.6290  183.7730 N.pl3     1 NAI404      0.0000 
     19 N1A       162.1470  116.2920  185.3600 N.ar      1 NAI404      0.0000 
     20 C2A       161.4420  115.9000  186.4410 C.ar      1 NAI404      0.0000 
     21 N3A       160.5900  116.7510  187.0420 N.ar      1 NAI404      0.0000 
     22 C4A       160.4430  117.9920  186.5620 C.ar      1 NAI404      0.0000 
     23 O3        154.0080  123.7370  186.4790 O.3       1 NAI404      0.0000 
     24 PN        153.1770  122.4170  187.1080 P.3       1 NAI404      0.0000 
     25 O1N       152.4400  122.8310  188.3440 O.co2     1 NAI404      0.0000 
     26 O2N       154.1760  121.2800  187.4730 O.co2     1 NAI404      0.0000 
     27 O5D       152.0880  121.8780  185.9630 O.3       1 NAI404      0.0000 
     28 C5D       152.3710  120.7650  185.2310 C.3       1 NAI404      0.0000 
     29 C4D       151.0320  120.1920  184.6590 C.3       1 NAI404      0.0000 
     30 O4D       150.0320  120.7300  185.2980 O.3       1 NAI404      0.0000 
     31 C3D       150.8100  120.5650  183.1590 C.3       1 NAI404      0.0000 
     32 O3D       150.0930  119.6140  182.5450 O.3       1 NAI404      0.0000 
     33 C2D       149.9950  121.8500  183.2350 C.3       1 NAI404      0.0000 
     34 O2D       149.2630  122.0510  181.9610 O.3       1 NAI404      0.0000 
     35 C1D       149.1640  121.5850  184.2210 C.3       1 NAI404      0.0000 
     36 N1N       148.5690  122.7450  184.8450 N.pl3     1 NAI404      0.0000 
     37 C2N       149.3350  123.7140  185.6010 C.2       1 NAI404      0.0000 
     38 C3N       148.7190  125.0810  185.9690 C.2       1 NAI404      0.0000 
     39 C7N       149.6150  126.3500  185.8510 C.2       1 NAI404      0.0000 
     40 O7N       150.6750  126.2830  185.3020 O.2       1 NAI404      0.0000 
     41 N7N       149.1640  127.6050  186.4030 N.am      1 NAI404      0.0000 
     42 C4N       147.2080  125.2770  185.9280 C.3       1 NAI404      0.0000 
     43 C5N       146.4270  124.0130  185.5290 C.2       1 NAI404      0.0000 
     44 C6N       147.1330  122.9190  184.7220 C.2       1 NAI404      0.0000 
     45 H51A      158.3270  122.4180  187.0790 H         1 NAI404      0.0000 
     46 H52A      157.6220  123.1660  188.2190 H         1 NAI404      0.0000 
     47 H4B       156.6760  121.0840  188.9360 H         1 NAI404      0.0000 
     48 H3B       159.2610  121.7020  189.2360 H         1 NAI404      0.0000 
     49 HO3A      158.7410  120.5660  191.1610 H         1 NAI404      0.0000 
     50 H2B       160.2530  119.7630  188.8970 H         1 NAI404      0.0000 
     51 HO2A      159.6280  118.0540  190.1330 H         1 NAI404      0.0000 
     52 H1B       158.4170  118.2660  188.2860 H         1 NAI404      0.0000 
     53 H8A       159.7340  120.9080  185.8890 H         1 NAI404      0.0000 
     54 H61A      162.5270  117.8000  182.9890 H         1 NAI404      0.0000 
     55 H62A      163.7170  117.5360  183.8700 H         1 NAI404      0.0000 
     56 H2A       161.5810  115.0290  186.7330 H         1 NAI404      0.0000 
     57 H51N      152.7790  120.1220  185.7800 H         1 NAI404      0.0000 
     58 H52N      152.9480  120.9900  184.5250 H         1 NAI404      0.0000 
     59 H4D       151.0090  119.2590  184.7610 H         1 NAI404      0.0000 
     60 H3D       151.6280  120.7120  182.7230 H         1 NAI404      0.0000 
     61 HO3N      149.5430  119.9690  182.0320 H         1 NAI404      0.0000 
     62 H2D       150.5440  122.5840  183.4370 H         1 NAI404      0.0000 
     63 HO2N      149.7810  121.9280  181.3210 H         1 NAI404      0.0000 
     64 H1D       148.4780  121.0370  183.8890 H         1 NAI404      0.0000 
     65 H2N       150.2030  123.5120  185.8660 H         1 NAI404      0.0000 
     66 H71N      149.6630  128.3120  186.3370 H         1 NAI404      0.0000 
     67 H72N      148.3940  127.6520  186.8010 H         1 NAI404      0.0000 
     68 H4N       146.9200  125.5490  186.7790 H         1 NAI404      0.0000 
     69 H42N      147.0130  125.9560  185.3090 H         1 NAI404      0.0000 
     70 H5N       145.5060  123.9770  185.6550 H         1 NAI404      0.0000 
     71 H6N       146.6570  122.4250  184.0940 H         1 NAI404      0.0000 
@<TRIPOS>BOND
     1    1    2 ar   
     2    1    3 ar   
     3    1    4 1    
     4    1   23 1    
     5    4    5 1    
     6    5    6 1    
     7    6    7 1    
     8    5   45 1    
     9    5   46 1    
    10    6    8 1    
    11    7   12 1    
    12    6   47 1    
    13    8    9 1    
    14    8   10 1    
    15   10   11 1    
    16    8   48 1    
    17    9   49 1    
    18   10   12 1    
    19   12   13 1    
    20   10   50 1    
    21   12   52 1    
    22   11   51 1    
    23   13   14 1    
    24   13   22 1    
    25   14   15 2    
    26   15   16 1    
    27   14   53 1    
    28   16   17 ar   
    29   16   22 ar   
    30   17   18 1    
    31   17   19 ar   
    32   19   20 ar   
    33   18   54 1    
    34   18   55 1    
    35   20   21 ar   
    36   21   22 ar   
    37   20   56 1    
    38   23   24 1    
    39   24   25 ar   
    40   24   26 ar   
    41   24   27 1    
    42   27   28 1    
    43   28   29 1    
    44   29   30 1    
    45   28   57 1    
    46   28   58 1    
    47   29   31 1    
    48   30   35 1    
    49   29   59 1    
    50   31   32 1    
    51   31   33 1    
    52   33   34 1    
    53   31   60 1    
    54   32   61 1    
    55   33   35 1    
    56   35   36 1    
    57   33   62 1    
    58   35   64 1    
    59   34   63 1    
    60   36   37 1    
    61   36   44 1    
    62   37   38 2    
    63   38   39 1    
    64   37   65 1    
    65   38   42 1    
    66   39   40 2    
    67   39   41 am   
    68   42   43 1    
    69   41   66 1    
    70   41   67 1    
    71   43   44 2    
    72   42   68 1    
    73   42   69 1    
    74   43   70 1    
    75   44   71 1    
@<TRIPOS>SUBSTRUCTURE
     1 NAI404      1 GROUP   
@<TRIPOS>SET
ATOM$ORANGE STATIC     ATOMS   COLORGROUP SYSTEM 
42 5 5 6 6 8 8 10 10 12 12 14 14 16 16 17 17 20 \
20 22 22 28 28 29 29 31 31 33 33 35 35 37 37 38 38 39 \
39 42 42 43 43 44 44 

