#    Name: 6jd1_9_NAI
#    Modification time : Fri May 22 19:34:16 2020

@<TRIPOS>MOLECULE
6jd1_9_NAI
   71    75     1     0     1
SMALL
NO_CHARGES


@<TRIPOS>ATOM
      1 PA        155.7810  158.2110   95.1530 P.3       1 NAI404      0.0000 
      2 O1A       156.0110  157.2670   93.9280 O.co2     1 NAI404      0.0000 
      3 O2A       156.4840  157.6470   96.3600 O.co2     1 NAI404      0.0000 
      4 O5B       156.3850  159.7140   94.8260 O.3       1 NAI404      0.0000 
      5 C5B       157.6140  159.8100   94.1780 C.3       1 NAI404      0.0000 
      6 C4B       157.6840  161.1640   93.4030 C.3       1 NAI404      0.0000 
      7 O4B       157.8130  162.1610   94.2610 O.3       1 NAI404      0.0000 
      8 C3B       158.9280  161.1920   92.5280 C.3       1 NAI404      0.0000 
      9 O3B       158.6750  161.8130   91.3330 O.3       1 NAI404      0.0000 
     10 C2B       159.9200  162.0270   93.3830 C.3       1 NAI404      0.0000 
     11 O2B       161.0080  162.5720   92.5580 O.3       1 NAI404      0.0000 
     12 C1B       159.1510  162.9570   93.8160 C.3       1 NAI404      0.0000 
     13 N9A       159.7930  163.6620   94.9220 N.pl3     1 NAI404      0.0000 
     14 C8A       159.5950  163.4090   96.1980 C.2       1 NAI404      0.0000 
     15 N7A       160.3500  164.2450   96.9140 N.2       1 NAI404      0.0000 
     16 C5A       161.0180  165.0170   96.0600 C.ar      1 NAI404      0.0000 
     17 C6A       161.9300  166.0410   96.2360 C.ar      1 NAI404      0.0000 
     18 N6A       162.4980  166.6530   97.3820 N.pl3     1 NAI404      0.0000 
     19 N1A       162.4440  166.6410   95.1970 N.ar      1 NAI404      0.0000 
     20 C2A       162.0870  166.2630   93.9520 C.ar      1 NAI404      0.0000 
     21 N3A       161.2030  165.2710   93.7760 N.ar      1 NAI404      0.0000 
     22 C4A       160.6770  164.6580   94.8400 C.ar      1 NAI404      0.0000 
     23 O3        154.1310  158.3330   95.4750 O.3       1 NAI404      0.0000 
     24 PN        153.1200  159.4950   94.7990 P.3       1 NAI404      0.0000 
     25 O1N       152.4020  158.9130   93.6210 O.co2     1 NAI404      0.0000 
     26 O2N       153.9620  160.7140   94.3230 O.co2     1 NAI404      0.0000 
     27 O5D       152.0070  159.9710   95.9500 O.3       1 NAI404      0.0000 
     28 C5D       152.2800  161.0500   96.7350 C.3       1 NAI404      0.0000 
     29 C4D       150.9300  161.6620   97.2390 C.3       1 NAI404      0.0000 
     30 O4D       149.9500  161.1360   96.5630 O.3       1 NAI404      0.0000 
     31 C3D       150.6330  161.3340   98.7380 C.3       1 NAI404      0.0000 
     32 O3D       150.0010  162.3640   99.3190 O.3       1 NAI404      0.0000 
     33 C2D       149.6950  160.1360   98.6750 C.3       1 NAI404      0.0000 
     34 O2D       148.8610  160.1040   99.9000 O.3       1 NAI404      0.0000 
     35 C1D       148.9600  160.3930   97.6150 C.3       1 NAI404      0.0000 
     36 N1N       148.3830  159.2130   97.0160 N.pl3     1 NAI404      0.0000 
     37 C2N       149.1770  158.2830   96.2420 C.2       1 NAI404      0.0000 
     38 C3N       148.6310  156.8750   95.9210 C.2       1 NAI404      0.0000 
     39 C7N       149.6170  155.6720   96.0130 C.2       1 NAI404      0.0000 
     40 O7N       150.7220  155.8400   96.4360 O.2       1 NAI404      0.0000 
     41 N7N       149.1960  154.3580   95.5890 N.am      1 NAI404      0.0000 
     42 C4N       147.1380  156.5880   96.0350 C.3       1 NAI404      0.0000 
     43 C5N       146.2970  157.8130   96.4350 C.2       1 NAI404      0.0000 
     44 C6N       146.9610  158.9740   97.1830 C.2       1 NAI404      0.0000 
     45 H51A      158.3060  159.7750   94.8120 H         1 NAI404      0.0000 
     46 H52A      157.7060  159.0970   93.5740 H         1 NAI404      0.0000 
     47 H4B       156.9150  161.2850   92.8780 H         1 NAI404      0.0000 
     48 H3B       159.2580  160.3230   92.3940 H         1 NAI404      0.0000 
     49 HO3A      158.4060  161.2520   90.7800 H         1 NAI404      0.0000 
     50 H2B       160.2570  161.5160   94.0950 H         1 NAI404      0.0000 
     51 HO2A      161.7310  162.2330   92.7930 H         1 NAI404      0.0000 
     52 H1B       158.9500  163.5560   93.1210 H         1 NAI404      0.0000 
     53 H8A       159.1640  162.9100   96.8520 H         1 NAI404      0.0000 
     54 H61A      162.8560  166.1630   98.0030 H         1 NAI404      0.0000 
     55 H62A      162.4870  167.5170   97.4630 H         1 NAI404      0.0000 
     56 H2A       162.4810  166.7220   93.2480 H         1 NAI404      0.0000 
     57 H51N      152.7480  161.6920   96.2350 H         1 NAI404      0.0000 
     58 H52N      152.8010  160.7820   97.4680 H         1 NAI404      0.0000 
     59 H4D       150.9340  162.5930   97.1150 H         1 NAI404      0.0000 
     60 H3D       151.4220  161.1160   99.1980 H         1 NAI404      0.0000 
     61 HO3N      149.3450  162.0820   99.7460 H         1 NAI404      0.0000 
     62 H2D       150.1780  159.3380   98.5680 H         1 NAI404      0.0000 
     63 HO2N      149.3510  160.1530  100.5710 H         1 NAI404      0.0000 
     64 H1D       148.2730  160.9850   97.8580 H         1 NAI404      0.0000 
     65 H2N       150.0190  158.5340   95.9370 H         1 NAI404      0.0000 
     66 H71N      149.7460  153.6880   95.6410 H         1 NAI404      0.0000 
     67 H72N      148.3930  154.2380   95.2820 H         1 NAI404      0.0000 
     68 H4N       146.8310  156.2740   95.2050 H         1 NAI404      0.0000 
     69 H42N      147.0120  155.9170   96.6800 H         1 NAI404      0.0000 
     70 H5N       145.3740  157.7990   96.3250 H         1 NAI404      0.0000 
     71 H6N       146.4830  159.4460   97.8260 H         1 NAI404      0.0000 
@<TRIPOS>BOND
     1    1    2 ar   
     2    1    3 ar   
     3    1    4 1    
     4    1   23 1    
     5    4    5 1    
     6    5    6 1    
     7    6    7 1    
     8    5   45 1    
     9    5   46 1    
    10    6    8 1    
    11    7   12 1    
    12    6   47 1    
    13    8    9 1    
    14    8   10 1    
    15   10   11 1    
    16    8   48 1    
    17    9   49 1    
    18   10   12 1    
    19   12   13 1    
    20   10   50 1    
    21   12   52 1    
    22   11   51 1    
    23   13   14 1    
    24   13   22 1    
    25   14   15 2    
    26   15   16 1    
    27   14   53 1    
    28   16   17 ar   
    29   16   22 ar   
    30   17   18 1    
    31   17   19 ar   
    32   19   20 ar   
    33   18   54 1    
    34   18   55 1    
    35   20   21 ar   
    36   21   22 ar   
    37   20   56 1    
    38   23   24 1    
    39   24   25 ar   
    40   24   26 ar   
    41   24   27 1    
    42   27   28 1    
    43   28   29 1    
    44   29   30 1    
    45   28   57 1    
    46   28   58 1    
    47   29   31 1    
    48   30   35 1    
    49   29   59 1    
    50   31   32 1    
    51   31   33 1    
    52   33   34 1    
    53   31   60 1    
    54   32   61 1    
    55   33   35 1    
    56   35   36 1    
    57   33   62 1    
    58   35   64 1    
    59   34   63 1    
    60   36   37 1    
    61   36   44 1    
    62   37   38 2    
    63   38   39 1    
    64   37   65 1    
    65   38   42 1    
    66   39   40 2    
    67   39   41 am   
    68   42   43 1    
    69   41   66 1    
    70   41   67 1    
    71   43   44 2    
    72   42   68 1    
    73   42   69 1    
    74   43   70 1    
    75   44   71 1    
@<TRIPOS>SUBSTRUCTURE
     1 NAI404      1 GROUP   
@<TRIPOS>SET
ATOM$ORANGE STATIC     ATOMS   COLORGROUP SYSTEM 
42 5 5 6 6 8 8 10 10 12 12 14 14 16 16 17 17 20 \
20 22 22 28 28 29 29 31 31 33 33 35 35 37 37 38 38 39 \
39 42 42 43 43 44 44 

