#    Name: 6jd1_12_NAI
#    Modification time : Fri May 22 19:34:37 2020

@<TRIPOS>MOLECULE
6jd1_12_NAI
   71    75     1     0     1
SMALL
NO_CHARGES


@<TRIPOS>ATOM
      1 PA        124.0850  186.8430  155.7370 P.3       1 NAI404      0.0000 
      2 O1A       125.0290  187.9930  156.2200 O.co2     1 NAI404      0.0000 
      3 O2A       124.6600  185.5170  156.1610 O.co2     1 NAI404      0.0000 
      4 O5B       122.5790  187.0090  156.4010 O.3       1 NAI404      0.0000 
      5 C5B       122.4110  187.7370  157.5770 C.3       1 NAI404      0.0000 
      6 C4B       120.9600  188.3170  157.6030 C.3       1 NAI404      0.0000 
      7 O4B       120.1020  187.3510  157.8480 O.3       1 NAI404      0.0000 
      8 C3B       120.8170  189.3120  158.7430 C.3       1 NAI404      0.0000 
      9 O3B       120.4850  190.5520  158.2640 O.3       1 NAI404      0.0000 
     10 C2B       119.6600  188.7580  159.6290 C.3       1 NAI404      0.0000 
     11 O2B       118.8300  189.8860  160.0830 O.3       1 NAI404      0.0000 
     12 C1B       118.9990  187.9690  158.8560 C.3       1 NAI404      0.0000 
     13 N9A       118.3850  186.8900  159.6290 N.pl3     1 NAI404      0.0000 
     14 C8A       118.8660  185.6650  159.6320 C.2       1 NAI404      0.0000 
     15 N7A       118.1030  184.9110  160.4220 N.2       1 NAI404      0.0000 
     16 C5A       117.1390  185.6850  160.9090 C.ar      1 NAI404      0.0000 
     17 C6A       116.0880  185.4230  161.7660 C.ar      1 NAI404      0.0000 
     18 N6A       115.6450  184.2590  162.4410 N.pl3     1 NAI404      0.0000 
     19 N1A       115.2620  186.3740  162.0980 N.ar      1 NAI404      0.0000 
     20 C2A       115.4360  187.6140  161.6030 C.ar      1 NAI404      0.0000 
     21 N3A       116.4580  187.8760  160.7690 N.ar      1 NAI404      0.0000 
     22 C4A       117.3060  186.9010  160.4260 C.ar      1 NAI404      0.0000 
     23 O3        123.9700  186.8860  154.0530 O.3       1 NAI404      0.0000 
     24 PN        122.5680  187.2000  153.1740 P.3       1 NAI404      0.0000 
     25 O1N       122.8260  188.3310  152.2260 O.co2     1 NAI404      0.0000 
     26 O2N       121.4060  187.6050  154.1270 O.co2     1 NAI404      0.0000 
     27 O5D       122.1720  185.8310  152.3020 O.3       1 NAI404      0.0000 
     28 C5D       120.9440  185.2540  152.4360 C.3       1 NAI404      0.0000 
     29 C4D       120.4800  184.7370  151.0340 C.3       1 NAI404      0.0000 
     30 O4D       121.1130  185.4010  150.1120 O.3       1 NAI404      0.0000 
     31 C3D       120.8290  183.2310  150.7930 C.3       1 NAI404      0.0000 
     32 O3D       119.7390  182.5750  150.3750 O.3       1 NAI404      0.0000 
     33 C2D       121.8650  183.2290  149.6730 C.3       1 NAI404      0.0000 
     34 O2D       121.6520  182.0360  148.8170 O.3       1 NAI404      0.0000 
     35 C1D       121.6050  184.3270  149.0020 C.3       1 NAI404      0.0000 
     36 N1N       122.7520  184.8290  148.2880 N.pl3     1 NAI404      0.0000 
     37 C2N       123.7820  185.5830  148.9690 C.2       1 NAI404      0.0000 
     38 C3N       124.9510  186.2070  148.1780 C.2       1 NAI404      0.0000 
     39 C7N       126.0720  186.9500  148.9670 C.2       1 NAI404      0.0000 
     40 O7N       126.5330  186.4540  149.9540 O.2       1 NAI404      0.0000 
     41 N7N       126.5460  188.2370  148.5180 N.am      1 NAI404      0.0000 
     42 C4N       125.2120  185.7810  146.7370 C.3       1 NAI404      0.0000 
     43 C5N       123.9550  185.2430  146.0290 C.2       1 NAI404      0.0000 
     44 C6N       122.8520  184.5760  146.8590 C.2       1 NAI404      0.0000 
     45 H51A      123.0320  188.4410  157.6050 H         1 NAI404      0.0000 
     46 H52A      122.5390  187.1740  158.3170 H         1 NAI404      0.0000 
     47 H4B       120.7560  188.7310  156.7850 H         1 NAI404      0.0000 
     48 H3B       121.6130  189.3520  159.2390 H         1 NAI404      0.0000 
     49 HO3A      120.0350  190.9580  158.8340 H         1 NAI404      0.0000 
     50 H2B       120.0070  188.2830  160.3610 H         1 NAI404      0.0000 
     51 HO2A      118.0350  189.6450  160.1310 H         1 NAI404      0.0000 
     52 H1B       118.3500  188.4480  158.3760 H         1 NAI404      0.0000 
     53 H8A       119.5080  185.0630  159.3350 H         1 NAI404      0.0000 
     54 H61A      114.7960  184.0880  162.5010 H         1 NAI404      0.0000 
     55 H62A      116.2230  183.7160  162.7950 H         1 NAI404      0.0000 
     56 H2A       114.8210  188.2570  161.8700 H         1 NAI404      0.0000 
     57 H51N      120.3300  185.8880  152.7550 H         1 NAI404      0.0000 
     58 H52N      120.9960  184.5360  153.0390 H         1 NAI404      0.0000 
     59 H4D       119.5550  184.8650  150.9350 H         1 NAI404      0.0000 
     60 H3D       121.1810  182.8410  151.5710 H         1 NAI404      0.0000 
     61 HO3N      119.8710  182.2770  149.6100 H         1 NAI404      0.0000 
     62 H2D       122.7360  183.2460  150.0240 H         1 NAI404      0.0000 
     63 HO2N      121.7230  181.3470  149.2780 H         1 NAI404      0.0000 
     64 H1D       120.9050  184.1620  148.3980 H         1 NAI404      0.0000 
     65 H2N       123.7390  185.6930  149.8920 H         1 NAI404      0.0000 
     66 H71N      127.1690  188.6480  148.9600 H         1 NAI404      0.0000 
     67 H72N      126.2100  188.5980  147.8030 H         1 NAI404      0.0000 
     68 H4N       125.5320  186.5230  146.2580 H         1 NAI404      0.0000 
     69 H42N      125.8680  185.1100  146.7360 H         1 NAI404      0.0000 
     70 H5N       123.9260  185.2040  145.1000 H         1 NAI404      0.0000 
     71 H6N       122.2430  184.0060  146.4470 H         1 NAI404      0.0000 
@<TRIPOS>BOND
     1    1    2 ar   
     2    1    3 ar   
     3    1    4 1    
     4    1   23 1    
     5    4    5 1    
     6    5    6 1    
     7    6    7 1    
     8    5   45 1    
     9    5   46 1    
    10    6    8 1    
    11    7   12 1    
    12    6   47 1    
    13    8    9 1    
    14    8   10 1    
    15   10   11 1    
    16    8   48 1    
    17    9   49 1    
    18   10   12 1    
    19   12   13 1    
    20   10   50 1    
    21   12   52 1    
    22   11   51 1    
    23   13   14 1    
    24   13   22 1    
    25   14   15 2    
    26   15   16 1    
    27   14   53 1    
    28   16   17 ar   
    29   16   22 ar   
    30   17   18 1    
    31   17   19 ar   
    32   19   20 ar   
    33   18   54 1    
    34   18   55 1    
    35   20   21 ar   
    36   21   22 ar   
    37   20   56 1    
    38   23   24 1    
    39   24   25 ar   
    40   24   26 ar   
    41   24   27 1    
    42   27   28 1    
    43   28   29 1    
    44   29   30 1    
    45   28   57 1    
    46   28   58 1    
    47   29   31 1    
    48   30   35 1    
    49   29   59 1    
    50   31   32 1    
    51   31   33 1    
    52   33   34 1    
    53   31   60 1    
    54   32   61 1    
    55   33   35 1    
    56   35   36 1    
    57   33   62 1    
    58   35   64 1    
    59   34   63 1    
    60   36   37 1    
    61   36   44 1    
    62   37   38 2    
    63   38   39 1    
    64   37   65 1    
    65   38   42 1    
    66   39   40 2    
    67   39   41 am   
    68   42   43 1    
    69   41   66 1    
    70   41   67 1    
    71   43   44 2    
    72   42   68 1    
    73   42   69 1    
    74   43   70 1    
    75   44   71 1    
@<TRIPOS>SUBSTRUCTURE
     1 NAI404      1 GROUP   
@<TRIPOS>SET
ATOM$ORANGE STATIC     ATOMS   COLORGROUP SYSTEM 
42 5 5 6 6 8 8 10 10 12 12 14 14 16 16 17 17 20 \
20 22 22 28 28 29 29 31 31 33 33 35 35 37 37 38 38 39 \
39 42 42 43 43 44 44 

