#    Name: 6jd1_8_NAI
#    Modification time : Fri May 22 19:34:10 2020

@<TRIPOS>MOLECULE
6jd1_8_NAI
   71    75     1     0     1
SMALL
NO_CHARGES


@<TRIPOS>ATOM
      1 PA         94.9440  155.7560  157.7570 P.3       1 NAI404      0.0000 
      2 O1A        93.7260  156.1470  156.8570 O.co2     1 NAI404      0.0000 
      3 O2A        96.2190  156.2180  157.1010 O.co2     1 NAI404      0.0000 
      4 O5B        94.8300  156.4570  159.2510 O.3       1 NAI404      0.0000 
      5 C5B        94.0860  157.6210  159.4350 C.3       1 NAI404      0.0000 
      6 C4B        93.3070  157.4980  160.7840 C.3       1 NAI404      0.0000 
      7 O4B        94.1560  157.5150  161.7850 O.3       1 NAI404      0.0000 
      8 C3B        92.3750  158.6840  160.9510 C.3       1 NAI404      0.0000 
      9 O3B        91.0730  158.2560  160.9830 O.3       1 NAI404      0.0000 
     10 C2B        92.7390  159.3460  162.3130 C.3       1 NAI404      0.0000 
     11 O2B        91.6080  159.1950  163.2400 O.3       1 NAI404      0.0000 
     12 C1B        93.7700  158.7300  162.7810 C.3       1 NAI404      0.0000 
     13 N9A        94.8940  159.6550  162.8470 N.pl3     1 NAI404      0.0000 
     14 C8A        95.6830  159.8860  161.8200 C.2       1 NAI404      0.0000 
     15 N7A        96.6050  160.7730  162.1900 N.2       1 NAI404      0.0000 
     16 C5A        96.3740  161.0840  163.4640 C.ar      1 NAI404      0.0000 
     17 C6A        97.0180  161.9410  164.3330 C.ar      1 NAI404      0.0000 
     18 N6A        98.1400  162.7910  164.1870 N.pl3     1 NAI404      0.0000 
     19 N1A        96.5880  162.0750  165.5580 N.ar      1 NAI404      0.0000 
     20 C2A        95.5130  161.3720  165.9720 C.ar      1 NAI404      0.0000 
     21 N3A        94.8800  160.5370  165.1300 N.ar      1 NAI404      0.0000 
     22 C4A        95.3240  160.4000  163.8750 C.ar      1 NAI404      0.0000 
     23 O3         94.9910  154.0780  157.9330 O.3       1 NAI404      0.0000 
     24 PN         94.5600  153.2310  159.3230 P.3       1 NAI404      0.0000 
     25 O1N        93.3730  152.3650  159.0300 O.co2     1 NAI404      0.0000 
     26 O2N        94.1820  154.2140  160.4690 O.co2     1 NAI404      0.0000 
     27 O5D        95.8430  152.2600  159.7690 O.3       1 NAI404      0.0000 
     28 C5D        96.5830  152.5450  160.8770 C.3       1 NAI404      0.0000 
     29 C4D        97.0450  151.1890  161.5100 C.3       1 NAI404      0.0000 
     30 O4D        96.3940  150.2210  160.9350 O.3       1 NAI404      0.0000 
     31 C3D        98.5620  150.8820  161.2830 C.3       1 NAI404      0.0000 
     32 O3D        99.0970  150.3810  162.4030 O.3       1 NAI404      0.0000 
     33 C2D        98.5930  149.8100  160.1980 C.3       1 NAI404      0.0000 
     34 O2D        99.7630  148.9250  160.4140 O.3       1 NAI404      0.0000 
     35 C1D        97.4780  149.1430  160.3900 C.3       1 NAI404      0.0000 
     36 N1N        96.9880  148.5170  159.1900 N.pl3     1 NAI404      0.0000 
     37 C2N        96.2750  149.2740  158.1870 C.2       1 NAI404      0.0000 
     38 C3N        95.9540  148.6440  156.8160 C.2       1 NAI404      0.0000 
     39 C7N        96.1160  149.5360  155.5500 C.2       1 NAI404      0.0000 
     40 O7N        96.7880  150.5240  155.5990 O.2       1 NAI404      0.0000 
     41 N7N        95.4570  149.1700  154.3210 N.am      1 NAI404      0.0000 
     42 C4N        96.0110  147.1310  156.6330 C.3       1 NAI404      0.0000 
     43 C5N        96.4520  146.3590  157.8900 C.2       1 NAI404      0.0000 
     44 C6N        97.2010  147.0930  159.0060 C.2       1 NAI404      0.0000 
     45 H51A       93.4780  157.7240  158.7270 H         1 NAI404      0.0000 
     46 H52A       94.6620  158.3620  159.4680 H         1 NAI404      0.0000 
     47 H4B        92.8120  156.7000  160.8010 H         1 NAI404      0.0000 
     48 H3B        92.5030  159.2960  160.2510 H         1 NAI404      0.0000 
     49 HO3A       90.6220  158.7750  161.4520 H         1 NAI404      0.0000 
     50 H2B        92.9380  160.2550  162.1850 H         1 NAI404      0.0000 
     51 HO2A       91.7620  159.6240  163.9360 H         1 NAI404      0.0000 
     52 H1B        93.5780  158.3920  163.6350 H         1 NAI404      0.0000 
     53 H8A        95.9040  159.7190  160.9330 H         1 NAI404      0.0000 
     54 H61A       98.9310  162.4510  164.0800 H         1 NAI404      0.0000 
     55 H62A       98.0370  163.6530  164.2040 H         1 NAI404      0.0000 
     56 H2A        95.2470  161.5030  166.8520 H         1 NAI404      0.0000 
     57 H51N       96.0600  153.0200  161.4950 H         1 NAI404      0.0000 
     58 H52N       97.3310  153.0580  160.6350 H         1 NAI404      0.0000 
     59 H4D        96.8600  151.1870  162.4310 H         1 NAI404      0.0000 
     60 H3D        99.0220  151.6510  161.0030 H         1 NAI404      0.0000 
     61 HO3N       99.4540  149.6480  162.2360 H         1 NAI404      0.0000 
     62 H2D        98.6120  150.1990  159.3440 H         1 NAI404      0.0000 
     63 HO2N      100.4590  149.3800  160.4100 H         1 NAI404      0.0000 
     64 H1D        97.6200  148.4890  161.0480 H         1 NAI404      0.0000 
     65 H2N        96.0080  150.1460  158.3690 H         1 NAI404      0.0000 
     66 H71N       95.5470  149.6670  153.6150 H         1 NAI404      0.0000 
     67 H72N       94.9700  148.4530  154.2870 H         1 NAI404      0.0000 
     68 H4N        95.1570  146.8300  156.3840 H         1 NAI404      0.0000 
     69 H42N       96.6150  146.9390  155.9400 H         1 NAI404      0.0000 
     70 H5N        96.1770  145.4790  158.0150 H         1 NAI404      0.0000 
     71 H6N        97.8800  146.6610  159.4720 H         1 NAI404      0.0000 
@<TRIPOS>BOND
     1    1    2 ar   
     2    1    3 ar   
     3    1    4 1    
     4    1   23 1    
     5    4    5 1    
     6    5    6 1    
     7    6    7 1    
     8    5   45 1    
     9    5   46 1    
    10    6    8 1    
    11    7   12 1    
    12    6   47 1    
    13    8    9 1    
    14    8   10 1    
    15   10   11 1    
    16    8   48 1    
    17    9   49 1    
    18   10   12 1    
    19   12   13 1    
    20   10   50 1    
    21   12   52 1    
    22   11   51 1    
    23   13   14 1    
    24   13   22 1    
    25   14   15 2    
    26   15   16 1    
    27   14   53 1    
    28   16   17 ar   
    29   16   22 ar   
    30   17   18 1    
    31   17   19 ar   
    32   19   20 ar   
    33   18   54 1    
    34   18   55 1    
    35   20   21 ar   
    36   21   22 ar   
    37   20   56 1    
    38   23   24 1    
    39   24   25 ar   
    40   24   26 ar   
    41   24   27 1    
    42   27   28 1    
    43   28   29 1    
    44   29   30 1    
    45   28   57 1    
    46   28   58 1    
    47   29   31 1    
    48   30   35 1    
    49   29   59 1    
    50   31   32 1    
    51   31   33 1    
    52   33   34 1    
    53   31   60 1    
    54   32   61 1    
    55   33   35 1    
    56   35   36 1    
    57   33   62 1    
    58   35   64 1    
    59   34   63 1    
    60   36   37 1    
    61   36   44 1    
    62   37   38 2    
    63   38   39 1    
    64   37   65 1    
    65   38   42 1    
    66   39   40 2    
    67   39   41 am   
    68   42   43 1    
    69   41   66 1    
    70   41   67 1    
    71   43   44 2    
    72   42   68 1    
    73   42   69 1    
    74   43   70 1    
    75   44   71 1    
@<TRIPOS>SUBSTRUCTURE
     1 NAI404      1 GROUP   
@<TRIPOS>SET
ATOM$ORANGE STATIC     ATOMS   COLORGROUP SYSTEM 
42 5 5 6 6 8 8 10 10 12 12 14 14 16 16 17 17 20 \
20 22 22 28 28 29 29 31 31 33 33 35 35 37 37 38 38 39 \
39 42 42 43 43 44 44 

