#    Name: 6jd1_7_NAI
#    Modification time : Fri May 22 19:34:03 2020

@<TRIPOS>MOLECULE
6jd1_7_NAI
   71    75     1     0     1
SMALL
NO_CHARGES


@<TRIPOS>ATOM
      1 PA         95.2010  126.2530  124.0370 P.3       1 NAI404      0.0000 
      2 O1A        93.9240  126.0210  124.9100 O.co2     1 NAI404      0.0000 
      3 O2A        96.4150  125.7480  124.7710 O.co2     1 NAI404      0.0000 
      4 O5B        95.0760  125.4650  122.5880 O.3       1 NAI404      0.0000 
      5 C5B        94.2980  124.3150  122.4760 C.3       1 NAI404      0.0000 
      6 C4B        93.4990  124.3910  121.1360 C.3       1 NAI404      0.0000 
      7 O4B        94.3340  124.3530  120.1220 O.3       1 NAI404      0.0000 
      8 C3B        92.5810  123.1900  121.0120 C.3       1 NAI404      0.0000 
      9 O3B        91.2750  123.5880  121.1160 O.3       1 NAI404      0.0000 
     10 C2B        92.8310  122.5940  119.5950 C.3       1 NAI404      0.0000 
     11 O2B        91.6820  122.9000  118.7320 O.3       1 NAI404      0.0000 
     12 C1B        93.8920  123.1560  119.1260 C.3       1 NAI404      0.0000 
     13 N9A        94.9650  122.1730  119.0650 N.pl3     1 NAI404      0.0000 
     14 C8A        95.7290  121.8940  120.0990 C.2       1 NAI404      0.0000 
     15 N7A        96.6090  120.9630  119.7310 N.2       1 NAI404      0.0000 
     16 C5A        96.3750  120.6730  118.4520 C.ar      1 NAI404      0.0000 
     17 C6A        96.9820  119.7900  117.5830 C.ar      1 NAI404      0.0000 
     18 N6A        98.0570  118.8800  117.7340 N.pl3     1 NAI404      0.0000 
     19 N1A        96.5570  119.6880  116.3530 N.ar      1 NAI404      0.0000 
     20 C2A        95.5240  120.4470  115.9320 C.ar      1 NAI404      0.0000 
     21 N3A        94.9290  121.3100  116.7750 N.ar      1 NAI404      0.0000 
     22 C4A        95.3660  121.4140  118.0360 C.ar      1 NAI404      0.0000 
     23 O3         95.3780  127.9020  123.7300 O.3       1 NAI404      0.0000 
     24 PN         94.6610  128.6970  122.4330 P.3       1 NAI404      0.0000 
     25 O1N        93.4090  129.3810  122.8880 O.co2     1 NAI404      0.0000 
     26 O2N        94.3090  127.6780  121.3110 O.co2     1 NAI404      0.0000 
     27 O5D        95.7280  129.8380  121.8470 O.3       1 NAI404      0.0000 
     28 C5D        96.6150  129.4880  120.8770 C.3       1 NAI404      0.0000 
     29 C4D        97.1050  130.7930  120.1650 C.3       1 NAI404      0.0000 
     30 O4D        96.4970  131.8160  120.6890 O.3       1 NAI404      0.0000 
     31 C3D        98.6290  131.0630  120.3740 C.3       1 NAI404      0.0000 
     32 O3D        99.1350  131.7070  119.3160 O.3       1 NAI404      0.0000 
     33 C2D        98.6840  131.9890  121.5830 C.3       1 NAI404      0.0000 
     34 O2D        99.8990  132.8350  121.5010 O.3       1 NAI404      0.0000 
     35 C1D        97.6040  132.7310  121.4500 C.3       1 NAI404      0.0000 
     36 N1N        97.0780  133.1960  122.7100 N.pl3     1 NAI404      0.0000 
     37 C2N        96.3450  132.3190  123.5980 C.2       1 NAI404      0.0000 
     38 C3N        95.9620  132.7910  125.0140 C.2       1 NAI404      0.0000 
     39 C7N        95.8110  131.7310  126.1460 C.2       1 NAI404      0.0000 
     40 O7N        95.6730  130.5760  125.8650 O.2       1 NAI404      0.0000 
     41 N7N        95.8430  132.1430  127.5290 N.am      1 NAI404      0.0000 
     42 C4N        96.0320  134.2640  125.3900 C.3       1 NAI404      0.0000 
     43 C5N        96.4970  135.1800  124.2450 C.2       1 NAI404      0.0000 
     44 C6N        97.2810  134.5860  123.0720 C.2       1 NAI404      0.0000 
     45 H51A       93.7000  124.2640  123.1980 H         1 NAI404      0.0000 
     46 H52A       94.8530  123.5570  122.4710 H         1 NAI404      0.0000 
     47 H4B        92.9940  125.1820  121.1030 H         1 NAI404      0.0000 
     48 H3B        92.7870  122.5550  121.6720 H         1 NAI404      0.0000 
     49 HO3A       90.8140  123.1750  120.5600 H         1 NAI404      0.0000 
     50 H2B        92.9580  121.6660  119.6550 H         1 NAI404      0.0000 
     51 HO2A       91.7760  122.5170  117.9990 H         1 NAI404      0.0000 
     52 H1B        93.7180  123.5010  118.2700 H         1 NAI404      0.0000 
     53 H8A        95.9490  122.0450  120.9890 H         1 NAI404      0.0000 
     54 H61A       97.9270  118.0300  117.6140 H         1 NAI404      0.0000 
     55 H62A       98.8460  119.1720  117.9470 H         1 NAI404      0.0000 
     56 H2A        95.2620  120.3370  115.0480 H         1 NAI404      0.0000 
     57 H51N       96.1950  128.9260  120.2530 H         1 NAI404      0.0000 
     58 H52N       97.3450  129.0420  121.2630 H         1 NAI404      0.0000 
     59 H4D        96.9150  130.7490  119.2460 H         1 NAI404      0.0000 
     60 H3D        99.0930  130.2640  120.5420 H         1 NAI404      0.0000 
     61 HO3N       99.5770  132.3620  119.5760 H         1 NAI404      0.0000 
     62 H2D        98.6620  131.4970  122.3820 H         1 NAI404      0.0000 
     63 HO2N      100.5700  132.3500  121.4230 H         1 NAI404      0.0000 
     64 H1D        97.8100  133.4710  120.9100 H         1 NAI404      0.0000 
     65 H2N        96.2180  131.4290  123.3620 H         1 NAI404      0.0000 
     66 H71N       95.9440  132.9810  127.7300 H         1 NAI404      0.0000 
     67 H72N       95.7590  131.5520  128.1600 H         1 NAI404      0.0000 
     68 H4N        95.1780  134.5410  125.6650 H         1 NAI404      0.0000 
     69 H42N       96.6290  134.3600  126.1090 H         1 NAI404      0.0000 
     70 H5N        96.2130  136.0650  124.2130 H         1 NAI404      0.0000 
     71 H6N        97.9710  135.0720  122.6800 H         1 NAI404      0.0000 
@<TRIPOS>BOND
     1    1    2 ar   
     2    1    3 ar   
     3    1    4 1    
     4    1   23 1    
     5    4    5 1    
     6    5    6 1    
     7    6    7 1    
     8    5   45 1    
     9    5   46 1    
    10    6    8 1    
    11    7   12 1    
    12    6   47 1    
    13    8    9 1    
    14    8   10 1    
    15   10   11 1    
    16    8   48 1    
    17    9   49 1    
    18   10   12 1    
    19   12   13 1    
    20   10   50 1    
    21   12   52 1    
    22   11   51 1    
    23   13   14 1    
    24   13   22 1    
    25   14   15 2    
    26   15   16 1    
    27   14   53 1    
    28   16   17 ar   
    29   16   22 ar   
    30   17   18 1    
    31   17   19 ar   
    32   19   20 ar   
    33   18   54 1    
    34   18   55 1    
    35   20   21 ar   
    36   21   22 ar   
    37   20   56 1    
    38   23   24 1    
    39   24   25 ar   
    40   24   26 ar   
    41   24   27 1    
    42   27   28 1    
    43   28   29 1    
    44   29   30 1    
    45   28   57 1    
    46   28   58 1    
    47   29   31 1    
    48   30   35 1    
    49   29   59 1    
    50   31   32 1    
    51   31   33 1    
    52   33   34 1    
    53   31   60 1    
    54   32   61 1    
    55   33   35 1    
    56   35   36 1    
    57   33   62 1    
    58   35   64 1    
    59   34   63 1    
    60   36   37 1    
    61   36   44 1    
    62   37   38 2    
    63   38   39 1    
    64   37   65 1    
    65   38   42 1    
    66   39   40 2    
    67   39   41 am   
    68   42   43 1    
    69   41   66 1    
    70   41   67 1    
    71   43   44 2    
    72   42   68 1    
    73   42   69 1    
    74   43   70 1    
    75   44   71 1    
@<TRIPOS>SUBSTRUCTURE
     1 NAI404      1 GROUP   
@<TRIPOS>SET
ATOM$ORANGE STATIC     ATOMS   COLORGROUP SYSTEM 
42 5 5 6 6 8 8 10 10 12 12 14 14 16 16 17 17 20 \
20 22 22 28 28 29 29 31 31 33 33 35 35 37 37 38 38 39 \
39 42 42 43 43 44 44 

