#    Name: 6jd1_9_NAI_CAVITY_N1_12
#    Modification time : Fri May 22 19:34:18 2020

@<TRIPOS>MOLECULE
6jd1_9_NAI_CAVITY_N1_12
   81     0     6     0     0
SMALL
NO_CHARGES


@<TRIPOS>ATOM
      1 OG        151.4200  154.8000   97.9800 O.3       1 SER1        0.0000 
      2 OG        151.9000  155.5400   96.7700 O.3       1 SER1        0.0000 
      3 OG        153.2600  157.1300   96.4200 O.3       1 SER1        0.0000 
      4 OG        151.1600  156.6500   98.9900 O.3       1 SER1        0.0000 
      5 OG        151.6500  157.3800   97.7800 O.3       1 SER1        0.0000 
      6 OG        152.5200  158.2500   98.6400 O.3       1 SER1        0.0000 
      7 OG        153.0000  158.9800   97.4300 O.3       1 SER1        0.0000 
      8 N         147.4400  155.0400   96.5400 N.am      2 ALA2        0.0000 
      9 N         146.3100  156.0200   96.6900 N.am      2 ALA2        0.0000 
     10 N         146.8000  156.7600   95.4700 N.am      2 ALA2        0.0000 
     11 N         145.6700  157.7400   95.6200 N.am      2 ALA2        0.0000 
     12 N         149.9100  155.6600   96.0500 N.am      2 ALA2        0.0000 
     13 O         150.4000  156.3900   94.8300 O.2       2 ALA2        0.0000 
     14 N         148.7900  156.6400   96.1900 N.am      2 ALA2        0.0000 
     15 O         149.2700  157.3700   94.9800 O.2       2 ALA2        0.0000 
     16 O         147.6700  157.6200   96.3400 O.2       2 ALA2        0.0000 
     17 N         145.4200  159.5900   96.6300 N.am      2 ALA2        0.0000 
     18 N         145.9000  160.3200   95.4100 N.am      2 ALA2        0.0000 
     19 O         151.2600  157.2500   95.7000 O.2       2 ALA2        0.0000 
     20 O         153.7400  157.8700   95.2000 O.2       2 ALA2        0.0000 
     21 O         154.2200  158.6000   93.9800 O.2       2 ALA2        0.0000 
     22 O         153.1000  159.5800   94.1300 O.2       2 ALA2        0.0000 
     23 O         151.9800  160.5600   94.2800 O.2       2 ALA2        0.0000 
     24 N         151.8800  159.9600   97.5700 N.am      2 ALA2        0.0000 
     25 N         152.3600  160.7000   96.3600 N.am      2 ALA2        0.0000 
     26 N         152.8400  161.4300   95.1400 N.am      2 ALA2        0.0000 
     27 N         150.7500  160.9500   97.7200 N.am      2 ALA2        0.0000 
     28 N         151.2400  161.6800   96.5000 N.am      2 ALA2        0.0000 
     29 O         154.3500  160.5800   97.0800 O.2       2 ALA2        0.0000 
     30 N         150.5000  162.7900   98.7300 N.am      2 ALA2        0.0000 
     31 OD1       146.0600  157.8700   97.7000 O.co2     3 ASP3        0.0000 
     32 OD1       144.9300  158.8500   97.8400 O.co2     3 ASP3        0.0000 
     33 OD1       145.8000  159.7200   98.7100 O.co2     3 ASP3        0.0000 
     34 NZ        149.7900  159.4800  100.1500 N.4       4 LYS4        0.0000 
     35 NZ        150.2700  160.2100   98.9300 N.4       4 LYS4        0.0000 
     36 NZ        148.6600  160.4600  100.3000 N.4       4 LYS4        0.0000 
     37 NZ        149.1500  161.2000   99.0800 N.4       4 LYS4        0.0000 
     38 NZ        151.1400  161.0800   99.8000 N.4       4 LYS4        0.0000 
     39 CA        148.1500  158.3500   95.1200 C.3       5 GLY6        0.0000 
     40 CA        147.0300  159.3400   95.2700 C.3       5 GLY6        0.0000 
     41 CA        151.7500  157.9800   94.4800 C.3       5 GLY6        0.0000 
     42 CA        150.1400  158.2400   95.8400 C.3       5 GLY6        0.0000 
     43 CA        150.6200  158.9700   94.6300 C.3       5 GLY6        0.0000 
     44 CA        149.0200  159.2200   95.9900 C.3       5 GLY6        0.0000 
     45 CA        147.8900  160.2000   96.1300 C.3       5 GLY6        0.0000 
     46 CA        146.2900  160.4500   97.4900 C.3       5 GLY6        0.0000 
     47 CA        146.7700  161.1800   96.2800 C.3       5 GLY6        0.0000 
     48 CA        151.4900  159.8300   95.4900 C.3       5 GLY6        0.0000 
     49 CA        149.8900  160.0800   96.8500 C.3       5 GLY6        0.0000 
     50 CA        150.3700  160.8200   95.6400 C.3       5 GLY6        0.0000 
     51 CA        150.8500  161.5500   94.4200 C.3       5 GLY6        0.0000 
     52 CA        147.7900  159.6000   99.4300 C.3       5 GLY6        0.0000 
     53 CA        148.2800  160.3300   98.2100 C.3       5 GLY6        0.0000 
     54 CA        148.7600  161.0700   97.0000 C.3       5 GLY6        0.0000 
     55 CA        149.2500  161.8000   95.7800 C.3       5 GLY6        0.0000 
     56 CA        151.7200  162.4100   95.2900 C.3       5 GLY6        0.0000 
     57 CA        149.6300  161.9300   97.8600 C.3       5 GLY6        0.0000 
     58 CA        150.1100  162.6600   96.6500 C.3       5 GLY6        0.0000 
     59 CA        153.8700  159.8400   98.2900 C.3       5 GLY6        0.0000 
     60 CA        152.2600  160.0900   99.6600 C.3       5 GLY6        0.0000 
     61 CA        152.7400  160.8300   98.4400 C.3       5 GLY6        0.0000 
     62 CA        149.3700  163.7800   98.8800 C.3       5 GLY6        0.0000 
     63 DU        149.4300  154.9200   97.2600 H         6 CUB7        0.0000 
     64 DU        148.3100  155.9100   97.4100 H         6 CUB7        0.0000 
     65 DU        146.5400  158.6000   96.4800 H         6 CUB7        0.0000 
     66 DU        150.3000  155.7900   98.1300 H         6 CUB7        0.0000 
     67 DU        150.7800  156.5200   96.9100 H         6 CUB7        0.0000 
     68 DU        149.6600  157.5000   97.0600 H         6 CUB7        0.0000 
     69 DU        148.5300  158.4900   97.2000 H         6 CUB7        0.0000 
     70 DU        146.9300  158.7400   98.5600 H         6 CUB7        0.0000 
     71 DU        147.4100  159.4700   97.3500 H         6 CUB7        0.0000 
     72 DU        152.1300  158.1200   96.5600 H         6 CUB7        0.0000 
     73 DU        152.6200  158.8500   95.3500 H         6 CUB7        0.0000 
     74 DU        150.0400  157.6300   99.1400 H         6 CUB7        0.0000 
     75 DU        150.5200  158.3700   97.9200 H         6 CUB7        0.0000 
     76 DU        151.0100  159.1000   96.7100 H         6 CUB7        0.0000 
     77 DU        148.9200  158.6200   99.2900 H         6 CUB7        0.0000 
     78 DU        149.4000  159.3500   98.0700 H         6 CUB7        0.0000 
     79 DU        153.4800  159.7100   96.2100 H         6 CUB7        0.0000 
     80 DU        153.9700  160.4500   95.0000 H         6 CUB7        0.0000 
     81 DU        151.3900  159.2300   98.7900 H         6 CUB7        0.0000 
@<TRIPOS>BOND
@<TRIPOS>SUBSTRUCTURE
     1 SER1        1 GROUP   
     2 ALA2        8 GROUP   
     3 ASP3       31 GROUP   
     4 LYS4       34 GROUP   
     5 GLY6       39 GROUP   
     6 CUB7       63 GROUP   
@<TRIPOS>SET

