#    Name: 6jd1_6_NAI
#    Modification time : Fri May 22 19:33:56 2020

@<TRIPOS>MOLECULE
6jd1_6_NAI
   71    75     1     0     1
SMALL
NO_CHARGES


@<TRIPOS>ATOM
      1 PA        124.0070   95.1320  126.2320 P.3       1 NAI405      0.0000 
      2 O1A       124.9090   93.8740  126.0030 O.co2     1 NAI405      0.0000 
      3 O2A       124.7000   96.3530  125.6850 O.co2     1 NAI405      0.0000 
      4 O5B       122.5460   94.9580  125.4760 O.3       1 NAI405      0.0000 
      5 C5B       122.4240   94.1440  124.3510 C.3       1 NAI405      0.0000 
      6 C4B       121.1210   93.2930  124.4950 C.3       1 NAI405      0.0000 
      7 O4B       120.0710   94.0830  124.4730 O.3       1 NAI405      0.0000 
      8 C3B       121.0000   92.3410  123.3190 C.3       1 NAI405      0.0000 
      9 O3B       120.9540   91.0460  123.7630 O.3       1 NAI405      0.0000 
     10 C2B       119.6650   92.6870  122.5940 C.3       1 NAI405      0.0000 
     11 O2B       118.7750   91.5170  122.6440 O.3       1 NAI405      0.0000 
     12 C1B       119.1240   93.6720  123.2250 C.3       1 NAI405      0.0000 
     13 N9A       119.0090   94.8090  122.3190 N.pl3     1 NAI405      0.0000 
     14 C8A       119.9780   95.6840  122.1560 C.2       1 NAI405      0.0000 
     15 N7A       119.5770   96.5940  121.2690 N.2       1 NAI405      0.0000 
     16 C5A       118.3440   96.2680  120.8890 C.ar      1 NAI405      0.0000 
     17 C6A       117.4690   96.8590  120.0010 C.ar      1 NAI405      0.0000 
     18 N6A       117.5680   98.0100  119.1820 N.pl3     1 NAI405      0.0000 
     19 N1A       116.2920   96.3360  119.7940 N.ar      1 NAI405      0.0000 
     20 C2A       115.9320   95.2140  120.4510 C.ar      1 NAI405      0.0000 
     21 N3A       116.7800   94.6320  121.3180 N.ar      1 NAI405      0.0000 
     22 C4A       117.9870   95.1710  121.5290 C.ar      1 NAI405      0.0000 
     23 O3        123.7440   95.3380  127.8860 O.3       1 NAI405      0.0000 
     24 PN        122.4020   94.7580  128.7200 P.3       1 NAI405      0.0000 
     25 O1N       122.7730   93.5180  129.4720 O.co2     1 NAI405      0.0000 
     26 O2N       121.2610   94.4080  127.7210 O.co2     1 NAI405      0.0000 
     27 O5D       121.8980   95.9280  129.8010 O.3       1 NAI405      0.0000 
     28 C5D       120.7810   96.6590  129.5280 C.3       1 NAI405      0.0000 
     29 C4D       120.1770   97.1930  130.8690 C.3       1 NAI405      0.0000 
     30 O4D       120.7240   96.5560  131.8620 O.3       1 NAI405      0.0000 
     31 C3D       120.4790   98.7060  131.1180 C.3       1 NAI405      0.0000 
     32 O3D       119.4500   99.2850  131.7510 O.3       1 NAI405      0.0000 
     33 C2D       121.6920   98.7010  132.0400 C.3       1 NAI405      0.0000 
     34 O2D       121.6880   99.9350  132.8620 O.3       1 NAI405      0.0000 
     35 C1D       121.4880   97.6430  132.7960 C.3       1 NAI405      0.0000 
     36 N1N       122.6980   97.0660  133.3260 N.pl3     1 NAI405      0.0000 
     37 C2N       123.6190   96.3230  132.4940 C.2       1 NAI405      0.0000 
     38 C3N       125.0170   95.9440  133.0240 C.2       1 NAI405      0.0000 
     39 C7N       126.2260   96.0230  132.0450 C.2       1 NAI405      0.0000 
     40 O7N       126.0830   96.4990  130.9580 O.2       1 NAI405      0.0000 
     41 N7N       127.5150   95.5210  132.4540 N.am      1 NAI405      0.0000 
     42 C4N       125.3050   95.9650  134.5190 C.3       1 NAI405      0.0000 
     43 C5N       124.1100   96.4080  135.3800 C.2       1 NAI405      0.0000 
     44 C6N       122.9780   97.2180  134.7420 C.2       1 NAI405      0.0000 
     45 H51A      123.1680   93.5740  124.2890 H         1 NAI405      0.0000 
     46 H52A      122.3700   94.6770  123.5800 H         1 NAI405      0.0000 
     47 H4B       121.1370   92.8070  125.2980 H         1 NAI405      0.0000 
     48 H3B       121.7240   92.4610  122.7330 H         1 NAI405      0.0000 
     49 HO3A      120.3580   90.6340  123.3540 H         1 NAI405      0.0000 
     50 H2B       119.8370   92.9300  121.7030 H         1 NAI405      0.0000 
     51 HO2A      118.2780   91.5180  121.9770 H         1 NAI405      0.0000 
     52 H1B       118.2760   93.4210  123.5390 H         1 NAI405      0.0000 
     53 H8A       120.8340   95.9730  122.3730 H         1 NAI405      0.0000 
     54 H61A      117.5890   97.9270  118.3180 H         1 NAI405      0.0000 
     55 H62A      117.6070   98.7980  119.5440 H         1 NAI405      0.0000 
     56 H2A       115.0840   94.8820  120.2690 H         1 NAI405      0.0000 
     57 H51N      120.1490   96.1160  129.0960 H         1 NAI405      0.0000 
     58 H52N      121.0060   97.3810  128.9720 H         1 NAI405      0.0000 
     59 H4D       119.2490   97.0530  130.8800 H         1 NAI405      0.0000 
     60 H3D       120.6740   99.1470  130.3120 H         1 NAI405      0.0000 
     61 HO3N      119.7330   99.7190  132.4020 H         1 NAI405      0.0000 
     62 H2D       122.4870   98.6200  131.5470 H         1 NAI405      0.0000 
     63 HO2N      121.6360  100.6000  132.3640 H         1 NAI405      0.0000 
     64 H1D       120.9240   97.8830  133.5070 H         1 NAI405      0.0000 
     65 H2N       123.3670   96.0730  131.6350 H         1 NAI405      0.0000 
     66 H71N      127.6160   95.1760  133.2440 H         1 NAI405      0.0000 
     67 H72N      128.1900   95.5640  131.9100 H         1 NAI405      0.0000 
     68 H4N       125.5590   95.1010  134.7850 H         1 NAI405      0.0000 
     69 H42N      126.0190   96.5540  134.6760 H         1 NAI405      0.0000 
     70 H5N       124.1290   96.2810  136.3010 H         1 NAI405      0.0000 
     71 H6N       122.5490   97.8820  135.2320 H         1 NAI405      0.0000 
@<TRIPOS>BOND
     1    1    2 ar   
     2    1    3 ar   
     3    1    4 1    
     4    1   23 1    
     5    4    5 1    
     6    5    6 1    
     7    6    7 1    
     8    5   45 1    
     9    5   46 1    
    10    6    8 1    
    11    7   12 1    
    12    6   47 1    
    13    8    9 1    
    14    8   10 1    
    15   10   11 1    
    16    8   48 1    
    17    9   49 1    
    18   10   12 1    
    19   12   13 1    
    20   10   50 1    
    21   12   52 1    
    22   11   51 1    
    23   13   14 1    
    24   13   22 1    
    25   14   15 2    
    26   15   16 1    
    27   14   53 1    
    28   16   17 ar   
    29   16   22 ar   
    30   17   18 1    
    31   17   19 ar   
    32   19   20 ar   
    33   18   54 1    
    34   18   55 1    
    35   20   21 ar   
    36   21   22 ar   
    37   20   56 1    
    38   23   24 1    
    39   24   25 ar   
    40   24   26 ar   
    41   24   27 1    
    42   27   28 1    
    43   28   29 1    
    44   29   30 1    
    45   28   57 1    
    46   28   58 1    
    47   29   31 1    
    48   30   35 1    
    49   29   59 1    
    50   31   32 1    
    51   31   33 1    
    52   33   34 1    
    53   31   60 1    
    54   32   61 1    
    55   33   35 1    
    56   35   36 1    
    57   33   62 1    
    58   35   64 1    
    59   34   63 1    
    60   36   37 1    
    61   36   44 1    
    62   37   38 2    
    63   38   39 1    
    64   37   65 1    
    65   38   42 1    
    66   39   40 2    
    67   39   41 am   
    68   42   43 1    
    69   41   66 1    
    70   41   67 1    
    71   43   44 2    
    72   42   68 1    
    73   42   69 1    
    74   43   70 1    
    75   44   71 1    
@<TRIPOS>SUBSTRUCTURE
     1 NAI405      1 GROUP   
@<TRIPOS>SET
ATOM$ORANGE STATIC     ATOMS   COLORGROUP SYSTEM 
42 5 5 6 6 8 8 10 10 12 12 14 14 16 16 17 17 20 \
20 22 22 28 28 29 29 31 31 33 33 35 35 37 37 38 38 39 \
39 42 42 43 43 44 44 

