#    Name: 6jd1_10_NAI
#    Modification time : Fri May 22 19:34:23 2020

@<TRIPOS>MOLECULE
6jd1_10_NAI
   71    75     1     0     1
SMALL
NO_CHARGES


@<TRIPOS>ATOM
      1 PA        126.0900  124.0140   95.0340 P.3       1 NAI404      0.0000 
      2 O1A       125.8460  124.9400   93.7970 O.co2     1 NAI404      0.0000 
      3 O2A       125.5060  124.6520   96.2670 O.co2     1 NAI404      0.0000 
      4 O5B       125.3910  122.5330   94.8060 O.3       1 NAI404      0.0000 
      5 C5B       124.2450  122.4110   94.0240 C.3       1 NAI404      0.0000 
      6 C4B       124.3900  121.1300   93.1410 C.3       1 NAI404      0.0000 
      7 O4B       124.4440  120.0740   93.9210 O.3       1 NAI404      0.0000 
      8 C3B       123.1740  120.9800   92.2440 C.3       1 NAI404      0.0000 
      9 O3B       123.5530  120.8890   90.9290 O.3       1 NAI404      0.0000 
     10 C2B       122.4630  119.6640   92.6800 C.3       1 NAI404      0.0000 
     11 O2B       122.3710  118.7470   91.5350 O.3       1 NAI404      0.0000 
     12 C1B       123.1770  119.1180   93.6040 C.3       1 NAI404      0.0000 
     13 N9A       122.3510  118.9740   94.7970 N.pl3     1 NAI404      0.0000 
     14 C8A       122.2650  119.9070   95.7210 C.2       1 NAI404      0.0000 
     15 N7A       121.4310  119.4810   96.6700 N.2       1 NAI404      0.0000 
     16 C5A       121.0040  118.2710   96.3160 C.ar      1 NAI404      0.0000 
     17 C6A       120.1380  117.3850   96.9240 C.ar      1 NAI404      0.0000 
     18 N6A       119.3970  117.4420   98.1280 N.pl3     1 NAI404      0.0000 
     19 N1A       119.8730  116.2370   96.3640 N.ar      1 NAI404      0.0000 
     20 C2A       120.4480  115.9170   95.1870 C.ar      1 NAI404      0.0000 
     21 N3A       121.2920  116.7760   94.5880 N.ar      1 NAI404      0.0000 
     22 C4A       121.5630  117.9530   95.1650 C.ar      1 NAI404      0.0000 
     23 O3        127.7480  123.7920   95.2500 O.3       1 NAI404      0.0000 
     24 PN        128.6380  122.5690   94.5150 P.3       1 NAI404      0.0000 
     25 O1N       129.2800  123.0890   93.2660 O.co2     1 NAI404      0.0000 
     26 O2N       127.7100  121.3710   94.1580 O.co2     1 NAI404      0.0000 
     27 O5D       129.8230  122.0590   95.5690 O.3       1 NAI404      0.0000 
     28 C5D       129.4680  121.2760   96.6230 C.3       1 NAI404      0.0000 
     29 C4D       130.7090  120.4140   97.0250 C.3       1 NAI404      0.0000 
     30 O4D       131.7630  120.8860   96.4250 O.3       1 NAI404      0.0000 
     31 C3D       131.0180  120.4990   98.5530 C.3       1 NAI404      0.0000 
     32 O3D       131.5240  119.3380   98.9860 O.3       1 NAI404      0.0000 
     33 C2D       132.0890  121.5790   98.6560 C.3       1 NAI404      0.0000 
     34 O2D       132.9230  121.3380   99.8590 O.3       1 NAI404      0.0000 
     35 C1D       132.8000  121.4020   97.5640 C.3       1 NAI404      0.0000 
     36 N1N       133.4690  122.5990   97.1220 N.pl3     1 NAI404      0.0000 
     37 C2N       132.7550  123.6510   96.4320 C.2       1 NAI404      0.0000 
     38 C3N       133.4700  124.9570   96.0270 C.2       1 NAI404      0.0000 
     39 C7N       132.6070  126.2060   95.6780 C.2       1 NAI404      0.0000 
     40 O7N       131.9270  126.7180   96.5190 O.2       1 NAI404      0.0000 
     41 N7N       132.6310  126.7400   94.3390 N.am      1 NAI404      0.0000 
     42 C4N       134.9520  125.1580   96.3240 C.3       1 NAI404      0.0000 
     43 C5N       135.6850  123.8660   96.7220 C.2       1 NAI404      0.0000 
     44 C6N       134.8950  122.7220   97.3670 C.2       1 NAI404      0.0000 
     45 H51A      124.1540  123.1660   93.4730 H         1 NAI404      0.0000 
     46 H52A      123.4910  122.3300   94.5780 H         1 NAI404      0.0000 
     47 H4B       125.1680  121.1810   92.6180 H         1 NAI404      0.0000 
     48 H3B       122.5960  121.7100   92.3660 H         1 NAI404      0.0000 
     49 HO3A      123.0960  120.3070   90.5480 H         1 NAI404      0.0000 
     50 H2B       121.6060  119.8590   93.0110 H         1 NAI404      0.0000 
     51 HO2A      121.8670  118.1140   91.7280 H         1 NAI404      0.0000 
     52 H1B       123.4790  118.2770   93.3160 H         1 NAI404      0.0000 
     53 H8A       122.5190  120.7450   96.0320 H         1 NAI404      0.0000 
     54 H61A      118.5780  117.7280   98.1200 H         1 NAI404      0.0000 
     55 H62A      119.7620  117.1910   98.8740 H         1 NAI404      0.0000 
     56 H2A       120.2270  115.0890   94.8290 H         1 NAI404      0.0000 
     57 H51N      128.7580  120.7140   96.3760 H         1 NAI404      0.0000 
     58 H52N      129.2080  121.8170   97.3450 H         1 NAI404      0.0000 
     59 H4D       130.5760  119.5180   96.7760 H         1 NAI404      0.0000 
     60 H3D       130.2510  120.7400   99.0390 H         1 NAI404      0.0000 
     61 HO3N      132.2070  119.4850   99.4390 H         1 NAI404      0.0000 
     62 H2D       131.7020  122.4340   98.6730 H         1 NAI404      0.0000 
     63 HO2N      132.4320  121.2630  100.5260 H         1 NAI404      0.0000 
     64 H1D       133.4380  120.7310   97.7220 H         1 NAI404      0.0000 
     65 H2N       131.8540  123.5390   96.2300 H         1 NAI404      0.0000 
     66 H71N      133.1250  126.3660   93.7320 H         1 NAI404      0.0000 
     67 H72N      132.1510  127.4360   94.1410 H         1 NAI404      0.0000 
     68 H4N       135.3620  125.5020   95.5520 H         1 NAI404      0.0000 
     69 H42N      135.0390  125.7850   97.0130 H         1 NAI404      0.0000 
     70 H5N       136.6140  123.8310   96.6950 H         1 NAI404      0.0000 
     71 H6N       135.3400  122.0700   97.8590 H         1 NAI404      0.0000 
@<TRIPOS>BOND
     1    1    2 ar   
     2    1    3 ar   
     3    1    4 1    
     4    1   23 1    
     5    4    5 1    
     6    5    6 1    
     7    6    7 1    
     8    5   45 1    
     9    5   46 1    
    10    6    8 1    
    11    7   12 1    
    12    6   47 1    
    13    8    9 1    
    14    8   10 1    
    15   10   11 1    
    16    8   48 1    
    17    9   49 1    
    18   10   12 1    
    19   12   13 1    
    20   10   50 1    
    21   12   52 1    
    22   11   51 1    
    23   13   14 1    
    24   13   22 1    
    25   14   15 2    
    26   15   16 1    
    27   14   53 1    
    28   16   17 ar   
    29   16   22 ar   
    30   17   18 1    
    31   17   19 ar   
    32   19   20 ar   
    33   18   54 1    
    34   18   55 1    
    35   20   21 ar   
    36   21   22 ar   
    37   20   56 1    
    38   23   24 1    
    39   24   25 ar   
    40   24   26 ar   
    41   24   27 1    
    42   27   28 1    
    43   28   29 1    
    44   29   30 1    
    45   28   57 1    
    46   28   58 1    
    47   29   31 1    
    48   30   35 1    
    49   29   59 1    
    50   31   32 1    
    51   31   33 1    
    52   33   34 1    
    53   31   60 1    
    54   32   61 1    
    55   33   35 1    
    56   35   36 1    
    57   33   62 1    
    58   35   64 1    
    59   34   63 1    
    60   36   37 1    
    61   36   44 1    
    62   37   38 2    
    63   38   39 1    
    64   37   65 1    
    65   38   42 1    
    66   39   40 2    
    67   39   41 am   
    68   42   43 1    
    69   41   66 1    
    70   41   67 1    
    71   43   44 2    
    72   42   68 1    
    73   42   69 1    
    74   43   70 1    
    75   44   71 1    
@<TRIPOS>SUBSTRUCTURE
     1 NAI404      1 GROUP   
@<TRIPOS>SET
ATOM$ORANGE STATIC     ATOMS   COLORGROUP SYSTEM 
42 5 5 6 6 8 8 10 10 12 12 14 14 16 16 17 17 20 \
20 22 22 28 28 29 29 31 31 33 33 35 35 37 37 38 38 39 \
39 42 42 43 43 44 44 

