#    Name: 6jd1_1_NAI_CAVITY_N1_8
#    Modification time : Fri May 22 19:33:23 2020

@<TRIPOS>MOLECULE
6jd1_1_NAI_CAVITY_N1_8
   98     0     6     0     0
SMALL
NO_CHARGES


@<TRIPOS>ATOM
      1 OG        183.1600  127.1700  158.7100 O.3       1 SER1        0.0000 
      2 OG        183.3300  132.8000  152.9200 O.3       1 SER1        0.0000 
      3 OG        184.5100  128.7700  158.3600 O.3       1 SER1        0.0000 
      4 OG        184.9900  129.5000  157.1400 O.3       1 SER1        0.0000 
      5 OG        183.3800  129.7500  158.5100 O.3       1 SER1        0.0000 
      6 OG        183.8700  130.4800  157.2900 O.3       1 SER1        0.0000 
      7 OG        184.2000  133.6600  153.7900 O.3       1 SER1        0.0000 
      8 OG        183.5600  135.3800  152.7100 O.3       1 SER1        0.0000 
      9 N         185.0900  130.1000  153.8500 N.am      2 ALA2        0.0000 
     10 N         183.9700  131.0800  153.9900 N.am      2 ALA2        0.0000 
     11 O         186.1200  128.5200  157.0000 O.2       2 ALA2        0.0000 
     12 O         185.4800  130.2300  155.9300 O.2       2 ALA2        0.0000 
     13 O         185.9600  130.9700  154.7100 O.2       2 ALA2        0.0000 
     14 N         186.4400  131.7000  153.5000 N.am      2 ALA2        0.0000 
     15 N         185.3200  132.6800  153.6400 N.am      2 ALA2        0.0000 
     16 O         187.6200  127.6700  158.9400 O.2       2 ALA2        0.0000 
     17 O         186.9800  129.3800  157.8600 O.2       2 ALA2        0.0000 
     18 N         184.8900  128.9000  160.4400 N.am      2 ALA2        0.0000 
     19 O         185.8600  130.3600  158.0100 O.2       2 ALA2        0.0000 
     20 O         186.3400  131.1000  156.7900 O.2       2 ALA2        0.0000 
     21 N         186.8300  131.8300  155.5800 N.am      2 ALA2        0.0000 
     22 N         183.7700  129.8800  160.5900 N.am      2 ALA2        0.0000 
     23 N         185.7000  132.8100  155.7200 N.am      2 ALA2        0.0000 
     24 N         185.0600  134.5300  154.6500 N.am      2 ALA2        0.0000 
     25 N         183.9400  135.5100  154.8000 N.am      2 ALA2        0.0000 
     26 N         187.5200  127.0600  162.2300 N.am      2 ALA2        0.0000 
     27 O         188.4900  128.5300  159.8000 O.2       2 ALA2        0.0000 
     28 N         186.8800  128.7800  161.1600 N.am      2 ALA2        0.0000 
     29 O         187.3700  129.5100  159.9500 O.2       2 ALA2        0.0000 
     30 N         185.7600  129.7600  161.3100 N.am      2 ALA2        0.0000 
     31 N         184.6400  130.7500  161.4500 N.am      2 ALA2        0.0000 
     32 N         186.5700  133.6800  156.5900 N.am      2 ALA2        0.0000 
     33 N         183.5100  131.7300  161.6000 N.am      2 ALA2        0.0000 
     34 N         185.4500  134.6600  156.7300 N.am      2 ALA2        0.0000 
     35 N         184.3200  135.6400  156.8800 N.am      2 ALA2        0.0000 
     36 N         184.8100  136.3800  155.6600 N.am      2 ALA2        0.0000 
     37 N         184.1700  138.0900  154.5900 N.am      2 ALA2        0.0000 
     38 N         188.8800  128.6600  161.8800 N.am      2 ALA2        0.0000 
     39 N         187.7500  129.6400  162.0300 N.am      2 ALA2        0.0000 
     40 O         188.2400  130.3800  160.8100 O.2       2 ALA2        0.0000 
     41 N         185.5000  131.6100  162.3200 N.am      2 ALA2        0.0000 
     42 O         186.3200  135.5200  157.6000 O.2       2 ALA2        0.0000 
     43 N         185.1900  136.5100  157.7400 N.am      2 ALA2        0.0000 
     44 O         182.6200  135.2900  161.5400 O.2       2 ALA2        0.0000 
     45 N         183.5800  136.7600  159.1100 N.am      2 ALA2        0.0000 
     46 N         184.0700  137.4900  157.8900 N.am      2 ALA2        0.0000 
     47 OD1       183.6800  137.3600  155.8100 O.co2     3 ASP3        0.0000 
     48 NZ        182.6400  130.8600  160.7300 N.4       4 LYS4        0.0000 
     49 NZ        183.1300  131.6000  159.5200 N.4       4 LYS4        0.0000 
     50 NZ        182.0100  132.5800  159.6600 N.4       4 LYS4        0.0000 
     51 NZ        182.3900  132.7100  161.7400 N.4       4 LYS4        0.0000 
     52 NZ        182.8700  133.4400  160.5300 N.4       4 LYS4        0.0000 
     53 CA        186.2700  126.0700  159.2900 C.3       5 GLY6        0.0000 
     54 CA        184.0200  128.0300  159.5800 C.3       5 GLY6        0.0000 
     55 CA        182.9000  129.0200  159.7200 C.3       5 GLY6        0.0000 
     56 CA        184.6800  134.4000  152.5700 C.3       5 GLY6        0.0000 
     57 CA        187.1400  126.9300  160.1500 C.3       5 GLY6        0.0000 
     58 CA        186.0200  127.9200  160.3000 C.3       5 GLY6        0.0000 
     59 CA        184.4200  136.2400  153.5800 C.3       5 GLY6        0.0000 
     60 CA        188.0100  127.8000  161.0200 C.3       5 GLY6        0.0000 
     61 CA        187.8500  130.2500  158.7300 C.3       5 GLY6        0.0000 
     62 CA        186.2400  130.5000  160.0900 C.3       5 GLY6        0.0000 
     63 CA        186.7300  131.2300  158.8800 C.3       5 GLY6        0.0000 
     64 CA        187.2100  131.9600  157.6600 C.3       5 GLY6        0.0000 
     65 CA        185.6000  132.2100  159.0200 C.3       5 GLY6        0.0000 
     66 CA        186.0900  132.9400  157.8000 C.3       5 GLY6        0.0000 
     67 CA        184.0000  132.4600  160.3800 C.3       5 GLY6        0.0000 
     68 CA        182.2300  135.1600  159.4600 C.3       5 GLY6        0.0000 
     69 CA        186.6300  130.6300  162.1700 C.3       5 GLY6        0.0000 
     70 CA        187.1100  131.3600  160.9600 C.3       5 GLY6        0.0000 
     71 CA        185.9900  132.3400  161.1000 C.3       5 GLY6        0.0000 
     72 CA        184.8600  133.3300  161.2500 C.3       5 GLY6        0.0000 
     73 CA        185.3500  134.0600  160.0300 C.3       5 GLY6        0.0000 
     74 CA        185.8300  134.7900  158.8200 C.3       5 GLY6        0.0000 
     75 CA        184.2200  135.0400  160.1800 C.3       5 GLY6        0.0000 
     76 CA        183.1000  136.0200  160.3200 C.3       5 GLY6        0.0000 
     77 CA        186.2200  134.9200  160.9000 C.3       5 GLY6        0.0000 
     78 CA        186.7000  135.6600  159.6800 C.3       5 GLY6        0.0000 
     79 CA        185.0900  135.9100  161.0400 C.3       5 GLY6        0.0000 
     80 CA        185.5800  136.6400  159.8300 C.3       5 GLY6        0.0000 
     81 DU        185.6300  127.7800  158.2100 H         6 CUB7        0.0000 
     82 DU        184.3500  131.2200  156.0700 H         6 CUB7        0.0000 
     83 DU        184.8400  131.9500  154.8600 H         6 CUB7        0.0000 
     84 DU        182.7400  131.4700  157.4300 H         6 CUB7        0.0000 
     85 DU        183.2300  132.2000  156.2200 H         6 CUB7        0.0000 
     86 DU        183.7100  132.9300  155.0000 H         6 CUB7        0.0000 
     87 DU        186.5000  128.6500  159.0800 H         6 CUB7        0.0000 
     88 DU        185.3800  129.6300  159.2300 H         6 CUB7        0.0000 
     89 DU        184.2500  130.6100  159.3700 H         6 CUB7        0.0000 
     90 DU        184.7400  131.3500  158.1500 H         6 CUB7        0.0000 
     91 DU        185.2200  132.0800  156.9400 H         6 CUB7        0.0000 
     92 DU        183.6100  132.3300  158.3000 H         6 CUB7        0.0000 
     93 DU        184.5800  133.8000  155.8700 H         6 CUB7        0.0000 
     94 DU        185.1200  131.4800  160.2400 H         6 CUB7        0.0000 
     95 DU        184.4800  133.1900  159.1700 H         6 CUB7        0.0000 
     96 DU        184.9600  133.9300  157.9500 H         6 CUB7        0.0000 
     97 DU        183.3600  134.1800  159.3100 H         6 CUB7        0.0000 
     98 DU        184.7100  135.7700  158.9600 H         6 CUB7        0.0000 
@<TRIPOS>BOND
@<TRIPOS>SUBSTRUCTURE
     1 SER1        1 GROUP   
     2 ALA2        9 GROUP   
     3 ASP3       47 GROUP   
     4 LYS4       48 GROUP   
     5 GLY6       53 GROUP   
     6 CUB7       81 GROUP   
@<TRIPOS>SET

