#    Name: 6jd1_4_NAI
#    Modification time : Fri May 22 19:33:42 2020

@<TRIPOS>MOLECULE
6jd1_4_NAI
   71    75     1     0     1
SMALL
NO_CHARGES


@<TRIPOS>ATOM
      1 PA        126.2600  157.7610  186.4210 P.3       1 NAI404      0.0000 
      2 O1A       125.8720  156.6610  187.4630 O.co2     1 NAI404      0.0000 
      3 O2A       125.8400  157.3130  185.0460 O.co2     1 NAI404      0.0000 
      4 O5B       125.4970  159.1820  186.7810 O.3       1 NAI404      0.0000 
      5 C5B       124.6550  159.2410  187.8880 C.3       1 NAI404      0.0000 
      6 C4B       124.5850  160.7230  188.3830 C.3       1 NAI404      0.0000 
      7 O4B       124.2630  161.4940  187.3720 O.3       1 NAI404      0.0000 
      8 C3B       123.4900  160.8860  189.4260 C.3       1 NAI404      0.0000 
      9 O3B       124.0280  161.1900  190.6500 O.3       1 NAI404      0.0000 
     10 C2B       122.5980  162.0700  188.9460 C.3       1 NAI404      0.0000 
     11 O2B       122.5640  163.1030  189.9910 O.3       1 NAI404      0.0000 
     12 C1B       123.1470  162.5480  187.8810 C.3       1 NAI404      0.0000 
     13 N9A       122.1540  162.6940  186.8240 N.pl3     1 NAI404      0.0000 
     14 C8A       121.8390  161.7040  186.0130 C.2       1 NAI404      0.0000 
     15 N7A       120.9110  162.1370  185.1620 N.2       1 NAI404      0.0000 
     16 C5A       120.6620  163.4110  185.4560 C.ar      1 NAI404      0.0000 
     17 C6A       119.7990  164.3290  184.8950 C.ar      1 NAI404      0.0000 
     18 N6A       118.8790  164.2430  183.8220 N.pl3     1 NAI404      0.0000 
     19 N1A       119.7340  165.5420  185.3720 N.ar      1 NAI404      0.0000 
     20 C2A       120.5130  165.8960  186.4140 C.ar      1 NAI404      0.0000 
     21 N3A       121.3570  165.0060  186.9670 N.ar      1 NAI404      0.0000 
     22 C4A       121.4230  163.7620  186.4760 C.ar      1 NAI404      0.0000 
     23 O3        127.9310  158.0000  186.4370 O.3       1 NAI404      0.0000 
     24 PN        128.7210  159.3330  187.0940 P.3       1 NAI404      0.0000 
     25 O1N       129.4580  158.9190  188.3310 O.co2     1 NAI404      0.0000 
     26 O2N       127.7040  160.4490  187.4700 O.co2     1 NAI404      0.0000 
     27 O5D       129.8130  159.9020  185.9680 O.3       1 NAI404      0.0000 
     28 C5D       129.5070  160.9930  185.2120 C.3       1 NAI404      0.0000 
     29 C4D       130.8490  161.6420  184.7360 C.3       1 NAI404      0.0000 
     30 O4D       131.8340  161.0870  185.3820 O.3       1 NAI404      0.0000 
     31 C3D       131.1460  161.3900  183.2220 C.3       1 NAI404      0.0000 
     32 O3D       131.7940  162.4390  182.6980 O.3       1 NAI404      0.0000 
     33 C2D       132.0720  160.1800  183.2260 C.3       1 NAI404      0.0000 
     34 O2D       132.9000  160.1900  181.9960 O.3       1 NAI404      0.0000 
     35 C1D       132.8160  160.3900  184.2910 C.3       1 NAI404      0.0000 
     36 N1N       133.4120  159.1910  184.8330 N.pl3     1 NAI404      0.0000 
     37 C2N       132.6330  158.1880  185.5290 C.2       1 NAI404      0.0000 
     38 C3N       133.2560  156.8260  185.9080 C.2       1 NAI404      0.0000 
     39 C7N       132.3260  155.5770  185.9740 C.2       1 NAI404      0.0000 
     40 O7N       131.2050  155.6450  185.5640 O.2       1 NAI404      0.0000 
     41 N7N       132.8200  154.3390  186.5290 N.am      1 NAI404      0.0000 
     42 C4N       134.7570  156.5990  185.7800 C.3       1 NAI404      0.0000 
     43 C5N       135.5490  157.8700  185.4250 C.2       1 NAI404      0.0000 
     44 C6N       134.8450  159.0130  184.6860 C.2       1 NAI404      0.0000 
     45 H51A      124.9940  158.6960  188.5730 H         1 NAI404      0.0000 
     46 H52A      123.7960  158.9470  187.6470 H         1 NAI404      0.0000 
     47 H4B       125.4120  160.9900  188.7400 H         1 NAI404      0.0000 
     48 H3B       122.9780  160.1010  189.4800 H         1 NAI404      0.0000 
     49 HO3A      123.5140  161.6990  191.0600 H         1 NAI404      0.0000 
     50 H2B       121.7310  161.7650  188.7560 H         1 NAI404      0.0000 
     51 HO2A      122.0670  163.7250  189.7500 H         1 NAI404      0.0000 
     52 H1B       123.5490  163.3750  188.0700 H         1 NAI404      0.0000 
     53 H8A       121.9600  160.8200  185.7530 H         1 NAI404      0.0000 
     54 H61A      118.0330  164.3720  183.9650 H         1 NAI404      0.0000 
     55 H62A      119.1620  164.0620  183.0220 H         1 NAI404      0.0000 
     56 H2A       120.4290  166.7710  186.7150 H         1 NAI404      0.0000 
     57 H51N      129.0230  161.6100  185.7270 H         1 NAI404      0.0000 
     58 H52N      128.9970  160.7310  184.4690 H         1 NAI404      0.0000 
     59 H4D       130.8390  162.5650  184.9070 H         1 NAI404      0.0000 
     60 H3D       130.3560  161.2060  182.7490 H         1 NAI404      0.0000 
     61 HO3N      132.4300  162.1690  182.2340 H         1 NAI404      0.0000 
     62 H2D       131.5820  159.3830  183.3040 H         1 NAI404      0.0000 
     63 HO2N      132.4080  160.2760  181.3310 H         1 NAI404      0.0000 
     64 H1D       133.4970  160.9960  184.0670 H         1 NAI404      0.0000 
     65 H2N       131.7470  158.3660  185.7500 H         1 NAI404      0.0000 
     66 H71N      133.6340  154.2910  186.8260 H         1 NAI404      0.0000 
     67 H72N      132.3030  153.6430  186.5660 H         1 NAI404      0.0000 
     68 H4N       135.0790  156.2660  186.5970 H         1 NAI404      0.0000 
     69 H42N      134.9060  155.9570  185.1110 H         1 NAI404      0.0000 
     70 H5N       136.4040  157.9960  185.7680 H         1 NAI404      0.0000 
     71 H6N       135.3170  159.5330  184.0760 H         1 NAI404      0.0000 
@<TRIPOS>BOND
     1    1    2 ar   
     2    1    3 ar   
     3    1    4 1    
     4    1   23 1    
     5    4    5 1    
     6    5    6 1    
     7    6    7 1    
     8    5   45 1    
     9    5   46 1    
    10    6    8 1    
    11    7   12 1    
    12    6   47 1    
    13    8    9 1    
    14    8   10 1    
    15   10   11 1    
    16    8   48 1    
    17    9   49 1    
    18   10   12 1    
    19   12   13 1    
    20   10   50 1    
    21   12   52 1    
    22   11   51 1    
    23   13   14 1    
    24   13   22 1    
    25   14   15 2    
    26   15   16 1    
    27   14   53 1    
    28   16   17 ar   
    29   16   22 ar   
    30   17   18 1    
    31   17   19 ar   
    32   19   20 ar   
    33   18   54 1    
    34   18   55 1    
    35   20   21 ar   
    36   21   22 ar   
    37   20   56 1    
    38   23   24 1    
    39   24   25 ar   
    40   24   26 ar   
    41   24   27 1    
    42   27   28 1    
    43   28   29 1    
    44   29   30 1    
    45   28   57 1    
    46   28   58 1    
    47   29   31 1    
    48   30   35 1    
    49   29   59 1    
    50   31   32 1    
    51   31   33 1    
    52   33   34 1    
    53   31   60 1    
    54   32   61 1    
    55   33   35 1    
    56   35   36 1    
    57   33   62 1    
    58   35   64 1    
    59   34   63 1    
    60   36   37 1    
    61   36   44 1    
    62   37   38 2    
    63   38   39 1    
    64   37   65 1    
    65   38   42 1    
    66   39   40 2    
    67   39   41 am   
    68   42   43 1    
    69   41   66 1    
    70   41   67 1    
    71   43   44 2    
    72   42   68 1    
    73   42   69 1    
    74   43   70 1    
    75   44   71 1    
@<TRIPOS>SUBSTRUCTURE
     1 NAI404      1 GROUP   
@<TRIPOS>SET
ATOM$ORANGE STATIC     ATOMS   COLORGROUP SYSTEM 
42 5 5 6 6 8 8 10 10 12 12 14 14 16 16 17 17 20 \
20 22 22 28 28 29 29 31 31 33 33 35 35 37 37 38 38 39 \
39 42 42 43 43 44 44 

