#    Name: 6jd1_1_NAI
#    Modification time : Fri May 22 19:33:22 2020

@<TRIPOS>MOLECULE
6jd1_1_NAI
   71    75     1     0     1
SMALL
NO_CHARGES


@<TRIPOS>ATOM
      1 PA        186.8640  126.2250  157.6890 P.3       1 NAI404      0.0000 
      2 O1A       187.9990  125.5290  156.8670 O.co2     1 NAI404      0.0000 
      3 O2A       185.5560  126.0800  156.9550 O.co2     1 NAI404      0.0000 
      4 O5B       186.7190  125.5240  159.1800 O.3       1 NAI404      0.0000 
      5 C5B       187.3480  124.3080  159.4360 C.3       1 NAI404      0.0000 
      6 C4B       187.5540  124.1740  160.9800 C.3       1 NAI404      0.0000 
      7 O4B       186.5310  123.5840  161.5550 O.3       1 NAI404      0.0000 
      8 C3B       188.7190  123.2540  161.2960 C.3       1 NAI404      0.0000 
      9 O3B       189.8220  123.9940  161.6300 O.3       1 NAI404      0.0000 
     10 C2B       188.2470  122.4170  162.5250 C.3       1 NAI404      0.0000 
     11 O2B       189.2870  122.4460  163.5620 O.3       1 NAI404      0.0000 
     12 C1B       187.1840  123.0220  162.9230 C.3       1 NAI404      0.0000 
     13 N9A       186.2780  122.1040  163.6070 N.pl3     1 NAI404      0.0000 
     14 C8A       185.0350  121.9000  163.2280 C.2       1 NAI404      0.0000 
     15 N7A       184.4810  121.0150  164.0570 N.2       1 NAI404      0.0000 
     16 C5A       185.4000  120.6770  164.9570 C.ar      1 NAI404      0.0000 
     17 C6A       185.3730  119.8120  166.0350 C.ar      1 NAI404      0.0000 
     18 N6A       184.3760  118.9670  166.5850 N.pl3     1 NAI404      0.0000 
     19 N1A       186.4360  119.6600  166.7750 N.ar      1 NAI404      0.0000 
     20 C2A       187.5610  120.3460  166.4900 C.ar      1 NAI404      0.0000 
     21 N3A       187.5930  121.1870  165.4440 N.ar      1 NAI404      0.0000 
     22 C4A       186.5040  121.3450  164.6850 C.ar      1 NAI404      0.0000 
     23 O3        187.2270  127.8640  157.8720 O.3       1 NAI404      0.0000 
     24 PN        187.3470  128.6550  159.3520 P.3       1 NAI404      0.0000 
     25 O1N       188.4300  129.6870  159.2740 O.co2     1 NAI404      0.0000 
     26 O2N       187.7100  127.6260  160.4640 O.co2     1 NAI404      0.0000 
     27 O5D       185.8960  129.4160  159.6810 O.3       1 NAI404      0.0000 
     28 C5D       185.3020  129.2800  160.9000 C.3       1 NAI404      0.0000 
     29 C4D       184.8640  130.6910  161.4200 C.3       1 NAI404      0.0000 
     30 O4D       185.5320  131.5990  160.7740 O.3       1 NAI404      0.0000 
     31 C3D       183.3530  131.0040  161.1670 C.3       1 NAI404      0.0000 
     32 O3D       182.7750  131.3740  162.3140 O.3       1 NAI404      0.0000 
     33 C2D       183.3190  132.2000  160.2190 C.3       1 NAI404      0.0000 
     34 O2D       182.2520  133.1350  160.6510 O.3       1 NAI404      0.0000 
     35 C1D       184.4930  132.7710  160.3540 C.3       1 NAI404      0.0000 
     36 N1N       184.9310  133.3770  159.1260 N.pl3     1 NAI404      0.0000 
     37 C2N       185.6030  132.5840  158.1220 C.2       1 NAI404      0.0000 
     38 C3N       186.1830  133.2410  156.8530 C.2       1 NAI404      0.0000 
     39 C7N       186.7710  132.3140  155.7460 C.2       1 NAI404      0.0000 
     40 O7N       186.0580  131.5320  155.1880 O.2       1 NAI404      0.0000 
     41 N7N       188.1710  132.3900  155.4010 N.am      1 NAI404      0.0000 
     42 C4N       185.8310  134.6830  156.5070 C.3       1 NAI404      0.0000 
     43 C5N       185.3440  135.5050  157.7150 C.2       1 NAI404      0.0000 
     44 C6N       184.7010  134.7950  158.9110 C.2       1 NAI404      0.0000 
     45 H51A      188.1810  124.2850  159.0030 H         1 NAI404      0.0000 
     46 H52A      186.8110  123.6030  159.1260 H         1 NAI404      0.0000 
     47 H4B       187.6970  125.0180  161.3660 H         1 NAI404      0.0000 
     48 H3B       188.9000  122.6910  160.5670 H         1 NAI404      0.0000 
     49 HO3A      190.2330  123.6160  162.2470 H         1 NAI404      0.0000 
     50 H2B       188.0500  121.5350  162.2690 H         1 NAI404      0.0000 
     51 HO2A      189.8400  121.8410  163.4170 H         1 NAI404      0.0000 
     52 H1B       187.4130  123.7370  163.4870 H         1 NAI404      0.0000 
     53 H8A       184.3440  122.0860  162.6360 H         1 NAI404      0.0000 
     54 H61A      184.0650  119.1230  167.3800 H         1 NAI404      0.0000 
     55 H62A      184.0770  118.2930  166.1270 H         1 NAI404      0.0000 
     56 H2A       188.2890  120.2010  167.0490 H         1 NAI404      0.0000 
     57 H51N      185.9100  128.9000  161.5050 H         1 NAI404      0.0000 
     58 H52N      184.5500  128.7240  160.8220 H         1 NAI404      0.0000 
     59 H4D       185.0480  130.7620  162.3380 H         1 NAI404      0.0000 
     60 H3D       182.9150  130.2650  160.7880 H         1 NAI404      0.0000 
     61 HO3N      182.6680  132.1990  162.3170 H         1 NAI404      0.0000 
     62 H2D       183.1840  131.9180  159.3340 H         1 NAI404      0.0000 
     63 HO2N      181.5200  132.7400  160.6510 H         1 NAI404      0.0000 
     64 H1D       184.4530  133.4160  161.0350 H         1 NAI404      0.0000 
     65 H2N       185.6870  131.6660  158.2430 H         1 NAI404      0.0000 
     66 H71N      188.4950  131.8720  154.7850 H         1 NAI404      0.0000 
     67 H72N      188.6880  132.9570  155.8070 H         1 NAI404      0.0000 
     68 H4N       186.5930  135.0990  156.1500 H         1 NAI404      0.0000 
     69 H42N      185.1530  134.6770  155.8570 H         1 NAI404      0.0000 
     70 H5N       185.5060  136.4200  157.7500 H         1 NAI404      0.0000 
     71 H6N       184.1630  135.2730  159.5000 H         1 NAI404      0.0000 
@<TRIPOS>BOND
     1    1    2 ar   
     2    1    3 ar   
     3    1    4 1    
     4    1   23 1    
     5    4    5 1    
     6    5    6 1    
     7    6    7 1    
     8    5   45 1    
     9    5   46 1    
    10    6    8 1    
    11    7   12 1    
    12    6   47 1    
    13    8    9 1    
    14    8   10 1    
    15   10   11 1    
    16    8   48 1    
    17    9   49 1    
    18   10   12 1    
    19   12   13 1    
    20   10   50 1    
    21   12   52 1    
    22   11   51 1    
    23   13   14 1    
    24   13   22 1    
    25   14   15 2    
    26   15   16 1    
    27   14   53 1    
    28   16   17 ar   
    29   16   22 ar   
    30   17   18 1    
    31   17   19 ar   
    32   19   20 ar   
    33   18   54 1    
    34   18   55 1    
    35   20   21 ar   
    36   21   22 ar   
    37   20   56 1    
    38   23   24 1    
    39   24   25 ar   
    40   24   26 ar   
    41   24   27 1    
    42   27   28 1    
    43   28   29 1    
    44   29   30 1    
    45   28   57 1    
    46   28   58 1    
    47   29   31 1    
    48   30   35 1    
    49   29   59 1    
    50   31   32 1    
    51   31   33 1    
    52   33   34 1    
    53   31   60 1    
    54   32   61 1    
    55   33   35 1    
    56   35   36 1    
    57   33   62 1    
    58   35   64 1    
    59   34   63 1    
    60   36   37 1    
    61   36   44 1    
    62   37   38 2    
    63   38   39 1    
    64   37   65 1    
    65   38   42 1    
    66   39   40 2    
    67   39   41 am   
    68   42   43 1    
    69   41   66 1    
    70   41   67 1    
    71   43   44 2    
    72   42   68 1    
    73   42   69 1    
    74   43   70 1    
    75   44   71 1    
@<TRIPOS>SUBSTRUCTURE
     1 NAI404      1 GROUP   
@<TRIPOS>SET
ATOM$ORANGE STATIC     ATOMS   COLORGROUP SYSTEM 
42 5 5 6 6 8 8 10 10 12 12 14 14 16 16 17 17 20 \
20 22 22 28 28 29 29 31 31 33 33 35 35 37 37 38 38 39 \
39 42 42 43 43 44 44 

