#    Name: 6jd1_2_NAI
#    Modification time : Fri May 22 19:33:29 2020

@<TRIPOS>MOLECULE
6jd1_2_NAI
   71    75     1     0     1
SMALL
NO_CHARGES


@<TRIPOS>ATOM
      1 PA        186.8010  155.6580  124.1030 P.3       1 NAI404      0.0000 
      2 O1A       188.0250  156.0120  125.0100 O.co2     1 NAI404      0.0000 
      3 O2A       185.5340  156.1270  124.7690 O.co2     1 NAI404      0.0000 
      4 O5B       186.9290  156.3880  122.6250 O.3       1 NAI404      0.0000 
      5 C5B       187.7010  157.5360  122.4700 C.3       1 NAI404      0.0000 
      6 C4B       188.3590  157.5040  121.0540 C.3       1 NAI404      0.0000 
      7 O4B       187.4320  157.7000  120.1350 O.3       1 NAI404      0.0000 
      8 C3B       189.3550  158.6460  120.9100 C.3       1 NAI404      0.0000 
      9 O3B       190.5110  158.2220  120.3090 O.3       1 NAI404      0.0000 
     10 C2B       188.6090  159.6520  119.9900 C.3       1 NAI404      0.0000 
     11 O2B       189.5650  160.5420  119.3100 O.3       1 NAI404      0.0000 
     12 C1B       188.0040  158.8670  119.1730 C.3       1 NAI404      0.0000 
     13 N9A       186.9360  159.5890  118.4890 N.pl3     1 NAI404      0.0000 
     14 C8A       185.6720  159.5530  118.8550 C.2       1 NAI404      0.0000 
     15 N7A       184.9700  160.3240  118.0220 N.2       1 NAI404      0.0000 
     16 C5A       185.8200  160.8380  117.1370 C.ar      1 NAI404      0.0000 
     17 C6A       185.6440  161.6900  116.0640 C.ar      1 NAI404      0.0000 
     18 N6A       184.5080  162.3330  115.5120 N.pl3     1 NAI404      0.0000 
     19 N1A       186.6680  162.0490  115.3400 N.ar      1 NAI404      0.0000 
     20 C2A       187.8990  161.5870  115.6380 C.ar      1 NAI404      0.0000 
     21 N3A       188.0750  160.7570  116.6790 N.ar      1 NAI404      0.0000 
     22 C4A       187.0260  160.3900  117.4200 C.ar      1 NAI404      0.0000 
     23 O3        186.7270  153.9840  123.8920 O.3       1 NAI404      0.0000 
     24 PN        187.1750  153.1590  122.4940 P.3       1 NAI404      0.0000 
     25 O1N       188.3820  152.3190  122.7750 O.co2     1 NAI404      0.0000 
     26 O2N       187.5260  154.1620  121.3560 O.co2     1 NAI404      0.0000 
     27 O5D       185.9100  152.1660  122.0400 O.3       1 NAI404      0.0000 
     28 C5D       185.2240  152.4020  120.8870 C.3       1 NAI404      0.0000 
     29 C4D       184.7420  151.0290  120.3090 C.3       1 NAI404      0.0000 
     30 O4D       185.3990  150.0730  120.9000 O.3       1 NAI404      0.0000 
     31 C3D       183.2300  150.7410  120.5820 C.3       1 NAI404      0.0000 
     32 O3D       182.6720  150.1690  119.5080 O.3       1 NAI404      0.0000 
     33 C2D       183.2250  149.7400  121.7320 C.3       1 NAI404      0.0000 
     34 O2D       182.0260  148.8750  121.6190 O.3       1 NAI404      0.0000 
     35 C1D       184.3190  149.0400  121.5340 C.3       1 NAI404      0.0000 
     36 N1N       184.8350  148.4570  122.7480 N.pl3     1 NAI404      0.0000 
     37 C2N       185.5780  149.2490  123.7040 C.2       1 NAI404      0.0000 
     38 C3N       186.2050  148.5900  124.9500 C.2       1 NAI404      0.0000 
     39 C7N       187.0400  149.4670  125.9330 C.2       1 NAI404      0.0000 
     40 O7N       186.6070  150.5150  126.3120 O.2       1 NAI404      0.0000 
     41 N7N       188.3390  149.0170  126.3740 N.am      1 NAI404      0.0000 
     42 C4N       185.8300  147.1670  125.3430 C.3       1 NAI404      0.0000 
     43 C5N       185.3010  146.3350  124.1620 C.2       1 NAI404      0.0000 
     44 C6N       184.6090  147.0420  122.9910 C.2       1 NAI404      0.0000 
     45 H51A      188.3700  157.5590  123.1280 H         1 NAI404      0.0000 
     46 H52A      187.1550  158.2960  122.5480 H         1 NAI404      0.0000 
     47 H4B       188.7880  156.6820  120.9090 H         1 NAI404      0.0000 
     48 H3B       189.5340  159.0350  121.7460 H         1 NAI404      0.0000 
     49 HO3A      190.8630  158.8580  119.9040 H         1 NAI404      0.0000 
     50 H2B       187.9860  160.1490  120.4870 H         1 NAI404      0.0000 
     51 HO2A      189.6880  160.2780  118.5310 H         1 NAI404      0.0000 
     52 H1B       188.6110  158.5070  118.5540 H         1 NAI404      0.0000 
     53 H8A       185.0210  159.2340  119.4360 H         1 NAI404      0.0000 
     54 H61A      184.4170  162.3900  114.6510 H         1 NAI404      0.0000 
     55 H62A      183.9030  162.6700  116.0350 H         1 NAI404      0.0000 
     56 H2A       188.5930  161.8710  115.0910 H         1 NAI404      0.0000 
     57 H51N      185.7860  152.8250  120.2650 H         1 NAI404      0.0000 
     58 H52N      184.4840  152.9510  121.0660 H         1 NAI404      0.0000 
     59 H4D       184.9050  150.9970  119.3850 H         1 NAI404      0.0000 
     60 H3D       182.7760  151.5270  120.8220 H         1 NAI404      0.0000 
     61 HO3N      182.2870  149.4680  119.7360 H         1 NAI404      0.0000 
     62 H2D       183.2510  150.1820  122.5600 H         1 NAI404      0.0000 
     63 HO2N      181.3420  149.3490  121.6060 H         1 NAI404      0.0000 
     64 H1D       184.1410  148.3600  120.9110 H         1 NAI404      0.0000 
     65 H2N       185.6780  150.1630  123.5660 H         1 NAI404      0.0000 
     66 H71N      188.6520  148.2570  126.0960 H         1 NAI404      0.0000 
     67 H72N      188.8050  149.5050  126.9200 H         1 NAI404      0.0000 
     68 H4N       186.5900  146.7420  125.6940 H         1 NAI404      0.0000 
     69 H42N      185.1660  147.2040  126.0060 H         1 NAI404      0.0000 
     70 H5N       185.5060  145.4300  124.1030 H         1 NAI404      0.0000 
     71 H6N       184.0410  146.5620  122.4320 H         1 NAI404      0.0000 
@<TRIPOS>BOND
     1    1    2 ar   
     2    1    3 ar   
     3    1    4 1    
     4    1   23 1    
     5    4    5 1    
     6    5    6 1    
     7    6    7 1    
     8    5   45 1    
     9    5   46 1    
    10    6    8 1    
    11    7   12 1    
    12    6   47 1    
    13    8    9 1    
    14    8   10 1    
    15   10   11 1    
    16    8   48 1    
    17    9   49 1    
    18   10   12 1    
    19   12   13 1    
    20   10   50 1    
    21   12   52 1    
    22   11   51 1    
    23   13   14 1    
    24   13   22 1    
    25   14   15 2    
    26   15   16 1    
    27   14   53 1    
    28   16   17 ar   
    29   16   22 ar   
    30   17   18 1    
    31   17   19 ar   
    32   19   20 ar   
    33   18   54 1    
    34   18   55 1    
    35   20   21 ar   
    36   21   22 ar   
    37   20   56 1    
    38   23   24 1    
    39   24   25 ar   
    40   24   26 ar   
    41   24   27 1    
    42   27   28 1    
    43   28   29 1    
    44   29   30 1    
    45   28   57 1    
    46   28   58 1    
    47   29   31 1    
    48   30   35 1    
    49   29   59 1    
    50   31   32 1    
    51   31   33 1    
    52   33   34 1    
    53   31   60 1    
    54   32   61 1    
    55   33   35 1    
    56   35   36 1    
    57   33   62 1    
    58   35   64 1    
    59   34   63 1    
    60   36   37 1    
    61   36   44 1    
    62   37   38 2    
    63   38   39 1    
    64   37   65 1    
    65   38   42 1    
    66   39   40 2    
    67   39   41 am   
    68   42   43 1    
    69   41   66 1    
    70   41   67 1    
    71   43   44 2    
    72   42   68 1    
    73   42   69 1    
    74   43   70 1    
    75   44   71 1    
@<TRIPOS>SUBSTRUCTURE
     1 NAI404      1 GROUP   
@<TRIPOS>SET
ATOM$ORANGE STATIC     ATOMS   COLORGROUP SYSTEM 
42 5 5 6 6 8 8 10 10 12 12 14 14 16 16 17 17 20 \
20 22 22 28 28 29 29 31 31 33 33 35 35 37 37 38 38 39 \
39 42 42 43 43 44 44 

