#    Name: 6jd1_5_NAI
#    Modification time : Fri May 22 19:33:49 2020

@<TRIPOS>MOLECULE
6jd1_5_NAI
   71    75     1     0     1
SMALL
NO_CHARGES


@<TRIPOS>ATOM
      1 PA        157.8090   95.1480  155.6710 P.3       1 NAI403      0.0000 
      2 O1A       156.9680   93.8610  155.9560 O.co2     1 NAI403      0.0000 
      3 O2A       157.0650   96.3570  156.1740 O.co2     1 NAI403      0.0000 
      4 O5B       159.2810   95.0700  156.4230 O.3       1 NAI403      0.0000 
      5 C5B       159.4430   94.3120  157.5800 C.3       1 NAI403      0.0000 
      6 C4B       160.8040   93.5500  157.4830 C.3       1 NAI403      0.0000 
      7 O4B       161.7960   94.4050  157.5700 O.3       1 NAI403      0.0000 
      8 C3B       160.9350   92.5790  158.6410 C.3       1 NAI403      0.0000 
      9 O3B       160.9440   91.2940  158.1700 O.3       1 NAI403      0.0000 
     10 C2B       162.2990   92.8870  159.3260 C.3       1 NAI403      0.0000 
     11 O2B       163.2100   91.7550  159.1050 O.3       1 NAI403      0.0000 
     12 C1B       162.7780   93.9480  158.7730 C.3       1 NAI403      0.0000 
     13 N9A       162.8350   95.0240  159.7550 N.pl3     1 NAI403      0.0000 
     14 C8A       161.7950   95.7810  160.0350 C.2       1 NAI403      0.0000 
     15 N7A       162.1600   96.6650  160.9640 N.2       1 NAI403      0.0000 
     16 C5A       163.4420   96.4420  161.2480 C.ar      1 NAI403      0.0000 
     17 C6A       164.3100   97.0590  162.1260 C.ar      1 NAI403      0.0000 
     18 N6A       164.1530   98.1340  163.0350 N.pl3     1 NAI403      0.0000 
     19 N1A       165.5440   96.6460  162.2240 N.ar      1 NAI403      0.0000 
     20 C2A       165.9700   95.6150  161.4650 C.ar      1 NAI403      0.0000 
     21 N3A       165.1290   95.0100  160.6070 N.ar      1 NAI403      0.0000 
     22 C4A       163.8640   95.4360  160.5080 C.ar      1 NAI403      0.0000 
     23 O3        158.0550   95.3020  154.0090 O.3       1 NAI403      0.0000 
     24 PN        159.4060   94.7300  153.1850 P.3       1 NAI403      0.0000 
     25 O1N       159.0370   93.4980  152.4170 O.co2     1 NAI403      0.0000 
     26 O2N       160.5370   94.3720  154.1930 O.co2     1 NAI403      0.0000 
     27 O5D       159.9200   95.9120  152.1230 O.3       1 NAI403      0.0000 
     28 C5D       161.0310   96.6500  152.4020 C.3       1 NAI403      0.0000 
     29 C4D       161.6500   97.1400  151.0490 C.3       1 NAI403      0.0000 
     30 O4D       161.0940   96.4830  150.0720 O.3       1 NAI403      0.0000 
     31 C3D       161.3680   98.6500  150.7570 C.3       1 NAI403      0.0000 
     32 O3D       162.4180   99.2020  150.1340 O.3       1 NAI403      0.0000 
     33 C2D       160.1760   98.6290  149.8080 C.3       1 NAI403      0.0000 
     34 O2D       160.1900   99.8560  148.9750 O.3       1 NAI403      0.0000 
     35 C1D       160.4080   97.5640  149.0730 C.3       1 NAI403      0.0000 
     36 N1N       159.2190   97.0160  148.4670 N.pl3     1 NAI403      0.0000 
     37 C2N       158.2480   96.2650  149.2330 C.2       1 NAI403      0.0000 
     38 C3N       156.8710   95.9160  148.6270 C.2       1 NAI403      0.0000 
     39 C7N       155.6300   95.9140  149.5690 C.2       1 NAI403      0.0000 
     40 O7N       155.7360   96.3060  150.6940 O.2       1 NAI403      0.0000 
     41 N7N       154.3550   95.4410  149.0850 N.am      1 NAI403      0.0000 
     42 C4N       156.6320   96.0520  147.1270 C.3       1 NAI403      0.0000 
     43 C5N       157.8790   96.4750  146.3310 C.2       1 NAI403      0.0000 
     44 C6N       159.0150   97.2150  147.0440 C.2       1 NAI403      0.0000 
     45 H51A      158.7400   93.6940  157.6560 H         1 NAI403      0.0000 
     46 H52A      159.4500   94.8770  158.3300 H         1 NAI403      0.0000 
     47 H4B       160.8570   93.0840  156.6700 H         1 NAI403      0.0000 
     48 H3B       160.2310   92.7030  159.2500 H         1 NAI403      0.0000 
     49 HO3A      161.4870   90.8420  158.6090 H         1 NAI403      0.0000 
     50 H2B       162.1720   93.0310  160.2450 H         1 NAI403      0.0000 
     51 HO2A      163.9140   91.8790  159.5310 H         1 NAI403      0.0000 
     52 H1B       163.6360   93.7710  158.4340 H         1 NAI403      0.0000 
     53 H8A       160.9020   95.9920  159.8890 H         1 NAI403      0.0000 
     54 H61A      163.9110   98.9160  162.7450 H         1 NAI403      0.0000 
     55 H62A      164.2980   98.0110  163.8820 H         1 NAI403      0.0000 
     56 H2A       166.8570   95.3600  161.5720 H         1 NAI403      0.0000 
     57 H51N      160.7950   97.3890  152.9310 H         1 NAI403      0.0000 
     58 H52N      161.6560   96.1200  152.8600 H         1 NAI403      0.0000 
     59 H4D       162.5760   96.9860  151.0450 H         1 NAI403      0.0000 
     60 H3D       161.1590   99.1130  151.5470 H         1 NAI403      0.0000 
     61 HO3N      162.1520   99.6460  149.4820 H         1 NAI403      0.0000 
     62 H2D       159.3710   98.5460  150.2830 H         1 NAI403      0.0000 
     63 HO2N      160.2480  100.5250  149.4670 H         1 NAI403      0.0000 
     64 H1D       161.0220   97.7880  148.3990 H         1 NAI403      0.0000 
     65 H2N       158.4550   95.9900  150.0970 H         1 NAI403      0.0000 
     66 H71N      154.2790   95.1570  148.2680 H         1 NAI403      0.0000 
     67 H72N      153.6640   95.4410  149.6110 H         1 NAI403      0.0000 
     68 H4N       156.3340   95.2250  146.7970 H         1 NAI403      0.0000 
     69 H42N      155.9600   96.6930  146.9900 H         1 NAI403      0.0000 
     70 H5N       157.8920   96.3850  145.4050 H         1 NAI403      0.0000 
     71 H6N       159.6330   97.7040  146.5500 H         1 NAI403      0.0000 
@<TRIPOS>BOND
     1    1    2 ar   
     2    1    3 ar   
     3    1    4 1    
     4    1   23 1    
     5    4    5 1    
     6    5    6 1    
     7    6    7 1    
     8    5   45 1    
     9    5   46 1    
    10    6    8 1    
    11    7   12 1    
    12    6   47 1    
    13    8    9 1    
    14    8   10 1    
    15   10   11 1    
    16    8   48 1    
    17    9   49 1    
    18   10   12 1    
    19   12   13 1    
    20   10   50 1    
    21   12   52 1    
    22   11   51 1    
    23   13   14 1    
    24   13   22 1    
    25   14   15 2    
    26   15   16 1    
    27   14   53 1    
    28   16   17 ar   
    29   16   22 ar   
    30   17   18 1    
    31   17   19 ar   
    32   19   20 ar   
    33   18   54 1    
    34   18   55 1    
    35   20   21 ar   
    36   21   22 ar   
    37   20   56 1    
    38   23   24 1    
    39   24   25 ar   
    40   24   26 ar   
    41   24   27 1    
    42   27   28 1    
    43   28   29 1    
    44   29   30 1    
    45   28   57 1    
    46   28   58 1    
    47   29   31 1    
    48   30   35 1    
    49   29   59 1    
    50   31   32 1    
    51   31   33 1    
    52   33   34 1    
    53   31   60 1    
    54   32   61 1    
    55   33   35 1    
    56   35   36 1    
    57   33   62 1    
    58   35   64 1    
    59   34   63 1    
    60   36   37 1    
    61   36   44 1    
    62   37   38 2    
    63   38   39 1    
    64   37   65 1    
    65   38   42 1    
    66   39   40 2    
    67   39   41 am   
    68   42   43 1    
    69   41   66 1    
    70   41   67 1    
    71   43   44 2    
    72   42   68 1    
    73   42   69 1    
    74   43   70 1    
    75   44   71 1    
@<TRIPOS>SUBSTRUCTURE
     1 NAI403      1 GROUP   
@<TRIPOS>SET
ATOM$ORANGE STATIC     ATOMS   COLORGROUP SYSTEM 
42 5 5 6 6 8 8 10 10 12 12 14 14 16 16 17 17 20 \
20 22 22 28 28 29 29 31 31 33 33 35 35 37 37 38 38 39 \
39 42 42 43 43 44 44 

