#    Name: 5yq2_1_GMC
#    Modification time : Fri May 22 19:16:01 2020

@<TRIPOS>MOLECULE
5yq2_1_GMC
   21    23     1     0     0
SMALL
NO_CHARGES


@<TRIPOS>ATOM
      1 C10        72.9480   -7.9560  -10.0320 C.3       1 GMC902      0.0000 
      2 N6         72.6580   -7.0630   -8.8710 N.3       1 GMC902      0.0000 
      3 C9         73.2160   -5.7050   -8.7100 C.3       1 GMC902      0.0000 
      4 C6         71.8810   -7.4890   -7.7730 C.ar      1 GMC902      0.0000 
      5 C5         70.9610   -8.5440   -7.9110 C.ar      1 GMC902      0.0000 
      6 C4         70.2040   -8.9080   -6.7910 C.ar      1 GMC902      0.0000 
      7 N3         70.2310   -8.3290   -5.5880 N.ar      1 GMC902      0.0000 
      8 C2         71.1300   -7.3030   -5.5530 C.ar      1 GMC902      0.0000 
      9 N1         71.9140   -6.8610   -6.5520 N.ar      1 GMC902      0.0000 
     10 N7         70.7010   -9.3880   -8.9570 N.2       1 GMC902      0.0000 
     11 C8         69.7000  -10.1820   -8.5450 C.2       1 GMC902      0.0000 
     12 N9         69.3680   -9.9350   -7.2430 N.pl3     1 GMC902      0.0000 
     13 C1'        68.3920  -10.6940   -6.4360 C.3       1 GMC902      0.0000 
     14 O4'        68.5430  -12.0600   -6.7560 O.3       1 GMC902      0.0000 
     15 C4'        67.3500  -12.5620   -6.4470 C.3       1 GMC902      0.0000 
     16 C5'        66.9960  -13.6840   -7.3780 C.3       1 GMC902      0.0000 
     17 O5'        68.0750  -14.5630   -7.4560 O.3       1 GMC902      0.0000 
     18 C2'        66.9360  -10.3460   -6.9210 C.3       1 GMC902      0.0000 
     19 O2'        66.6760   -9.2360   -6.1550 O.3       1 GMC902      0.0000 
     20 C3'        66.2010  -11.5920   -6.5480 C.3       1 GMC902      0.0000 
     21 N3'        65.5070  -11.6100   -5.2140 N.4       1 GMC902      0.0000 
@<TRIPOS>BOND
     1    1    2 1    
     2    2    3 1    
     3    2    4 1    
     4    4    5 ar   
     5    4    9 ar   
     6    5    6 ar   
     7    5   10 1    
     8    6    7 ar   
     9    6   12 1    
    10    7    8 ar   
    11    8    9 ar   
    12   10   11 2    
    13   11   12 1    
    14   12   13 1    
    15   13   14 1    
    16   13   18 1    
    17   14   15 1    
    18   15   16 1    
    19   15   20 1    
    20   16   17 1    
    21   18   19 1    
    22   18   20 1    
    23   20   21 1    
@<TRIPOS>SUBSTRUCTURE
     1 GMC902      1 GROUP   
@<TRIPOS>SET

