#    Name: 5yq2_1_GMC_CAVITY_N1_8
#    Modification time : Fri May 22 19:16:02 2020

@<TRIPOS>MOLECULE
5yq2_1_GMC_CAVITY_N1_8
  114     0     7     0     0
SMALL
NO_CHARGES


@<TRIPOS>ATOM
      1 OG         70.2000  -11.4600   -1.6600 O.3       1 SER1        0.0000 
      2 OG         74.4000   -5.1800   -2.8500 O.3       1 SER1        0.0000 
      3 OG         75.0200   -4.0300   -2.1200 O.3       1 SER1        0.0000 
      4 OG         74.1100   -4.2700   -0.9500 O.3       1 SER1        0.0000 
      5 N          73.0000  -14.8700   -7.9100 N.am      2 ALA2        0.0000 
      6 N          72.0900  -15.1200   -6.7500 N.am      2 ALA2        0.0000 
      7 N          68.1300  -12.5900   -7.3800 N.am      2 ALA2        0.0000 
      8 N          67.1100  -11.6700   -7.9800 N.am      2 ALA2        0.0000 
      9 N          70.5700  -10.9400   -8.9800 N.am      2 ALA2        0.0000 
     10 N          69.6600  -11.1900   -7.8200 N.am      2 ALA2        0.0000 
     11 N          68.6400  -10.2600   -8.4200 N.am      2 ALA2        0.0000 
     12 N          67.7300  -10.5100   -7.2500 N.am      2 ALA2        0.0000 
     13 O          66.7100   -9.5900   -7.8500 O.2       2 ALA2        0.0000 
     14 N          75.3100   -4.9400   -4.0100 N.am      2 ALA2        0.0000 
     15 N          74.0000   -3.1000   -2.7200 N.am      2 ALA2        0.0000 
     16 N          73.0900   -3.3500   -1.5500 N.am      2 ALA2        0.0000 
     17 N          74.7300   -3.1200   -0.2300 N.am      2 ALA2        0.0000 
     18 OD1        71.5900  -11.8700   -8.3800 O.co2     3 ASP3        0.0000 
     19 OD1        72.7100  -13.9600   -6.0200 O.co2     3 ASP3        0.0000 
     20 OD1        71.6900  -13.0400   -6.6200 O.co2     3 ASP3        0.0000 
     21 OD1        70.6800  -12.1100   -7.2200 O.co2     3 ASP3        0.0000 
     22 OD1        71.8000  -14.2100   -4.8500 O.co2     3 ASP3        0.0000 
     23 OD1        70.7800  -13.2800   -5.4500 O.co2     3 ASP3        0.0000 
     24 OD1        67.0300  -13.1000   -2.5500 O.co2     3 ASP3        0.0000 
     25 OD1        66.0100  -12.1700   -3.1500 O.co2     3 ASP3        0.0000 
     26 OD1        71.1900   -9.7900   -8.2600 O.co2     3 ASP3        0.0000 
     27 OD1        72.3100  -11.8800   -5.8900 O.co2     3 ASP3        0.0000 
     28 OD1        71.3000  -10.9600   -6.4900 O.co2     3 ASP3        0.0000 
     29 OD1        70.2800  -10.0300   -7.0900 O.co2     3 ASP3        0.0000 
     30 OD1        71.4000  -12.1300   -4.7200 O.co2     3 ASP3        0.0000 
     31 OD1        70.3800  -11.2000   -5.3200 O.co2     3 ASP3        0.0000 
     32 OD1        70.4900  -12.3700   -3.5600 O.co2     3 ASP3        0.0000 
     33 OD1        67.6500  -11.9400   -1.8300 O.co2     3 ASP3        0.0000 
     34 OD1        66.6300  -11.0200   -2.4300 O.co2     3 ASP3        0.0000 
     35 OD1        71.8100   -8.6300   -7.5300 O.co2     3 ASP3        0.0000 
     36 OD1        70.9000   -8.8800   -6.3600 O.co2     3 ASP3        0.0000 
     37 OD1        71.0000  -10.0500   -4.5900 O.co2     3 ASP3        0.0000 
     38 OD1        69.9900   -9.1200   -5.2000 O.co2     3 ASP3        0.0000 
     39 OD1        70.0900  -10.2900   -3.4300 O.co2     3 ASP3        0.0000 
     40 OD1        68.2700  -10.7900   -1.1000 O.co2     3 ASP3        0.0000 
     41 OD1        66.3400  -10.1100   -0.5300 O.co2     3 ASP3        0.0000 
     42 OD1        72.4300   -7.4800   -6.8000 O.co2     3 ASP3        0.0000 
     43 OD1        71.5200   -7.7200   -5.6300 O.co2     3 ASP3        0.0000 
     44 OD1        70.6100   -7.9700   -4.4700 O.co2     3 ASP3        0.0000 
     45 OD1        71.7300  -10.0600   -2.1000 O.co2     3 ASP3        0.0000 
     46 OD1        73.9600   -6.0800   -7.2400 O.co2     3 ASP3        0.0000 
     47 OD1        73.0500   -6.3200   -6.0700 O.co2     3 ASP3        0.0000 
     48 OD1        72.1400   -6.5700   -4.9000 O.co2     3 ASP3        0.0000 
     49 OD1        74.4800   -3.7500   -8.2700 O.co2     3 ASP3        0.0000 
     50 OD1        74.6900   -6.0900   -4.7400 O.co2     3 ASP3        0.0000 
     51 OD1        73.7800   -6.3400   -3.5800 O.co2     3 ASP3        0.0000 
     52 NZ         66.8200  -10.7600   -6.0900 N.4       4 LYS4        0.0000 
     53 NZ         65.9100  -11.0000   -4.9200 N.4       4 LYS4        0.0000 
     54 NZ         67.4400   -9.6000   -5.3600 N.4       4 LYS4        0.0000 
     55 NZ         66.5300   -9.8500   -4.1900 N.4       4 LYS4        0.0000 
     56 NZ         67.1500   -8.6900   -3.4600 N.4       4 LYS4        0.0000 
     57 NZ         66.1300   -7.7700   -4.0600 N.4       4 LYS4        0.0000 
     58 NZ         66.2400   -8.9400   -2.3000 N.4       4 LYS4        0.0000 
     59 CZ         66.2000  -11.9100   -6.8100 C.ar      5 PHE5        0.0000 
     60 CA         72.6000  -12.7900   -7.7800 C.3       6 GLY6        0.0000 
     61 CA         69.2600   -9.1100   -7.6900 C.3       6 GLY6        0.0000 
     62 CA         68.3500   -9.3500   -6.5200 C.3       6 GLY6        0.0000 
     63 CA         67.3300   -8.4300   -7.1200 C.3       6 GLY6        0.0000 
     64 CA         70.7900   -7.7100   -8.1300 C.3       6 GLY6        0.0000 
     65 CA         69.8800   -7.9500   -6.9600 C.3       6 GLY6        0.0000 
     66 CA         68.9700   -8.2000   -5.8000 C.3       6 GLY6        0.0000 
     67 CA         68.0600   -8.4400   -4.6300 C.3       6 GLY6        0.0000 
     68 CA         72.3300   -6.3100   -8.5600 C.3       6 GLY6        0.0000 
     69 CA         71.4100   -6.5500   -7.4000 C.3       6 GLY6        0.0000 
     70 CA         70.5000   -6.8000   -6.2300 C.3       6 GLY6        0.0000 
     71 CA         69.5900   -7.0400   -5.0700 C.3       6 GLY6        0.0000 
     72 CA         68.6800   -7.2900   -3.9000 C.3       6 GLY6        0.0000 
     73 CA         67.7700   -7.5400   -2.7400 C.3       6 GLY6        0.0000 
     74 CA         73.8600   -4.9100   -9.0000 C.3       6 GLY6        0.0000 
     75 CA         72.9500   -5.1500   -7.8400 C.3       6 GLY6        0.0000 
     76 CA         72.0300   -5.4000   -6.6700 C.3       6 GLY6        0.0000 
     77 CA         71.1200   -5.6400   -5.5000 C.3       6 GLY6        0.0000 
     78 CA         68.3900   -6.3800   -2.0100 C.3       6 GLY6        0.0000 
     79 CA         76.4100   -4.4300   -8.8400 C.3       6 GLY6        0.0000 
     80 CA         75.4900   -4.6800   -7.6700 C.3       6 GLY6        0.0000 
     81 CA         73.5700   -4.0000   -7.1100 C.3       6 GLY6        0.0000 
     82 CA         73.6700   -5.1700   -5.3400 C.3       6 GLY6        0.0000 
     83 CA         72.6600   -4.2400   -5.9400 C.3       6 GLY6        0.0000 
     84 CA         72.7600   -5.4100   -4.1800 C.3       6 GLY6        0.0000 
     85 CA         76.2200   -4.6900   -5.1800 C.3       6 GLY6        0.0000 
     86 CA         74.2900   -4.0100   -4.6100 C.3       6 GLY6        0.0000 
     87 CA         73.3800   -4.2600   -3.4500 C.3       6 GLY6        0.0000 
     88 CA         72.4700   -4.5000   -2.2800 C.3       6 GLY6        0.0000 
     89 DU         71.0700  -14.1900   -7.3500 H         7 CUB7        0.0000 
     90 DU         70.1600  -14.4400   -6.1800 H         7 CUB7        0.0000 
     91 DU         69.1400  -13.5100   -6.7800 H         7 CUB7        0.0000 
     92 DU         67.2100  -12.8400   -6.2100 H         7 CUB7        0.0000 
     93 DU         67.3200  -14.0100   -4.4500 H         7 CUB7        0.0000 
     94 DU         66.3000  -13.0800   -5.0500 H         7 CUB7        0.0000 
     95 DU         69.7600  -12.3600   -6.0500 H         7 CUB7        0.0000 
     96 DU         68.7500  -11.4300   -6.6500 H         7 CUB7        0.0000 
     97 DU         67.8400  -11.6800   -5.4900 H         7 CUB7        0.0000 
     98 DU         67.9400  -12.8500   -3.7200 H         7 CUB7        0.0000 
     99 DU         66.9200  -11.9300   -4.3200 H         7 CUB7        0.0000 
    100 DU         69.3700  -10.2800   -5.9200 H         7 CUB7        0.0000 
    101 DU         69.4700  -11.4500   -4.1600 H         7 CUB7        0.0000 
    102 DU         68.4600  -10.5200   -4.7600 H         7 CUB7        0.0000 
    103 DU         68.5600  -11.7000   -2.9900 H         7 CUB7        0.0000 
    104 DU         67.5400  -10.7700   -3.5900 H         7 CUB7        0.0000 
    105 DU         69.0800   -9.3700   -4.0300 H         7 CUB7        0.0000 
    106 DU         69.1800  -10.5400   -2.2600 H         7 CUB7        0.0000 
    107 DU         68.1700   -9.6200   -2.8600 H         7 CUB7        0.0000 
    108 DU         67.2500   -9.8600   -1.7000 H         7 CUB7        0.0000 
    109 DU         69.7000   -8.2100   -3.3000 H         7 CUB7        0.0000 
    110 DU         68.7900   -8.4600   -2.1400 H         7 CUB7        0.0000 
    111 DU         67.8700   -8.7100   -0.9700 H         7 CUB7        0.0000 
    112 DU         76.5100   -5.6000   -7.0700 H         7 CUB7        0.0000 
    113 DU         75.6000   -5.8500   -5.9100 H         7 CUB7        0.0000 
    114 DU         74.5800   -4.9200   -6.5100 H         7 CUB7        0.0000 
@<TRIPOS>BOND
@<TRIPOS>SUBSTRUCTURE
     1 SER1        1 GROUP   
     2 ALA2        5 GROUP   
     3 ASP3       18 GROUP   
     4 LYS4       52 GROUP   
     5 PHE5       59 GROUP   
     6 GLY6       60 GROUP   
     7 CUB7       89 GROUP   
@<TRIPOS>SET

