#    Name: 5yvt_1_NAI_CAVITY_N1_4
#    Modification time : Fri May 22 19:28:04 2020

@<TRIPOS>MOLECULE
5yvt_1_NAI_CAVITY_N1_4
   49     0     4     0     0
SMALL
NO_CHARGES


@<TRIPOS>ATOM
      1 O          37.2400  -18.7200   33.3000 O.2       1 ALA2        0.0000 
      2 O          38.5300  -19.4700   33.3400 O.2       1 ALA2        0.0000 
      3 N          41.4000  -17.7000   30.0000 N.am      1 ALA2        0.0000 
      4 N          40.8700  -18.5400   31.1300 N.am      1 ALA2        0.0000 
      5 N          42.1700  -19.2900   31.1700 N.am      1 ALA2        0.0000 
      6 N          41.6500  -20.1300   32.2900 N.am      1 ALA2        0.0000 
      7 N          40.1200  -16.8000   32.0700 N.am      1 ALA2        0.0000 
      8 O          39.0800  -18.4800   34.3300 O.2       1 ALA2        0.0000 
      9 N          40.8900  -18.3900   33.2400 N.am      1 ALA2        0.0000 
     10 O          40.3700  -19.2300   34.3700 O.2       1 ALA2        0.0000 
     11 O          39.8500  -20.0700   35.5000 O.2       1 ALA2        0.0000 
     12 N          42.1900  -19.1400   33.2800 N.am      1 ALA2        0.0000 
     13 N          43.4900  -19.8900   33.3200 N.am      1 ALA2        0.0000 
     14 N          40.6600  -15.8100   33.0600 N.am      1 ALA2        0.0000 
     15 O          39.6200  -17.4900   35.3200 O.2       1 ALA2        0.0000 
     16 N          41.4400  -17.4000   34.2300 N.am      1 ALA2        0.0000 
     17 O          40.9200  -18.2400   35.3600 O.2       1 ALA2        0.0000 
     18 N          40.3900  -19.0800   36.4900 N.am      1 ALA2        0.0000 
     19 N          42.7300  -18.1500   34.2700 N.am      1 ALA2        0.0000 
     20 N          41.6900  -19.8300   36.5300 N.am      1 ALA2        0.0000 
     21 N          40.6800  -15.6600   35.1800 N.am      1 ALA2        0.0000 
     22 O          40.1600  -16.5000   36.3000 O.2       1 ALA2        0.0000 
     23 O          41.4600  -17.2500   36.3500 O.2       1 ALA2        0.0000 
     24 N          42.2300  -18.8400   37.5100 N.am      1 ALA2        0.0000 
     25 NZ         40.3300  -19.5300   30.1400 N.4       2 LYS4        0.0000 
     26 NZ         36.9800  -16.2900   31.0000 N.4       2 LYS4        0.0000 
     27 NZ         36.4600  -17.1300   32.1300 N.4       2 LYS4        0.0000 
     28 NZ         38.2800  -17.0400   31.0400 N.4       2 LYS4        0.0000 
     29 NZ         37.0000  -16.1400   33.1200 N.4       2 LYS4        0.0000 
     30 NZ         39.3400  -15.2100   30.9000 N.4       2 LYS4        0.0000 
     31 NZ         38.8200  -16.0500   32.0300 N.4       2 LYS4        0.0000 
     32 NZ         38.3000  -16.8900   33.1600 N.4       2 LYS4        0.0000 
     33 NZ         38.8400  -15.9000   34.1500 N.4       2 LYS4        0.0000 
     34 NZ         40.1400  -16.6500   34.1900 N.4       2 LYS4        0.0000 
     35 CA         40.1000  -16.9500   29.9600 C.3       3 GLY6        0.0000 
     36 CA         40.6400  -15.9600   30.9400 C.3       3 GLY6        0.0000 
     37 CA         42.2100  -18.9900   35.4000 C.3       3 GLY6        0.0000 
     38 CA         42.7600  -18.0000   36.3900 C.3       3 GLY6        0.0000 
     39 CA         43.5300  -19.5900   37.5500 C.3       3 GLY6        0.0000 
     40 DU         38.5100  -19.6200   31.2300 H         4 CUB7        0.0000 
     41 DU         39.8100  -20.3700   31.2700 H         4 CUB7        0.0000 
     42 DU         41.1100  -21.1200   31.3100 H         4 CUB7        0.0000 
     43 DU         37.7600  -17.8800   32.1700 H         4 CUB7        0.0000 
     44 DU         39.5800  -17.7900   31.0800 H         4 CUB7        0.0000 
     45 DU         39.0500  -18.6300   32.2100 H         4 CUB7        0.0000 
     46 DU         40.3500  -19.3800   32.2500 H         4 CUB7        0.0000 
     47 DU         39.8300  -20.2200   33.3800 H         4 CUB7        0.0000 
     48 DU         39.6000  -17.6400   33.2000 H         4 CUB7        0.0000 
     49 DU         41.6700  -19.9800   34.4100 H         4 CUB7        0.0000 
@<TRIPOS>BOND
@<TRIPOS>SUBSTRUCTURE
     1 ALA2        1 GROUP   
     2 LYS4       25 GROUP   
     3 GLY6       35 GROUP   
     4 CUB7       40 GROUP   
@<TRIPOS>SET

