#    Name: 5yvt_1_NAI_CAVITY_N1_6
#    Modification time : Fri May 22 19:28:04 2020

@<TRIPOS>MOLECULE
5yvt_1_NAI_CAVITY_N1_6
   83     0     6     0     0
SMALL
NO_CHARGES


@<TRIPOS>ATOM
      1 OG         36.6700  -19.8600   30.2000 O.3       1 SER1        0.0000 
      2 OG         35.8800  -23.9700   34.7500 O.3       1 SER1        0.0000 
      3 OG         35.3600  -24.8100   35.8800 O.3       1 SER1        0.0000 
      4 OG         36.4400  -17.2800   30.0200 O.3       1 SER1        0.0000 
      5 OG         35.9200  -18.1200   31.1400 O.3       1 SER1        0.0000 
      6 OG         35.4000  -18.9600   32.2700 O.3       1 SER1        0.0000 
      7 OG         37.2100  -18.8700   31.1800 O.3       1 SER1        0.0000 
      8 OG         35.6500  -21.3900   34.5700 O.3       1 SER1        0.0000 
      9 O          37.2400  -18.7200   33.3000 O.2       2 ALA2        0.0000 
     10 O          38.5300  -19.4700   33.3400 O.2       2 ALA2        0.0000 
     11 N          41.4000  -17.7000   30.0000 N.am      2 ALA2        0.0000 
     12 N          40.8700  -18.5400   31.1300 N.am      2 ALA2        0.0000 
     13 N          42.1700  -19.2900   31.1700 N.am      2 ALA2        0.0000 
     14 N          41.6500  -20.1300   32.2900 N.am      2 ALA2        0.0000 
     15 N          40.1200  -16.8000   32.0700 N.am      2 ALA2        0.0000 
     16 O          39.0800  -18.4800   34.3300 O.2       2 ALA2        0.0000 
     17 N          40.8900  -18.3900   33.2400 N.am      2 ALA2        0.0000 
     18 O          40.3700  -19.2300   34.3700 O.2       2 ALA2        0.0000 
     19 O          39.8500  -20.0700   35.5000 O.2       2 ALA2        0.0000 
     20 N          42.1900  -19.1400   33.2800 N.am      2 ALA2        0.0000 
     21 N          43.4900  -19.8900   33.3200 N.am      2 ALA2        0.0000 
     22 N          40.6600  -15.8100   33.0600 N.am      2 ALA2        0.0000 
     23 O          39.6200  -17.4900   35.3200 O.2       2 ALA2        0.0000 
     24 N          41.4400  -17.4000   34.2300 N.am      2 ALA2        0.0000 
     25 O          40.9200  -18.2400   35.3600 O.2       2 ALA2        0.0000 
     26 N          40.3900  -19.0800   36.4900 N.am      2 ALA2        0.0000 
     27 N          42.7300  -18.1500   34.2700 N.am      2 ALA2        0.0000 
     28 N          41.6900  -19.8300   36.5300 N.am      2 ALA2        0.0000 
     29 N          40.6800  -15.6600   35.1800 N.am      2 ALA2        0.0000 
     30 O          40.1600  -16.5000   36.3000 O.2       2 ALA2        0.0000 
     31 O          41.4600  -17.2500   36.3500 O.2       2 ALA2        0.0000 
     32 N          42.2300  -18.8400   37.5100 N.am      2 ALA2        0.0000 
     33 OD1        36.9600  -16.4400   28.8900 O.co2     3 ASP3        0.0000 
     34 NZ         37.9700  -20.6100   30.2400 N.4       4 LYS4        0.0000 
     35 NZ         38.2600  -17.1900   28.9300 N.4       4 LYS4        0.0000 
     36 NZ         37.7400  -18.0300   30.0600 N.4       4 LYS4        0.0000 
     37 NZ         39.5600  -17.9400   28.9700 N.4       4 LYS4        0.0000 
     38 NZ         39.0300  -18.7800   30.1000 N.4       4 LYS4        0.0000 
     39 NZ         40.3300  -19.5300   30.1400 N.4       4 LYS4        0.0000 
     40 NZ         37.5000  -15.4500   29.8800 N.4       4 LYS4        0.0000 
     41 NZ         36.9800  -16.2900   31.0000 N.4       4 LYS4        0.0000 
     42 NZ         36.4600  -17.1300   32.1300 N.4       4 LYS4        0.0000 
     43 NZ         38.8000  -16.2000   29.9200 N.4       4 LYS4        0.0000 
     44 NZ         38.2800  -17.0400   31.0400 N.4       4 LYS4        0.0000 
     45 NZ         37.0000  -16.1400   33.1200 N.4       4 LYS4        0.0000 
     46 NZ         39.3400  -15.2100   30.9000 N.4       4 LYS4        0.0000 
     47 NZ         38.8200  -16.0500   32.0300 N.4       4 LYS4        0.0000 
     48 NZ         38.3000  -16.8900   33.1600 N.4       4 LYS4        0.0000 
     49 NZ         38.8400  -15.9000   34.1500 N.4       4 LYS4        0.0000 
     50 NZ         40.1400  -16.6500   34.1900 N.4       4 LYS4        0.0000 
     51 CA         36.6600  -25.5600   35.9200 C.3       5 GLY6        0.0000 
     52 CA         37.4300  -27.1500   37.0900 C.3       5 GLY6        0.0000 
     53 CA         34.8700  -19.8000   33.4000 C.3       5 GLY6        0.0000 
     54 CA         36.1700  -20.5500   33.4400 C.3       5 GLY6        0.0000 
     55 CA         35.9000  -23.8200   36.8700 C.3       5 GLY6        0.0000 
     56 CA         35.3800  -24.6600   37.9900 C.3       5 GLY6        0.0000 
     57 CA         35.9400  -17.9700   33.2600 C.3       5 GLY6        0.0000 
     58 CA         39.3200  -15.3600   28.7900 C.3       5 GLY6        0.0000 
     59 CA         36.7100  -19.5600   34.4300 C.3       5 GLY6        0.0000 
     60 CA         40.6200  -16.1100   28.8300 C.3       5 GLY6        0.0000 
     61 CA         40.1000  -16.9500   29.9600 C.3       5 GLY6        0.0000 
     62 CA         39.8600  -14.3700   29.7800 C.3       5 GLY6        0.0000 
     63 CA         40.6400  -15.9600   30.9400 C.3       5 GLY6        0.0000 
     64 CA         42.2100  -18.9900   35.4000 C.3       5 GLY6        0.0000 
     65 CA         42.7600  -18.0000   36.3900 C.3       5 GLY6        0.0000 
     66 CA         43.5300  -19.5900   37.5500 C.3       5 GLY6        0.0000 
     67 DU         37.4500  -21.4500   31.3700 H         6 CUB7        0.0000 
     68 DU         36.9300  -22.2900   32.4900 H         6 CUB7        0.0000 
     69 DU         36.4000  -23.1300   33.6200 H         6 CUB7        0.0000 
     70 DU         36.6900  -19.7100   32.3100 H         6 CUB7        0.0000 
     71 DU         38.5100  -19.6200   31.2300 H         6 CUB7        0.0000 
     72 DU         37.9900  -20.4600   32.3500 H         6 CUB7        0.0000 
     73 DU         37.4700  -21.3000   33.4800 H         6 CUB7        0.0000 
     74 DU         36.9500  -22.1400   34.6100 H         6 CUB7        0.0000 
     75 DU         39.8100  -20.3700   31.2700 H         6 CUB7        0.0000 
     76 DU         41.1100  -21.1200   31.3100 H         6 CUB7        0.0000 
     77 DU         37.7600  -17.8800   32.1700 H         6 CUB7        0.0000 
     78 DU         39.5800  -17.7900   31.0800 H         6 CUB7        0.0000 
     79 DU         39.0500  -18.6300   32.2100 H         6 CUB7        0.0000 
     80 DU         40.3500  -19.3800   32.2500 H         6 CUB7        0.0000 
     81 DU         39.8300  -20.2200   33.3800 H         6 CUB7        0.0000 
     82 DU         39.6000  -17.6400   33.2000 H         6 CUB7        0.0000 
     83 DU         41.6700  -19.9800   34.4100 H         6 CUB7        0.0000 
@<TRIPOS>BOND
@<TRIPOS>SUBSTRUCTURE
     1 SER1        1 GROUP   
     2 ALA2        9 GROUP   
     3 ASP3       33 GROUP   
     4 LYS4       34 GROUP   
     5 GLY6       51 GROUP   
     6 CUB7       67 GROUP   
@<TRIPOS>SET

