#    Name: 5yvt_1_NAI
#    Modification time : Fri May 22 19:28:02 2020

@<TRIPOS>MOLECULE
5yvt_1_NAI
   44    48     1     0     1
SMALL
NO_CHARGES


@<TRIPOS>ATOM
      1 PA         47.8940  -20.3780   34.3680 P.3       1 NAI402      0.0000 
      2 O1A        48.4460  -19.2680   35.2310 O.co2     1 NAI402      0.0000 
      3 O2A        46.9090  -20.0360   33.2650 O.co2     1 NAI402      0.0000 
      4 O5B        49.1530  -21.1650   33.7210 O.3       1 NAI402      0.0000 
      5 C5B        50.0710  -20.4670   32.8630 C.3       1 NAI402      0.0000 
      6 C4B        51.5390  -20.5090   33.3240 C.3       1 NAI402      0.0000 
      7 O4B        52.1630  -19.2570   33.0000 O.3       1 NAI402      0.0000 
      8 C3B        51.7540  -20.7460   34.8180 C.3       1 NAI402      0.0000 
      9 O3B        52.6150  -21.8800   34.9860 O.3       1 NAI402      0.0000 
     10 C2B        52.3870  -19.4730   35.3690 C.3       1 NAI402      0.0000 
     11 O2B        53.6010  -19.7210   36.0890 O.3       1 NAI402      0.0000 
     12 C1B        52.6530  -18.5720   34.1650 C.3       1 NAI402      0.0000 
     13 N9A        51.9240  -17.2850   34.3320 N.pl3     1 NAI402      0.0000 
     14 C8A        50.5840  -17.1270   34.2230 C.2       1 NAI402      0.0000 
     15 N7A        50.2180  -15.8400   34.4340 N.2       1 NAI402      0.0000 
     16 C5A        51.3400  -15.1360   34.6790 C.ar      1 NAI402      0.0000 
     17 C6A        51.6650  -13.7150   34.9810 C.ar      1 NAI402      0.0000 
     18 N6A        50.6840  -12.7820   35.0570 N.pl3     1 NAI402      0.0000 
     19 N1A        52.9740  -13.3890   35.1770 N.ar      1 NAI402      0.0000 
     20 C2A        53.9630  -14.3130   35.1020 C.ar      1 NAI402      0.0000 
     21 N3A        53.7360  -15.6190   34.8290 N.ar      1 NAI402      0.0000 
     22 C4A        52.4680  -16.0910   34.6130 C.ar      1 NAI402      0.0000 
     23 O3         47.2440  -21.4460   35.4010 O.3       1 NAI402      0.0000 
     24 PN         46.3670  -22.7460   34.9950 P.3       1 NAI402      0.0000 
     25 O1N        47.1680  -23.9810   35.3470 O.co2     1 NAI402      0.0000 
     26 O2N        45.8020  -22.6010   33.6010 O.co2     1 NAI402      0.0000 
     27 O5D        45.1260  -22.6660   36.0230 O.3       1 NAI402      0.0000 
     28 C5D        45.2970  -22.5740   37.4400 C.3       1 NAI402      0.0000 
     29 C4D        44.0640  -21.9090   38.0480 C.3       1 NAI402      0.0000 
     30 O4D        43.7610  -20.6980   37.3440 O.3       1 NAI402      0.0000 
     31 C3D        42.8330  -22.8050   37.9580 C.3       1 NAI402      0.0000 
     32 O3D        42.2520  -22.9610   39.2600 O.3       1 NAI402      0.0000 
     33 C2D        41.8850  -22.0940   37.0010 C.3       1 NAI402      0.0000 
     34 O2D        40.5100  -22.1560   37.3980 O.3       1 NAI402      0.0000 
     35 C1D        42.3700  -20.6490   37.0060 C.3       1 NAI402      0.0000 
     36 N1N        42.0730  -19.9350   35.7480 N.pl3     1 NAI402      0.0000 
     37 C2N        41.2760  -18.8510   35.8490 C.2       1 NAI402      0.0000 
     38 C3N        40.9050  -18.0800   34.7420 C.2       1 NAI402      0.0000 
     39 C7N        40.0080  -16.8780   34.9420 C.2       1 NAI402      0.0000 
     40 O7N        39.6780  -16.5490   36.0760 O.2       1 NAI402      0.0000 
     41 N7N        39.5860  -16.1800   33.8840 N.am      1 NAI402      0.0000 
     42 C4N        41.4090  -18.4580   33.3540 C.3       1 NAI402      0.0000 
     43 C5N        42.2680  -19.6470   33.3650 C.2       1 NAI402      0.0000 
     44 C6N        42.5640  -20.3320   34.5500 C.2       1 NAI402      0.0000 
@<TRIPOS>BOND
     1    1    2 ar   
     2    1    3 ar   
     3    1    4 1    
     4    1   23 1    
     5    4    5 1    
     6    5    6 1    
     7    6    7 1    
     8    6    8 1    
     9    7   12 1    
    10    8    9 1    
    11    8   10 1    
    12   10   11 1    
    13   10   12 1    
    14   12   13 1    
    15   13   14 1    
    16   13   22 1    
    17   14   15 2    
    18   15   16 1    
    19   16   17 ar   
    20   16   22 ar   
    21   17   18 1    
    22   17   19 ar   
    23   19   20 ar   
    24   20   21 ar   
    25   21   22 ar   
    26   23   24 1    
    27   24   25 ar   
    28   24   26 ar   
    29   24   27 1    
    30   27   28 1    
    31   28   29 1    
    32   29   30 1    
    33   29   31 1    
    34   30   35 1    
    35   31   32 1    
    36   31   33 1    
    37   33   34 1    
    38   33   35 1    
    39   35   36 1    
    40   36   37 1    
    41   36   44 1    
    42   37   38 2    
    43   38   39 1    
    44   38   42 1    
    45   39   40 2    
    46   39   41 am   
    47   42   43 1    
    48   43   44 2    
@<TRIPOS>SUBSTRUCTURE
     1 NAI402      1 GROUP   
@<TRIPOS>SET
ATOM$ORANGE STATIC     ATOMS   COLORGROUP SYSTEM 
42 5 5 6 6 8 8 10 10 12 12 14 14 16 16 17 17 20 \
20 22 22 28 28 29 29 31 31 33 33 35 35 37 37 38 38 39 \
39 42 42 43 43 44 44 

