#    Name: 6bwh_3_PEP_CAVITY_N1_6
#    Modification time : Fri May 22 19:33:09 2020

@<TRIPOS>MOLECULE
6bwh_3_PEP_CAVITY_N1_6
   73     0     6     0     0
SMALL
NO_CHARGES


@<TRIPOS>ATOM
      1 N           9.8500   44.0100   33.7100 N.am      1 ALA2        0.0000 
      2 N          10.5700   42.7400   34.0700 N.am      1 ALA2        0.0000 
      3 N          10.7900   44.2300   32.5700 N.am      1 ALA2        0.0000 
      4 N          10.5400   43.3000   36.1100 N.am      1 ALA2        0.0000 
      5 O          11.4800   43.5200   34.9700 O.2       1 ALA2        0.0000 
      6 O          12.6300   45.7700   34.3700 O.2       1 ALA2        0.0000 
      7 O          13.3500   44.5000   34.7200 O.2       1 ALA2        0.0000 
      8 O          14.4900   46.7600   34.1200 O.2       1 ALA2        0.0000 
      9 O          15.2100   45.4900   34.4800 O.2       1 ALA2        0.0000 
     10 O          16.1200   46.2600   35.3800 O.2       1 ALA2        0.0000 
     11 N          16.8400   45.0000   35.7300 N.am      1 ALA2        0.0000 
     12 N          17.0400   47.0400   36.2800 N.am      1 ALA2        0.0000 
     13 O          17.2700   48.5200   34.7800 O.2       1 ALA2        0.0000 
     14 O          17.9900   47.2500   35.1300 O.2       1 ALA2        0.0000 
     15 O          18.7000   45.9800   35.4900 O.2       1 ALA2        0.0000 
     16 O          18.2100   48.7300   33.6300 O.2       1 ALA2        0.0000 
     17 N          17.9600   47.8100   37.1800 N.am      1 ALA2        0.0000 
     18 OD1        10.7600   44.7800   34.6100 O.co2     2 ASP3        0.0000 
     19 OD1        11.2200   47.7500   31.6100 O.co2     2 ASP3        0.0000 
     20 OD1        11.9400   46.4800   31.9700 O.co2     2 ASP3        0.0000 
     21 OD1        12.8800   46.6900   30.8200 O.co2     2 ASP3        0.0000 
     22 OD1        11.6800   45.5600   35.5100 O.co2     2 ASP3        0.0000 
     23 OD1        11.9100   47.0400   34.0100 O.co2     2 ASP3        0.0000 
     24 OD1        12.1300   48.5200   32.5100 O.co2     2 ASP3        0.0000 
     25 OD1        13.0800   48.7300   31.3700 O.co2     2 ASP3        0.0000 
     26 OD1        13.8000   47.4700   31.7200 O.co2     2 ASP3        0.0000 
     27 OD1        14.0200   48.9500   30.2200 O.co2     2 ASP3        0.0000 
     28 OD1        14.0000   49.5100   32.2700 O.co2     2 ASP3        0.0000 
     29 OD1        14.9400   49.7200   31.1200 O.co2     2 ASP3        0.0000 
     30 NZ         10.9900   46.2700   33.1100 N.4       3 LYS4        0.0000 
     31 NZ         11.1900   48.3100   33.6600 N.4       3 LYS4        0.0000 
     32 NZ         13.0500   49.2900   33.4100 N.4       3 LYS4        0.0000 
     33 CZ         12.2000   42.2500   35.3200 C.ar      4 PHE5        0.0000 
     34 CA         11.5100   42.9600   32.9200 C.3       5 GLY6        0.0000 
     35 CA         12.4600   43.1700   31.7800 C.3       5 GLY6        0.0000 
     36 CA         13.1700   41.9000   32.1300 C.3       5 GLY6        0.0000 
     37 CA         12.4300   43.7300   33.8200 C.3       5 GLY6        0.0000 
     38 CA         13.1500   42.4600   34.1800 C.3       5 GLY6        0.0000 
     39 CA         13.3700   43.9400   32.6800 C.3       5 GLY6        0.0000 
     40 CA         14.3200   44.1600   31.5300 C.3       5 GLY6        0.0000 
     41 CA         14.2900   44.7200   33.5800 C.3       5 GLY6        0.0000 
     42 CA         15.2300   44.9300   32.4300 C.3       5 GLY6        0.0000 
     43 CA         16.1800   45.1500   31.2900 C.3       5 GLY6        0.0000 
     44 CA         12.3300   50.5600   33.0600 C.3       5 GLY6        0.0000 
     45 CA         16.1500   45.7000   33.3300 C.3       5 GLY6        0.0000 
     46 CA         16.3800   47.1900   31.8300 C.3       5 GLY6        0.0000 
     47 CA         17.1000   45.9200   32.1900 C.3       5 GLY6        0.0000 
     48 CA         14.1900   51.5500   32.8100 C.3       5 GLY6        0.0000 
     49 CA         14.9100   50.2800   33.1700 C.3       5 GLY6        0.0000 
     50 CA         16.3500   47.7400   33.8800 C.3       5 GLY6        0.0000 
     51 CA         17.0700   46.4800   34.2300 C.3       5 GLY6        0.0000 
     52 CA         17.7900   45.2100   34.5900 C.3       5 GLY6        0.0000 
     53 CA         15.8600   50.4900   32.0200 C.3       5 GLY6        0.0000 
     54 CA         16.5800   49.2300   32.3800 C.3       5 GLY6        0.0000 
     55 CA         17.2900   47.9600   32.7300 C.3       5 GLY6        0.0000 
     56 CA         15.8300   51.0500   34.0700 C.3       5 GLY6        0.0000 
     57 CA         16.5500   49.7900   34.4200 C.3       5 GLY6        0.0000 
     58 CA         16.5200   50.3400   36.4700 C.3       5 GLY6        0.0000 
     59 DU         11.7400   44.4400   31.4200 H         6 CUB7        0.0000 
     60 DU         11.7100   45.0000   33.4700 H         6 CUB7        0.0000 
     61 DU         12.6500   45.2100   32.3200 H         6 CUB7        0.0000 
     62 DU         13.6000   45.4300   31.1800 H         6 CUB7        0.0000 
     63 DU         12.8500   47.2500   32.8700 H         6 CUB7        0.0000 
     64 DU         13.5700   45.9800   33.2200 H         6 CUB7        0.0000 
     65 DU         14.5200   46.2000   32.0800 H         6 CUB7        0.0000 
     66 DU         14.7400   47.6800   30.5800 H         6 CUB7        0.0000 
     67 DU         15.4600   46.4100   30.9300 H         6 CUB7        0.0000 
     68 DU         14.7100   48.2400   32.6200 H         6 CUB7        0.0000 
     69 DU         15.4300   46.9700   32.9800 H         6 CUB7        0.0000 
     70 DU         15.6600   48.4500   31.4800 H         6 CUB7        0.0000 
     71 DU         15.6300   49.0100   33.5200 H         6 CUB7        0.0000 
     72 DU         16.3200   48.3000   35.9200 H         6 CUB7        0.0000 
     73 DU         17.2400   49.0800   36.8300 H         6 CUB7        0.0000 
@<TRIPOS>BOND
@<TRIPOS>SUBSTRUCTURE
     1 ALA2        1 GROUP   
     2 ASP3       18 GROUP   
     3 LYS4       30 GROUP   
     4 PHE5       33 GROUP   
     5 GLY6       34 GROUP   
     6 CUB7       59 GROUP   
@<TRIPOS>SET

