#    Name: 6bwh_3_PEP_CAVITY_N1_4
#    Modification time : Fri May 22 19:33:09 2020

@<TRIPOS>MOLECULE
6bwh_3_PEP_CAVITY_N1_4
   42     0     6     0     0
SMALL
NO_CHARGES


@<TRIPOS>ATOM
      1 N           9.8500   44.0100   33.7100 N.am      1 ALA2        0.0000 
      2 N          10.5700   42.7400   34.0700 N.am      1 ALA2        0.0000 
      3 N          10.7900   44.2300   32.5700 N.am      1 ALA2        0.0000 
      4 N          10.5400   43.3000   36.1100 N.am      1 ALA2        0.0000 
      5 O          11.4800   43.5200   34.9700 O.2       1 ALA2        0.0000 
      6 O          12.6300   45.7700   34.3700 O.2       1 ALA2        0.0000 
      7 O          13.3500   44.5000   34.7200 O.2       1 ALA2        0.0000 
      8 O          14.4900   46.7600   34.1200 O.2       1 ALA2        0.0000 
      9 O          15.2100   45.4900   34.4800 O.2       1 ALA2        0.0000 
     10 O          16.1200   46.2600   35.3800 O.2       1 ALA2        0.0000 
     11 OD1        10.7600   44.7800   34.6100 O.co2     2 ASP3        0.0000 
     12 OD1        11.2200   47.7500   31.6100 O.co2     2 ASP3        0.0000 
     13 OD1        11.9400   46.4800   31.9700 O.co2     2 ASP3        0.0000 
     14 OD1        12.8800   46.6900   30.8200 O.co2     2 ASP3        0.0000 
     15 OD1        11.6800   45.5600   35.5100 O.co2     2 ASP3        0.0000 
     16 OD1        11.9100   47.0400   34.0100 O.co2     2 ASP3        0.0000 
     17 OD1        12.1300   48.5200   32.5100 O.co2     2 ASP3        0.0000 
     18 OD1        13.8000   47.4700   31.7200 O.co2     2 ASP3        0.0000 
     19 NZ         10.9900   46.2700   33.1100 N.4       3 LYS4        0.0000 
     20 NZ         11.1900   48.3100   33.6600 N.4       3 LYS4        0.0000 
     21 NZ         13.0500   49.2900   33.4100 N.4       3 LYS4        0.0000 
     22 CZ         12.2000   42.2500   35.3200 C.ar      4 PHE5        0.0000 
     23 CA         11.5100   42.9600   32.9200 C.3       5 GLY6        0.0000 
     24 CA         12.4600   43.1700   31.7800 C.3       5 GLY6        0.0000 
     25 CA         13.1700   41.9000   32.1300 C.3       5 GLY6        0.0000 
     26 CA         12.4300   43.7300   33.8200 C.3       5 GLY6        0.0000 
     27 CA         13.1500   42.4600   34.1800 C.3       5 GLY6        0.0000 
     28 CA         13.3700   43.9400   32.6800 C.3       5 GLY6        0.0000 
     29 CA         14.3200   44.1600   31.5300 C.3       5 GLY6        0.0000 
     30 CA         14.2900   44.7200   33.5800 C.3       5 GLY6        0.0000 
     31 CA         15.2300   44.9300   32.4300 C.3       5 GLY6        0.0000 
     32 CA         16.1500   45.7000   33.3300 C.3       5 GLY6        0.0000 
     33 CA         16.3500   47.7400   33.8800 C.3       5 GLY6        0.0000 
     34 DU         11.7400   44.4400   31.4200 H         6 CUB7        0.0000 
     35 DU         11.7100   45.0000   33.4700 H         6 CUB7        0.0000 
     36 DU         12.6500   45.2100   32.3200 H         6 CUB7        0.0000 
     37 DU         13.6000   45.4300   31.1800 H         6 CUB7        0.0000 
     38 DU         12.8500   47.2500   32.8700 H         6 CUB7        0.0000 
     39 DU         13.5700   45.9800   33.2200 H         6 CUB7        0.0000 
     40 DU         14.5200   46.2000   32.0800 H         6 CUB7        0.0000 
     41 DU         14.7100   48.2400   32.6200 H         6 CUB7        0.0000 
     42 DU         15.4300   46.9700   32.9800 H         6 CUB7        0.0000 
@<TRIPOS>BOND
@<TRIPOS>SUBSTRUCTURE
     1 ALA2        1 GROUP   
     2 ASP3       11 GROUP   
     3 LYS4       19 GROUP   
     4 PHE5       22 GROUP   
     5 GLY6       23 GROUP   
     6 CUB7       34 GROUP   
@<TRIPOS>SET

