#    Name: 6bwh_3_PEP
#    Modification time : Fri May 22 19:33:08 2020

@<TRIPOS>MOLECULE
6bwh_3_PEP
   10     9     1     0     0
SMALL
NO_CHARGES


@<TRIPOS>ATOM
      1 C1         10.2910   42.4610   35.8140 C.2       1 PEP301      0.0000 
      2 O1         10.3240   41.2220   35.5020 O.co2     1 PEP301      0.0000 
      3 O2'         9.3900   43.0440   36.5510 O.co2     1 PEP301      0.0000 
      4 C2         11.3880   43.3720   35.3160 C.2       1 PEP301      0.0000 
      5 C3         12.3800   42.9970   34.5410 C.2       1 PEP301      0.0000 
      6 O2         11.1800   44.6490   35.8450 O.3       1 PEP301      0.0000 
      7 P          11.4720   45.8820   34.8830 P.3       1 PEP301      0.0000 
      8 O1P        11.0690   45.2360   33.5660 O.co2     1 PEP301      0.0000 
      9 O2P        12.9370   46.2420   34.9240 O.co2     1 PEP301      0.0000 
     10 O3P        10.6970   47.0570   35.4090 O.co2     1 PEP301      0.0000 
@<TRIPOS>BOND
     1    1    2 ar   
     2    1    3 ar   
     3    1    4 1    
     4    4    5 2    
     5    4    6 1    
     6    6    7 1    
     7    7    8 ar   
     8    7    9 ar   
     9    7   10 ar   
@<TRIPOS>SUBSTRUCTURE
     1 PEP301      1 GROUP   
@<TRIPOS>SET

