#    Name: 6o4k_7_NAD
#    Modification time : Fri May 22 19:31:59 2020

@<TRIPOS>MOLECULE
6o4k_7_NAD
   27    29     1     0     1
SMALL
NO_CHARGES


@<TRIPOS>ATOM
      1 PA         34.8770  149.2940   21.0080 P.3       1 NAD601      0.0000 
      2 O1A        34.5150  150.7500   21.2460 O.co2     1 NAD601      0.0000 
      3 O2A        35.7180  148.7690   22.1580 O.co2     1 NAD601      0.0000 
      4 O5B        33.5020  148.4350   20.9210 O.3       1 NAD601      0.0000 
      5 C5B        33.3530  147.2080   21.6130 C.3       1 NAD601      0.0000 
      6 C4B        32.0540  147.2720   22.4390 C.3       1 NAD601      0.0000 
      7 O4B        32.2370  148.1030   23.4280 O.3       1 NAD601      0.0000 
      8 C3B        30.9200  147.8530   21.5910 C.3       1 NAD601      0.0000 
      9 O3B        29.8060  147.1000   21.7500 O.3       1 NAD601      0.0000 
     10 C2B        30.6980  149.2700   22.1690 C.3       1 NAD601      0.0000 
     11 O2B        29.2840  149.7180   21.9570 O.3       1 NAD601      0.0000 
     12 C1B        30.9910  149.1170   23.4150 C.3       1 NAD601      0.0000 
     13 N9A        31.3980  150.3460   23.9860 N.pl3     1 NAD601      0.0000 
     14 C8A        31.9250  151.4220   23.3470 C.2       1 NAD601      0.0000 
     15 N7A        32.1610  152.3780   24.2730 N.2       1 NAD601      0.0000 
     16 C5A        31.7780  151.8870   25.4810 C.ar      1 NAD601      0.0000 
     17 C6A        31.8160  152.4320   26.7450 C.ar      1 NAD601      0.0000 
     18 N6A        32.2850  153.7410   27.0490 N.pl3     1 NAD601      0.0000 
     19 N1A        31.3920  151.7210   27.8000 N.ar      1 NAD601      0.0000 
     20 C2A        30.9250  150.4510   27.6170 C.ar      1 NAD601      0.0000 
     21 N3A        30.8890  149.9050   26.3670 N.ar      1 NAD601      0.0000 
     22 C4A        31.3220  150.6350   25.3070 C.ar      1 NAD601      0.0000 
     23 O3         35.6790  149.3390   19.6050 O.3       1 NAD601      0.0000 
     24 PN         36.1080  148.1890   18.5510 P.3       1 NAD601      0.0000 
     25 O1N        34.9350  147.8830   17.6330 O.3       1 NAD601      0.0000 
     26 O2N        37.2730  148.7390   17.7380 O.co2     1 NAD601      0.0000 
     27 O5D        36.5670  146.8460   19.2840 O.co2     1 NAD601      0.0000 
@<TRIPOS>BOND
     1    1    2 ar   
     2    1    3 ar   
     3    1    4 1    
     4    1   23 1    
     5    4    5 1    
     6    5    6 1    
     7    6    7 1    
     8    6    8 1    
     9    7   12 1    
    10    8    9 1    
    11    8   10 1    
    12   10   11 1    
    13   10   12 1    
    14   12   13 1    
    15   13   14 1    
    16   13   22 1    
    17   14   15 2    
    18   15   16 1    
    19   16   17 ar   
    20   16   22 ar   
    21   17   18 1    
    22   17   19 ar   
    23   19   20 ar   
    24   20   21 ar   
    25   21   22 ar   
    26   23   24 1    
    27   24   25 1    
    28   24   26 ar   
    29   24   27 ar   
@<TRIPOS>SUBSTRUCTURE
     1 NAD601      1 GROUP   
@<TRIPOS>SET
ATOM$ORANGE STATIC     ATOMS   COLORGROUP SYSTEM 
20 5 5 6 6 8 8 10 10 12 12 14 14 16 16 17 17 20 \
20 22 22 

