#    Name: 6o4k_4_NAD
#    Modification time : Fri May 22 19:31:46 2020

@<TRIPOS>MOLECULE
6o4k_4_NAD
   27    29     1     0     1
SMALL
NO_CHARGES


@<TRIPOS>ATOM
      1 PA         35.3120    8.3090   58.8170 P.3       1 NAD601      0.0000 
      2 O1A        35.8040    8.2220   57.3840 O.co2     1 NAD601      0.0000 
      3 O2A        35.1680    6.9090   59.3800 O.co2     1 NAD601      0.0000 
      4 O5B        33.8580    9.0460   58.8490 O.3       1 NAD601      0.0000 
      5 C5B        33.6750   10.2140   58.0520 C.3       1 NAD601      0.0000 
      6 C4B        32.3470   10.1120   57.2380 C.3       1 NAD601      0.0000 
      7 O4B        32.4880    9.2850   56.2380 O.3       1 NAD601      0.0000 
      8 C3B        31.1940    9.5770   58.0950 C.3       1 NAD601      0.0000 
      9 O3B        30.0910   10.3060   57.8280 O.3       1 NAD601      0.0000 
     10 C2B        31.0380    8.1190   57.5970 C.3       1 NAD601      0.0000 
     11 O2B        29.6700    7.5830   57.8470 O.3       1 NAD601      0.0000 
     12 C1B        31.2920    8.1980   56.3360 C.3       1 NAD601      0.0000 
     13 N9A        31.7780    6.9710   55.8170 N.pl3     1 NAD601      0.0000 
     14 C8A        32.2750    5.9240   56.5120 C.2       1 NAD601      0.0000 
     15 N7A        32.6350    4.9680   55.6250 N.2       1 NAD601      0.0000 
     16 C5A        32.3590    5.4290   54.3790 C.ar      1 NAD601      0.0000 
     17 C6A        32.5240    4.8720   53.1240 C.ar      1 NAD601      0.0000 
     18 N6A        33.0660    3.5720   52.8600 N.pl3     1 NAD601      0.0000 
     19 N1A        32.1700    5.5650   52.0290 N.ar      1 NAD601      0.0000 
     20 C2A        31.6410    6.8200   52.1580 C.ar      1 NAD601      0.0000 
     21 N3A        31.4720    7.3690   53.3930 N.ar      1 NAD601      0.0000 
     22 C4A        31.8350    6.6670   54.4980 C.ar      1 NAD601      0.0000 
     23 O3         36.3790    9.1740   59.6620 O.3       1 NAD601      0.0000 
     24 PN         36.1950    9.8100   61.1300 P.3       1 NAD601      0.0000 
     25 O1N        35.3290   11.0470   61.0590 O.3       1 NAD601      0.0000 
     26 O2N        35.5700    8.7870   62.0710 O.co2     1 NAD601      0.0000 
     27 O5D        37.6510   10.2040   61.6610 O.co2     1 NAD601      0.0000 
@<TRIPOS>BOND
     1    1    2 ar   
     2    1    3 ar   
     3    1    4 1    
     4    1   23 1    
     5    4    5 1    
     6    5    6 1    
     7    6    7 1    
     8    6    8 1    
     9    7   12 1    
    10    8    9 1    
    11    8   10 1    
    12   10   11 1    
    13   10   12 1    
    14   12   13 1    
    15   13   14 1    
    16   13   22 1    
    17   14   15 2    
    18   15   16 1    
    19   16   17 ar   
    20   16   22 ar   
    21   17   18 1    
    22   17   19 ar   
    23   19   20 ar   
    24   20   21 ar   
    25   21   22 ar   
    26   23   24 1    
    27   24   25 1    
    28   24   26 ar   
    29   24   27 ar   
@<TRIPOS>SUBSTRUCTURE
     1 NAD601      1 GROUP   
@<TRIPOS>SET
ATOM$ORANGE STATIC     ATOMS   COLORGROUP SYSTEM 
20 5 5 6 6 8 8 10 10 12 12 14 14 16 16 17 17 20 \
20 22 22 

