#    Name: 6o4k_3_NAD
#    Modification time : Fri May 22 19:31:40 2020

@<TRIPOS>MOLECULE
6o4k_3_NAD
   27    29     1     0     1
SMALL
NO_CHARGES


@<TRIPOS>ATOM
      1 PA         45.6030    7.4720   23.3960 P.3       1 NAD601      0.0000 
      2 O1A        45.7790    5.9860   23.1720 O.co2     1 NAD601      0.0000 
      3 O2A        44.9950    7.6870   24.7670 O.co2     1 NAD601      0.0000 
      4 O5B        47.0590    8.1970   23.2960 O.3       1 NAD601      0.0000 
      5 C5B        47.2990    9.3410   24.1110 C.3       1 NAD601      0.0000 
      6 C4B        48.6650    9.1700   24.8430 C.3       1 NAD601      0.0000 
      7 O4B        48.5340    8.3760   25.8760 O.3       1 NAD601      0.0000 
      8 C3B        49.7080    8.5280   23.9230 C.3       1 NAD601      0.0000 
      9 O3B        50.8430    9.2700   23.9490 O.3       1 NAD601      0.0000 
     10 C2B        49.9280    7.1180   24.5360 C.3       1 NAD601      0.0000 
     11 O2B        51.2960    6.5700   24.2790 O.3       1 NAD601      0.0000 
     12 C1B        49.7410    7.3030   25.7990 C.3       1 NAD601      0.0000 
     13 N9A        49.3330    6.0970   26.4260 N.pl3     1 NAD601      0.0000 
     14 C8A        48.8930    4.9780   25.8010 C.2       1 NAD601      0.0000 
     15 N7A        48.5960    4.0650   26.7520 N.2       1 NAD601      0.0000 
     16 C5A        48.8530    4.6170   27.9700 C.ar      1 NAD601      0.0000 
     17 C6A        48.7210    4.1210   29.2530 C.ar      1 NAD601      0.0000 
     18 N6A        48.2510    2.8100   29.5690 N.pl3     1 NAD601      0.0000 
     19 N1A        49.0390    4.8730   30.3180 N.ar      1 NAD601      0.0000 
     20 C2A        49.4990    6.1410   30.1230 C.ar      1 NAD601      0.0000 
     21 N3A        49.6340    6.6390   28.8530 N.ar      1 NAD601      0.0000 
     22 C4A        49.3080    5.8730   27.7740 C.ar      1 NAD601      0.0000 
     23 O3         44.6370    8.1110   22.2790 O.3       1 NAD601      0.0000 
     24 PN         45.1140    8.7790   20.8930 P.3       1 NAD601      0.0000 
     25 O1N        44.8530    7.7550   19.6950 O.3       1 NAD601      0.0000 
     26 O2N        46.5930    9.1340   20.9370 O.co2     1 NAD601      0.0000 
     27 O5D        44.2630   10.0210   20.6800 O.co2     1 NAD601      0.0000 
@<TRIPOS>BOND
     1    1    2 ar   
     2    1    3 ar   
     3    1    4 1    
     4    1   23 1    
     5    4    5 1    
     6    5    6 1    
     7    6    7 1    
     8    6    8 1    
     9    7   12 1    
    10    8    9 1    
    11    8   10 1    
    12   10   11 1    
    13   10   12 1    
    14   12   13 1    
    15   13   14 1    
    16   13   22 1    
    17   14   15 2    
    18   15   16 1    
    19   16   17 ar   
    20   16   22 ar   
    21   17   18 1    
    22   17   19 ar   
    23   19   20 ar   
    24   20   21 ar   
    25   21   22 ar   
    26   23   24 1    
    27   24   25 1    
    28   24   26 ar   
    29   24   27 ar   
@<TRIPOS>SUBSTRUCTURE
     1 NAD601      1 GROUP   
@<TRIPOS>SET
ATOM$ORANGE STATIC     ATOMS   COLORGROUP SYSTEM 
20 5 5 6 6 8 8 10 10 12 12 14 14 16 16 17 17 20 \
20 22 22 

