#    Name: 6o4k_1_NAD_CAVITY_N1_4
#    Modification time : Fri May 22 19:31:28 2020

@<TRIPOS>MOLECULE
6o4k_1_NAD_CAVITY_N1_4
   27     0     4     0     0
SMALL
NO_CHARGES


@<TRIPOS>ATOM
      1 O          58.8600   67.2400   36.4100 O.2       1 ALA2        0.0000 
      2 O          58.1300   67.6500   35.1600 O.2       1 ALA2        0.0000 
      3 O          57.5900   67.3400   37.1900 O.2       1 ALA2        0.0000 
      4 O          58.4300   69.0900   35.4600 O.2       1 ALA2        0.0000 
      5 O          63.1600   73.0900   34.0200 O.2       1 ALA2        0.0000 
      6 O          61.8900   73.2000   34.8000 O.2       1 ALA2        0.0000 
      7 CZ         60.1400   67.1400   35.6300 C.ar      2 PHE5        0.0000 
      8 CZ         60.9900   68.8800   33.9000 C.ar      2 PHE5        0.0000 
      9 CZ         60.4400   68.5800   35.9200 C.ar      2 PHE5        0.0000 
     10 CZ         59.7100   68.9900   34.6800 C.ar      2 PHE5        0.0000 
     11 CZ         62.5600   70.2200   33.4200 C.ar      2 PHE5        0.0000 
     12 CZ         61.8400   70.6300   32.1700 C.ar      2 PHE5        0.0000 
     13 CZ         62.0200   69.9100   35.4400 C.ar      2 PHE5        0.0000 
     14 CZ         61.2900   70.3200   34.2000 C.ar      2 PHE5        0.0000 
     15 CA         59.4100   67.5500   34.3800 C.3       3 GLY6        0.0000 
     16 CA         59.1600   68.6800   36.7100 C.3       3 GLY6        0.0000 
     17 CA         57.8900   68.7800   37.4900 C.3       3 GLY6        0.0000 
     18 CA         59.4600   70.1200   37.0000 C.3       3 GLY6        0.0000 
     19 CA         58.7300   70.5300   35.7600 C.3       3 GLY6        0.0000 
     20 CA         59.7600   71.5600   37.3000 C.3       3 GLY6        0.0000 
     21 DU         60.5600   70.7300   32.9500 H         4 CUB7        0.0000 
     22 DU         60.7400   70.0100   36.2200 H         4 CUB7        0.0000 
     23 DU         60.0100   70.4200   34.9800 H         4 CUB7        0.0000 
     24 DU         62.8600   71.6600   33.7200 H         4 CUB7        0.0000 
     25 DU         62.1400   72.0700   32.4700 H         4 CUB7        0.0000 
     26 DU         62.3200   71.3500   35.7400 H         4 CUB7        0.0000 
     27 DU         61.5900   71.7600   34.5000 H         4 CUB7        0.0000 
@<TRIPOS>BOND
@<TRIPOS>SUBSTRUCTURE
     1 ALA2        1 GROUP   
     2 PHE5        7 GROUP   
     3 GLY6       15 GROUP   
     4 CUB7       21 GROUP   
@<TRIPOS>SET

