#    Name: 6o4k_1_NAD_CAVITY_N1_12
#    Modification time : Fri May 22 19:31:28 2020

@<TRIPOS>MOLECULE
6o4k_1_NAD_CAVITY_N1_12
   78     0     5     0     0
SMALL
NO_CHARGES


@<TRIPOS>ATOM
      1 OG         63.1100   70.5200   31.3900 O.3       1 SER1        0.0000 
      2 OG         62.3900   70.9300   30.1500 O.3       1 SER1        0.0000 
      3 OG         64.8700   71.1400   34.1800 O.3       1 SER1        0.0000 
      4 OG         64.1400   71.5500   32.9400 O.3       1 SER1        0.0000 
      5 O          58.8600   67.2400   36.4100 O.2       2 ALA2        0.0000 
      6 O          58.1300   67.6500   35.1600 O.2       2 ALA2        0.0000 
      7 O          58.3100   66.9300   38.4300 O.2       2 ALA2        0.0000 
      8 O          57.5900   67.3400   37.1900 O.2       2 ALA2        0.0000 
      9 O          58.4300   69.0900   35.4600 O.2       2 ALA2        0.0000 
     10 O          58.6100   68.3700   38.7300 O.2       2 ALA2        0.0000 
     11 O          61.2200   70.7400   39.7900 O.2       2 ALA2        0.0000 
     12 O          63.7100   73.4000   31.9900 O.2       2 ALA2        0.0000 
     13 N          63.8900   72.6800   35.2600 N.am      2 ALA2        0.0000 
     14 O          63.1600   73.0900   34.0200 O.2       2 ALA2        0.0000 
     15 N          63.3400   72.3800   37.2900 N.am      2 ALA2        0.0000 
     16 N          62.6200   72.7900   36.0400 N.am      2 ALA2        0.0000 
     17 O          61.8900   73.2000   34.8000 O.2       2 ALA2        0.0000 
     18 N          61.3400   72.8900   36.8200 N.am      2 ALA2        0.0000 
     19 N          60.2400   72.2800   40.8700 N.am      2 ALA2        0.0000 
     20 N          62.3700   73.9200   38.3700 N.am      2 ALA2        0.0000 
     21 N          61.6400   74.3300   37.1200 N.am      2 ALA2        0.0000 
     22 CZ         59.2900   65.3900   37.3500 C.ar      3 PHE5        0.0000 
     23 CZ         60.8700   66.7300   36.8700 C.ar      3 PHE5        0.0000 
     24 CZ         60.1400   67.1400   35.6300 C.ar      3 PHE5        0.0000 
     25 CZ         59.5900   66.8300   37.6500 C.ar      3 PHE5        0.0000 
     26 CZ         60.9900   68.8800   33.9000 C.ar      3 PHE5        0.0000 
     27 CZ         61.1700   68.1600   37.1700 C.ar      3 PHE5        0.0000 
     28 CZ         60.4400   68.5800   35.9200 C.ar      3 PHE5        0.0000 
     29 CZ         59.7100   68.9900   34.6800 C.ar      3 PHE5        0.0000 
     30 CZ         59.8900   68.2700   37.9500 C.ar      3 PHE5        0.0000 
     31 CZ         64.5700   69.7000   33.8800 C.ar      3 PHE5        0.0000 
     32 CZ         63.8400   70.1100   32.6400 C.ar      3 PHE5        0.0000 
     33 CZ         64.0200   69.4000   35.9100 C.ar      3 PHE5        0.0000 
     34 CZ         63.2900   69.8100   34.6600 C.ar      3 PHE5        0.0000 
     35 CZ         62.5600   70.2200   33.4200 C.ar      3 PHE5        0.0000 
     36 CZ         61.8400   70.6300   32.1700 C.ar      3 PHE5        0.0000 
     37 CZ         62.7400   69.5000   36.6900 C.ar      3 PHE5        0.0000 
     38 CZ         62.0200   69.9100   35.4400 C.ar      3 PHE5        0.0000 
     39 CZ         61.2900   70.3200   34.2000 C.ar      3 PHE5        0.0000 
     40 CZ         61.4700   69.6000   37.4700 C.ar      3 PHE5        0.0000 
     41 CZ         60.9200   69.3000   39.5000 C.ar      3 PHE5        0.0000 
     42 CZ         60.1900   69.7100   38.2500 C.ar      3 PHE5        0.0000 
     43 CA         59.8400   65.7000   35.3300 C.3       4 GLY6        0.0000 
     44 CA         58.5600   65.8000   36.1100 C.3       4 GLY6        0.0000 
     45 CA         59.4100   67.5500   34.3800 C.3       4 GLY6        0.0000 
     46 CA         59.1600   68.6800   36.7100 C.3       4 GLY6        0.0000 
     47 CA         57.8900   68.7800   37.4900 C.3       4 GLY6        0.0000 
     48 CA         59.4600   70.1200   37.0000 C.3       4 GLY6        0.0000 
     49 CA         58.7300   70.5300   35.7600 C.3       4 GLY6        0.0000 
     50 CA         58.9100   69.8100   39.0300 C.3       4 GLY6        0.0000 
     51 CA         65.6000   70.7300   35.4300 C.3       4 GLY6        0.0000 
     52 CA         63.4100   71.9600   31.6900 C.3       4 GLY6        0.0000 
     53 CA         65.0500   70.4200   37.4500 C.3       4 GLY6        0.0000 
     54 CA         64.3200   70.8300   36.2100 C.3       4 GLY6        0.0000 
     55 CA         63.7700   70.5300   38.2300 C.3       4 GLY6        0.0000 
     56 CA         62.5000   70.6300   39.0100 C.3       4 GLY6        0.0000 
     57 CA         59.7600   71.5600   37.3000 C.3       4 GLY6        0.0000 
     58 CA         59.2100   71.2500   39.3300 C.3       4 GLY6        0.0000 
     59 CA         65.3500   71.8600   37.7500 C.3       4 GLY6        0.0000 
     60 CA         64.6200   72.2700   36.5100 C.3       4 GLY6        0.0000 
     61 CA         64.0700   71.9700   38.5300 C.3       4 GLY6        0.0000 
     62 CA         62.8000   72.0700   39.3100 C.3       4 GLY6        0.0000 
     63 CA         63.1000   73.5100   39.6100 C.3       4 GLY6        0.0000 
     64 CA         61.8200   73.6100   40.3900 C.3       4 GLY6        0.0000 
     65 DU         60.5600   70.7300   32.9500 H         5 CUB7        0.0000 
     66 DU         60.7400   70.0100   36.2200 H         5 CUB7        0.0000 
     67 DU         60.0100   70.4200   34.9800 H         5 CUB7        0.0000 
     68 DU         63.5900   71.2400   34.9600 H         5 CUB7        0.0000 
     69 DU         62.8600   71.6600   33.7200 H         5 CUB7        0.0000 
     70 DU         62.1400   72.0700   32.4700 H         5 CUB7        0.0000 
     71 DU         63.0400   70.9400   36.9900 H         5 CUB7        0.0000 
     72 DU         62.3200   71.3500   35.7400 H         5 CUB7        0.0000 
     73 DU         61.5900   71.7600   34.5000 H         5 CUB7        0.0000 
     74 DU         61.7700   71.0400   37.7700 H         5 CUB7        0.0000 
     75 DU         60.4900   71.1500   38.5500 H         5 CUB7        0.0000 
     76 DU         62.0700   72.4800   38.0700 H         5 CUB7        0.0000 
     77 DU         61.5200   72.1700   40.0900 H         5 CUB7        0.0000 
     78 DU         60.7900   72.5900   38.8500 H         5 CUB7        0.0000 
@<TRIPOS>BOND
@<TRIPOS>SUBSTRUCTURE
     1 SER1        1 GROUP   
     2 ALA2        5 GROUP   
     3 PHE5       22 GROUP   
     4 GLY6       43 GROUP   
     5 CUB7       65 GROUP   
@<TRIPOS>SET

