#    Name: 6o4k_2_NAD
#    Modification time : Fri May 22 19:31:33 2020

@<TRIPOS>MOLECULE
6o4k_2_NAD
   27    29     1     0     1
SMALL
NO_CHARGES


@<TRIPOS>ATOM
      1 PA         21.1510   70.3360   42.8450 P.3       1 NAD602      0.0000 
      2 O1A        19.9930   69.4480   42.4170 O.co2     1 NAD602      0.0000 
      3 O2A        22.2610   70.2060   41.8240 O.co2     1 NAD602      0.0000 
      4 O5B        21.6490   69.9060   44.3310 O.3       1 NAD602      0.0000 
      5 C5B        21.7960   68.5390   44.7090 C.3       1 NAD602      0.0000 
      6 C4B        22.7590   68.4580   45.9400 C.3       1 NAD602      0.0000 
      7 O4B        23.8230   69.2180   45.7770 O.3       1 NAD602      0.0000 
      8 C3B        22.0440   69.0010   47.1800 C.3       1 NAD602      0.0000 
      9 O3B        22.4440   68.3150   48.2820 O.3       1 NAD602      0.0000 
     10 C2B        22.5130   70.4780   47.2170 C.3       1 NAD602      0.0000 
     11 O2B        22.2690   71.1050   48.5520 O.3       1 NAD602      0.0000 
     12 C1B        23.7730   70.3790   46.9050 C.3       1 NAD602      0.0000 
     13 N9A        24.2830   71.5960   46.3770 N.pl3     1 NAD602      0.0000 
     14 C8A        23.5830   72.5940   45.7950 C.2       1 NAD602      0.0000 
     15 N7A        24.4610   73.5700   45.4470 N.2       1 NAD602      0.0000 
     16 C5A        25.7070   73.1820   45.8160 C.ar      1 NAD602      0.0000 
     17 C6A        26.9500   73.7900   45.6920 C.ar      1 NAD602      0.0000 
     18 N6A        27.2080   75.0720   45.0990 N.pl3     1 NAD602      0.0000 
     19 N1A        28.0450   73.1650   46.1470 N.ar      1 NAD602      0.0000 
     20 C2A        27.9370   71.9330   46.7240 C.ar      1 NAD602      0.0000 
     21 N3A        26.7170   71.3330   46.8470 N.ar      1 NAD602      0.0000 
     22 C4A        25.6010   71.9610   46.3870 C.ar      1 NAD602      0.0000 
     23 O3         20.6670   71.8720   42.9160 O.3       1 NAD602      0.0000 
     24 PN         19.7420   72.5000   44.0770 P.3       1 NAD602      0.0000 
     25 O1N        18.6700   73.4730   43.4060 O.3       1 NAD602      0.0000 
     26 O2N        18.9940   71.4260   44.8480 O.co2     1 NAD602      0.0000 
     27 O5D        20.6400   73.2730   45.0240 O.co2     1 NAD602      0.0000 
@<TRIPOS>BOND
     1    1    2 ar   
     2    1    3 ar   
     3    1    4 1    
     4    1   23 1    
     5    4    5 1    
     6    5    6 1    
     7    6    7 1    
     8    6    8 1    
     9    7   12 1    
    10    8    9 1    
    11    8   10 1    
    12   10   11 1    
    13   10   12 1    
    14   12   13 1    
    15   13   14 1    
    16   13   22 1    
    17   14   15 2    
    18   15   16 1    
    19   16   17 ar   
    20   16   22 ar   
    21   17   18 1    
    22   17   19 ar   
    23   19   20 ar   
    24   20   21 ar   
    25   21   22 ar   
    26   23   24 1    
    27   24   25 1    
    28   24   26 ar   
    29   24   27 ar   
@<TRIPOS>SUBSTRUCTURE
     1 NAD602      1 GROUP   
@<TRIPOS>SET
ATOM$ORANGE STATIC     ATOMS   COLORGROUP SYSTEM 
20 5 5 6 6 8 8 10 10 12 12 14 14 16 16 17 17 20 \
20 22 22 

