#    Name: 6o4k_5_NAD
#    Modification time : Fri May 22 19:31:52 2020

@<TRIPOS>MOLECULE
6o4k_5_NAD
   27    29     1     0     1
SMALL
NO_CHARGES


@<TRIPOS>ATOM
      1 PA         22.8530   86.1250   32.0650 P.3       1 NAD601      0.0000 
      2 O1A        21.4690   86.6220   32.4950 O.co2     1 NAD601      0.0000 
      3 O2A        23.8990   86.4630   33.1060 O.co2     1 NAD601      0.0000 
      4 O5B        23.2230   86.8210   30.6540 O.3       1 NAD601      0.0000 
      5 C5B        23.5080   88.2040   30.5150 C.3       1 NAD601      0.0000 
      6 C4B        24.3860   88.2590   29.2270 C.3       1 NAD601      0.0000 
      7 O4B        25.4180   87.4650   29.3670 O.3       1 NAD601      0.0000 
      8 C3B        23.6050   87.7160   28.0280 C.3       1 NAD601      0.0000 
      9 O3B        23.9400   88.4610   26.9540 O.3       1 NAD601      0.0000 
     10 C2B        24.1010   86.2500   27.8820 C.3       1 NAD601      0.0000 
     11 O2B        23.8780   85.6710   26.5150 O.3       1 NAD601      0.0000 
     12 C1B        25.3510   86.3750   28.1750 C.3       1 NAD601      0.0000 
     13 N9A        25.9230   85.1660   28.6440 N.pl3     1 NAD601      0.0000 
     14 C8A        25.3010   84.0850   29.1820 C.2       1 NAD601      0.0000 
     15 N7A        26.2610   83.1730   29.4790 N.2       1 NAD601      0.0000 
     16 C5A        27.4750   83.6970   29.1300 C.ar      1 NAD601      0.0000 
     17 C6A        28.7650   83.2100   29.2220 C.ar      1 NAD601      0.0000 
     18 N6A        29.1590   81.9380   29.7420 N.pl3     1 NAD601      0.0000 
     19 N1A        29.7830   83.9620   28.7990 N.ar      1 NAD601      0.0000 
     20 C2A        29.5600   85.2100   28.2850 C.ar      1 NAD601      0.0000 
     21 N3A        28.3070   85.7080   28.1780 N.ar      1 NAD601      0.0000 
     22 C4A        27.2650   84.9330   28.6100 C.ar      1 NAD601      0.0000 
     23 O3         22.8310   84.5300   31.8270 O.3       1 NAD601      0.0000 
     24 PN         21.6770   83.7180   31.0330 P.3       1 NAD601      0.0000 
     25 O1N        21.8710   83.9410   29.5370 O.3       1 NAD601      0.0000 
     26 O2N        21.8290   82.2410   31.3570 O.co2     1 NAD601      0.0000 
     27 O5D        20.2100   84.1910   31.4690 O.co2     1 NAD601      0.0000 
@<TRIPOS>BOND
     1    1    2 ar   
     2    1    3 ar   
     3    1    4 1    
     4    1   23 1    
     5    4    5 1    
     6    5    6 1    
     7    6    7 1    
     8    6    8 1    
     9    7   12 1    
    10    8    9 1    
    11    8   10 1    
    12   10   11 1    
    13   10   12 1    
    14   12   13 1    
    15   13   14 1    
    16   13   22 1    
    17   14   15 2    
    18   15   16 1    
    19   16   17 ar   
    20   16   22 ar   
    21   17   18 1    
    22   17   19 ar   
    23   19   20 ar   
    24   20   21 ar   
    25   21   22 ar   
    26   23   24 1    
    27   24   25 1    
    28   24   26 ar   
    29   24   27 ar   
@<TRIPOS>SUBSTRUCTURE
     1 NAD601      1 GROUP   
@<TRIPOS>SET
ATOM$ORANGE STATIC     ATOMS   COLORGROUP SYSTEM 
20 5 5 6 6 8 8 10 10 12 12 14 14 16 16 17 17 20 \
20 22 22 

