#    Name: 6o4k_1_NAD
#    Modification time : Fri May 22 19:31:27 2020

@<TRIPOS>MOLECULE
6o4k_1_NAD
   27    29     1     0     1
SMALL
NO_CHARGES


@<TRIPOS>ATOM
      1 PA         56.9610   70.3340   33.5630 P.3       1 NAD602      0.0000 
      2 O1A        58.2500   69.7850   34.1730 O.co2     1 NAD602      0.0000 
      3 O2A        55.7700   70.0030   34.4450 O.co2     1 NAD602      0.0000 
      4 O5B        56.7620   69.6320   32.1070 O.3       1 NAD602      0.0000 
      5 C5B        56.2980   68.2850   31.9990 C.3       1 NAD602      0.0000 
      6 C4B        55.5310   68.2620   30.6650 C.3       1 NAD602      0.0000 
      7 O4B        54.5530   69.1220   30.7470 O.3       1 NAD602      0.0000 
      8 C3B        56.4300   68.7410   29.5200 C.3       1 NAD602      0.0000 
      9 O3B        56.2810   67.8960   28.4640 O.3       1 NAD602      0.0000 
     10 C2B        55.8710   70.1510   29.1880 C.3       1 NAD602      0.0000 
     11 O2B        56.1560   70.5480   27.7690 O.3       1 NAD602      0.0000 
     12 C1B        54.6030   70.0310   29.4270 C.3       1 NAD602      0.0000 
     13 N9A        53.9900   71.2640   29.7680 N.pl3     1 NAD602      0.0000 
     14 C8A        54.6120   72.3730   30.2400 C.2       1 NAD602      0.0000 
     15 N7A        53.6700   73.3190   30.4480 N.2       1 NAD602      0.0000 
     16 C5A        52.4580   72.7960   30.1040 C.ar      1 NAD602      0.0000 
     17 C6A        51.1910   73.3440   30.1190 C.ar      1 NAD602      0.0000 
     18 N6A        50.8900   74.6730   30.5420 N.pl3     1 NAD602      0.0000 
     19 N1A        50.1350   72.6150   29.7350 N.ar      1 NAD602      0.0000 
     20 C2A        50.3400   71.3220   29.3190 C.ar      1 NAD602      0.0000 
     21 N3A        51.5870   70.7620   29.2800 N.ar      1 NAD602      0.0000 
     22 C4A        52.6520   71.5220   29.6800 C.ar      1 NAD602      0.0000 
     23 O3         57.0830   71.9270   33.3730 O.3       1 NAD602      0.0000 
     24 PN         58.1800   72.7100   32.4820 P.3       1 NAD602      0.0000 
     25 O1N        58.1670   72.1640   30.9800 O.3       1 NAD602      0.0000 
     26 O2N        57.8060   74.1850   32.4790 O.co2     1 NAD602      0.0000 
     27 O5D        59.5720   72.5080   33.0760 O.co2     1 NAD602      0.0000 
@<TRIPOS>BOND
     1    1    2 ar   
     2    1    3 ar   
     3    1    4 1    
     4    1   23 1    
     5    4    5 1    
     6    5    6 1    
     7    6    7 1    
     8    6    8 1    
     9    7   12 1    
    10    8    9 1    
    11    8   10 1    
    12   10   11 1    
    13   10   12 1    
    14   12   13 1    
    15   13   14 1    
    16   13   22 1    
    17   14   15 2    
    18   15   16 1    
    19   16   17 ar   
    20   16   22 ar   
    21   17   18 1    
    22   17   19 ar   
    23   19   20 ar   
    24   20   21 ar   
    25   21   22 ar   
    26   23   24 1    
    27   24   25 1    
    28   24   26 ar   
    29   24   27 ar   
@<TRIPOS>SUBSTRUCTURE
     1 NAD602      1 GROUP   
@<TRIPOS>SET
ATOM$ORANGE STATIC     ATOMS   COLORGROUP SYSTEM 
20 5 5 6 6 8 8 10 10 12 12 14 14 16 16 17 17 20 \
20 22 22 

