#    Name: 6l5p_1_UPG
#    Modification time : Fri May 22 19:32:37 2020

@<TRIPOS>MOLECULE
6l5p_1_UPG
   36    38     1     0     0
SMALL
NO_CHARGES


@<TRIPOS>ATOM
      1 N1        -17.9130  -16.6040  -21.1760 N.am      1 UPG501      0.0000 
      2 C2        -16.9090  -16.5920  -22.1270 C.2       1 UPG501      0.0000 
      3 N3        -17.1830  -15.8460  -23.2450 N.am      1 UPG501      0.0000 
      4 C4        -18.3310  -15.1220  -23.5020 C.2       1 UPG501      0.0000 
      5 C5        -19.3230  -15.1830  -22.4670 C.2       1 UPG501      0.0000 
      6 C6        -19.0830  -15.9070  -21.3630 C.2       1 UPG501      0.0000 
      7 O2        -15.8570  -17.2040  -21.9900 O.2       1 UPG501      0.0000 
      8 O4        -18.4280  -14.4970  -24.5580 O.2       1 UPG501      0.0000 
      9 C1C       -17.6760  -17.3950  -19.9530 C.3       1 UPG501      0.0000 
     10 C2C       -17.2730  -16.5610  -18.7390 C.3       1 UPG501      0.0000 
     11 O2C       -15.9100  -16.1950  -18.7780 O.3       1 UPG501      0.0000 
     12 C3C       -17.6380  -17.5560  -17.6350 C.3       1 UPG501      0.0000 
     13 C4C       -19.0030  -18.0440  -18.1400 C.3       1 UPG501      0.0000 
     14 O4C       -18.8670  -18.0600  -19.5870 O.3       1 UPG501      0.0000 
     15 O3C       -16.7040  -18.6270  -17.6250 O.3       1 UPG501      0.0000 
     16 C5C       -20.1780  -17.1770  -17.7640 C.3       1 UPG501      0.0000 
     17 O5C       -20.4240  -17.3080  -16.3430 O.3       1 UPG501      0.0000 
     18 PA        -21.1340  -16.1020  -15.5600 P.3       1 UPG501      0.0000 
     19 O1A       -20.2860  -14.8790  -15.6700 O.co2     1 UPG501      0.0000 
     20 O2A       -21.5190  -16.5660  -14.1940 O.co2     1 UPG501      0.0000 
     21 O3A       -22.4680  -15.8770  -16.4240 O.3       1 UPG501      0.0000 
     22 PB        -23.8190  -16.7240  -16.5880 P.3       1 UPG501      0.0000 
     23 O1B       -23.5120  -18.0140  -17.2740 O.co2     1 UPG501      0.0000 
     24 O2B       -24.8840  -15.8480  -17.1600 O.co2     1 UPG501      0.0000 
     25 O3B       -24.1430  -17.0160  -15.0450 O.3       1 UPG501      0.0000 
     26 C1'       -25.2830  -17.6890  -14.5830 C.3       1 UPG501      0.0000 
     27 C2'       -26.2500  -16.6570  -14.0200 C.3       1 UPG501      0.0000 
     28 C3'       -25.6260  -15.9590  -12.8230 C.3       1 UPG501      0.0000 
     29 C4'       -25.1380  -16.9780  -11.8070 C.3       1 UPG501      0.0000 
     30 C5'       -24.2110  -17.9840  -12.4780 C.3       1 UPG501      0.0000 
     31 C6'       -23.7650  -19.0890  -11.5510 C.3       1 UPG501      0.0000 
     32 O2'       -26.6160  -15.7220  -15.0310 O.3       1 UPG501      0.0000 
     33 O3'       -26.5760  -15.0770  -12.2260 O.3       1 UPG501      0.0000 
     34 O4'       -24.4400  -16.3260  -10.7500 O.3       1 UPG501      0.0000 
     35 O5'       -24.9070  -18.6090  -13.5730 O.3       1 UPG501      0.0000 
     36 O6'       -24.8760  -19.8380  -11.0650 O.3       1 UPG501      0.0000 
@<TRIPOS>BOND
     1    1    2 1    
     2    1    6 1    
     3    1    9 1    
     4    2    3 1    
     5    2    7 2    
     6    3    4 1    
     7    4    5 1    
     8    4    8 2    
     9    5    6 2    
    10    9   10 1    
    11    9   14 1    
    12   10   11 1    
    13   10   12 1    
    14   12   13 1    
    15   12   15 1    
    16   13   14 1    
    17   13   16 1    
    18   16   17 1    
    19   17   18 1    
    20   18   19 ar   
    21   18   20 ar   
    22   18   21 1    
    23   21   22 1    
    24   22   23 ar   
    25   22   24 ar   
    26   22   25 1    
    27   25   26 1    
    28   26   27 1    
    29   26   35 1    
    30   27   28 1    
    31   27   32 1    
    32   28   29 1    
    33   28   33 1    
    34   29   30 1    
    35   29   34 1    
    36   30   31 1    
    37   30   35 1    
    38   31   36 1    
@<TRIPOS>SUBSTRUCTURE
     1 UPG501      1 GROUP   
@<TRIPOS>SET

