#    Name: 6g2j_3_NDP
#    Modification time : Fri May 22 19:32:12 2020

@<TRIPOS>MOLECULE
6g2j_3_NDP
   48    52     1     0     1
SMALL
NO_CHARGES


@<TRIPOS>ATOM
      1 PA        249.5280  264.5820  291.5630 P.3       1 NDP501      0.0000 
      2 O1A       248.4640  265.4610  291.0100 O.co2     1 NDP501      0.0000 
      3 O2A       249.5740  263.1510  291.1190 O.co2     1 NDP501      0.0000 
      4 O5B       249.4700  264.8080  293.2170 O.3       1 NDP501      0.0000 
      5 C5B       250.2680  263.8390  293.8300 C.3       1 NDP501      0.0000 
      6 C4B       249.7740  263.6290  295.2420 C.3       1 NDP501      0.0000 
      7 O4B       249.9430  264.7720  296.0160 O.3       1 NDP501      0.0000 
      8 C3B       248.2820  263.3330  295.1460 C.3       1 NDP501      0.0000 
      9 O3B       248.0580  262.0030  295.3570 O.3       1 NDP501      0.0000 
     10 C2B       247.6820  264.1250  296.3220 C.3       1 NDP501      0.0000 
     11 O2B       246.9660  263.3860  297.1510 O.3       1 NDP501      0.0000 
     12 C1B       248.9730  264.6420  297.0300 C.3       1 NDP501      0.0000 
     13 N9A       248.7560  265.9500  297.6040 N.pl3     1 NDP501      0.0000 
     14 C8A       248.8120  267.1770  296.9540 C.2       1 NDP501      0.0000 
     15 N7A       248.5560  268.2180  297.7560 N.2       1 NDP501      0.0000 
     16 C5A       248.3150  267.6240  298.9960 C.ar      1 NDP501      0.0000 
     17 C6A       247.9930  268.1660  300.2380 C.ar      1 NDP501      0.0000 
     18 N6A       247.8690  269.5180  300.3730 N.pl3     1 NDP501      0.0000 
     19 N1A       247.7980  267.3920  301.3350 N.ar      1 NDP501      0.0000 
     20 C2A       247.9430  266.0530  301.1140 C.ar      1 NDP501      0.0000 
     21 N3A       248.2470  265.3750  299.9940 N.ar      1 NDP501      0.0000 
     22 C4A       248.4340  266.2090  298.9200 C.ar      1 NDP501      0.0000 
     23 O3        250.8150  265.3730  290.9270 O.3       1 NDP501      0.0000 
     24 PN        252.0820  264.4260  290.7410 P.3       1 NDP501      0.0000 
     25 O1N       252.0770  263.2480  291.6290 O.co2     1 NDP501      0.0000 
     26 O2N       252.6070  264.3970  289.3230 O.co2     1 NDP501      0.0000 
     27 O5D       253.3270  265.3410  291.5240 O.3       1 NDP501      0.0000 
     28 C5D       254.4320  264.5710  291.6010 C.3       1 NDP501      0.0000 
     29 C4D       255.6640  265.4490  291.7740 C.3       1 NDP501      0.0000 
     30 O4D       256.2710  265.5770  290.4840 O.3       1 NDP501      0.0000 
     31 C3D       255.3140  266.9010  292.2430 C.3       1 NDP501      0.0000 
     32 O3D       256.4200  267.4190  292.8860 O.3       1 NDP501      0.0000 
     33 C2D       255.0950  267.5840  290.9200 C.3       1 NDP501      0.0000 
     34 O2D       255.2900  268.9460  290.9530 O.3       1 NDP501      0.0000 
     35 C1D       256.2640  266.9330  290.1110 C.3       1 NDP501      0.0000 
     36 N1N       256.0680  267.0330  288.6540 N.pl3     1 NDP501      0.0000 
     37 C2N       254.9350  266.5610  288.0420 C.2       1 NDP501      0.0000 
     38 C3N       254.8360  266.5360  286.6980 C.2       1 NDP501      0.0000 
     39 C7N       253.6050  266.0350  286.1400 C.2       1 NDP501      0.0000 
     40 O7N       252.9730  266.6010  285.2430 O.2       1 NDP501      0.0000 
     41 N7N       253.1220  264.8460  286.6410 N.am      1 NDP501      0.0000 
     42 C4N       255.9170  266.9830  285.8210 C.3       1 NDP501      0.0000 
     43 C5N       257.0150  267.6170  286.5640 C.2       1 NDP501      0.0000 
     44 C6N       257.0610  267.6250  287.8890 C.2       1 NDP501      0.0000 
     45 P2B       245.2600  263.2250  296.5400 P.3       1 NDP501      0.0000 
     46 O1X       245.5360  262.1410  295.5460 O.co2     1 NDP501      0.0000 
     47 O2X       244.9290  264.6170  295.9940 O.co2     1 NDP501      0.0000 
     48 O3X       244.6230  262.8270  297.8370 O.co2     1 NDP501      0.0000 
@<TRIPOS>BOND
     1    1    2 ar   
     2    1    3 ar   
     3    1    4 1    
     4    1   23 1    
     5    4    5 1    
     6    5    6 1    
     7    6    7 1    
     8    6    8 1    
     9    7   12 1    
    10    8    9 1    
    11    8   10 1    
    12   10   11 1    
    13   10   12 1    
    14   11   45 1    
    15   12   13 1    
    16   13   14 1    
    17   13   22 1    
    18   14   15 2    
    19   15   16 1    
    20   16   17 ar   
    21   16   22 ar   
    22   17   18 1    
    23   17   19 ar   
    24   19   20 ar   
    25   20   21 ar   
    26   21   22 ar   
    27   23   24 1    
    28   24   25 ar   
    29   24   26 ar   
    30   24   27 1    
    31   27   28 1    
    32   28   29 1    
    33   29   30 1    
    34   29   31 1    
    35   30   35 1    
    36   31   32 1    
    37   31   33 1    
    38   33   34 1    
    39   33   35 1    
    40   35   36 1    
    41   36   37 1    
    42   36   44 1    
    43   37   38 2    
    44   38   39 1    
    45   38   42 1    
    46   39   40 2    
    47   39   41 am   
    48   42   43 1    
    49   43   44 2    
    50   45   46 ar   
    51   45   47 ar   
    52   45   48 ar   
@<TRIPOS>SUBSTRUCTURE
     1 NDP501      1 GROUP   
@<TRIPOS>SET
ATOM$ORANGE STATIC     ATOMS   COLORGROUP SYSTEM 
42 5 5 6 6 8 8 10 10 12 12 14 14 16 16 17 17 20 \
20 22 22 28 28 29 29 31 31 33 33 35 35 37 37 38 38 39 \
39 42 42 43 43 44 44 

