#    Name: 6g2j_1_FMN
#    Modification time : Fri May 22 19:31:56 2020

@<TRIPOS>MOLECULE
6g2j_1_FMN
   31    33     1     0     1
SMALL
NO_CHARGES


@<TRIPOS>ATOM
      1 N1        267.5140  170.6310  334.6570 N.2       1 FMN501      0.0000 
      2 C2        267.9160  170.3530  335.9450 C.2       1 FMN501      0.0000 
      3 O2        268.4610  169.2810  336.1900 O.2       1 FMN501      0.0000 
      4 N3        267.7180  171.2680  336.9530 N.am      1 FMN501      0.0000 
      5 C4        267.1100  172.4640  336.6570 C.2       1 FMN501      0.0000 
      6 O4        266.9160  173.3060  337.5300 O.2       1 FMN501      0.0000 
      7 C4A       266.7040  172.7400  335.3690 C.2       1 FMN501      0.0000 
      8 N5        266.1040  173.9430  335.1280 N.2       1 FMN501      0.0000 
      9 C5A       265.6900  174.2440  333.8610 C.ar      1 FMN501      0.0000 
     10 C6        265.0830  175.4700  333.6640 C.ar      1 FMN501      0.0000 
     11 C7        264.6470  175.8310  332.4090 C.ar      1 FMN501      0.0000 
     12 C7M       264.0060  177.1760  332.2610 C.3       1 FMN501      0.0000 
     13 C8        264.8210  174.9500  331.3540 C.ar      1 FMN501      0.0000 
     14 C8M       264.3750  175.2590  329.9630 C.3       1 FMN501      0.0000 
     15 C9        265.4270  173.7280  331.5610 C.ar      1 FMN501      0.0000 
     16 C9A       265.8710  173.3440  332.8180 C.ar      1 FMN501      0.0000 
     17 N10       266.4910  172.1170  333.0560 N.pl3     1 FMN501      0.0000 
     18 C10       266.8980  171.8260  334.3490 C.2       1 FMN501      0.0000 
     19 C1'       266.7260  171.0600  331.9960 C.3       1 FMN501      0.0000 
     20 C2'       268.1830  170.9550  331.5840 C.3       1 FMN501      0.0000 
     21 O2'       268.2980  171.2760  330.2210 O.3       1 FMN501      0.0000 
     22 C3'       268.6650  169.5360  331.8480 C.3       1 FMN501      0.0000 
     23 O3'       268.7090  169.3660  333.2450 O.3       1 FMN501      0.0000 
     24 C4'       270.0310  169.2350  331.2620 C.3       1 FMN501      0.0000 
     25 O4'       269.9840  169.4440  329.8740 O.3       1 FMN501      0.0000 
     26 C5'       270.4140  167.7830  331.5280 C.3       1 FMN501      0.0000 
     27 O5'       270.2140  167.0110  330.3740 O.3       1 FMN501      0.0000 
     28 P         270.1170  165.4200  330.5420 P.3       1 FMN501      0.0000 
     29 O1P       268.6650  165.0670  330.7430 O.co2     1 FMN501      0.0000 
     30 O2P       270.6680  164.7400  329.3150 O.co2     1 FMN501      0.0000 
     31 O3P       270.9130  164.9980  331.7500 O.co2     1 FMN501      0.0000 
@<TRIPOS>BOND
     1    1    2 1    
     2    1   18 2    
     3    2    3 2    
     4    2    4 am   
     5    4    5 am   
     6    5    6 2    
     7    5    7 1    
     8    7    8 2    
     9    7   18 1    
    10    8    9 1    
    11    9   10 ar   
    12    9   16 ar   
    13   10   11 ar   
    14   11   12 1    
    15   11   13 ar   
    16   13   14 1    
    17   13   15 ar   
    18   15   16 ar   
    19   16   17 1    
    20   17   18 1    
    21   17   19 1    
    22   19   20 1    
    23   20   21 1    
    24   20   22 1    
    25   22   23 1    
    26   22   24 1    
    27   24   25 1    
    28   24   26 1    
    29   26   27 1    
    30   27   28 1    
    31   28   29 ar   
    32   28   30 ar   
    33   28   31 ar   
@<TRIPOS>SUBSTRUCTURE
     1 FMN501      1 GROUP   
@<TRIPOS>SET
ATOM$ORANGE STATIC     ATOMS   COLORGROUP SYSTEM 
34 2 2 5 5 7 7 9 9 10 10 11 11 12 12 13 13 14 \
14 15 15 16 16 18 18 19 19 20 20 22 22 24 24 26 26 

