#    Name: 6g2j_2_ADP
#    Modification time : Fri May 22 19:32:03 2020

@<TRIPOS>MOLECULE
6g2j_2_ADP
   27    29     1     0     1
SMALL
NO_CHARGES


@<TRIPOS>ATOM
      1 PB        234.8160  198.6290  224.7800 P.3       1 ADP401      0.0000 
      2 O1B       235.2430  199.2370  223.4680 O.co2     1 ADP401      0.0000 
      3 O2B       233.5780  197.7720  224.6910 O.co2     1 ADP401      0.0000 
      4 O3B       234.8260  199.5890  225.9420 O.co2     1 ADP401      0.0000 
      5 PA        237.4220  198.0530  225.6800 P.3       1 ADP401      0.0000 
      6 O1A       238.3260  196.8470  225.6550 O.co2     1 ADP401      0.0000 
      7 O2A       237.2380  198.8120  226.9680 O.co2     1 ADP401      0.0000 
      8 O3A       235.9860  197.5820  225.1300 O.3       1 ADP401      0.0000 
      9 O5'       237.9700  199.0660  224.5590 O.3       1 ADP401      0.0000 
     10 C5'       237.8100  200.4820  224.6400 C.3       1 ADP401      0.0000 
     11 C4'       238.4230  201.0790  223.3790 C.3       1 ADP401      0.0000 
     12 O4'       238.1850  202.4820  223.2240 O.3       1 ADP401      0.0000 
     13 C3'       239.9300  200.8970  223.3880 C.3       1 ADP401      0.0000 
     14 O3'       240.3430  200.0670  222.3010 O.3       1 ADP401      0.0000 
     15 C2'       240.4790  202.2920  223.2300 C.3       1 ADP401      0.0000 
     16 O2'       241.6670  202.3370  222.4410 O.3       1 ADP401      0.0000 
     17 C1'       239.3330  203.0100  222.5560 C.3       1 ADP401      0.0000 
     18 N9        239.4480  204.4950  222.6030 N.pl3     1 ADP401      0.0000 
     19 C8        238.4220  205.3680  222.6030 C.2       1 ADP401      0.0000 
     20 N7        238.8760  206.6480  222.6120 N.2       1 ADP401      0.0000 
     21 C5        240.2180  206.6070  222.5980 C.ar      1 ADP401      0.0000 
     22 C6        241.3290  207.5870  222.5970 C.ar      1 ADP401      0.0000 
     23 N6        241.1110  208.9120  222.6110 N.pl3     1 ADP401      0.0000 
     24 N1        242.5930  207.1270  222.5800 N.ar      1 ADP401      0.0000 
     25 C2        242.8640  205.8160  222.5670 C.ar      1 ADP401      0.0000 
     26 N3        241.9090  204.8750  222.5630 N.ar      1 ADP401      0.0000 
     27 C4        240.5910  205.1890  222.5770 C.ar      1 ADP401      0.0000 
@<TRIPOS>BOND
     1    1    2 ar   
     2    1    3 ar   
     3    1    4 ar   
     4    1    8 1    
     5    5    6 ar   
     6    5    7 ar   
     7    5    8 1    
     8    5    9 1    
     9    9   10 1    
    10   10   11 1    
    11   11   12 1    
    12   11   13 1    
    13   12   17 1    
    14   13   14 1    
    15   13   15 1    
    16   15   16 1    
    17   15   17 1    
    18   17   18 1    
    19   18   19 1    
    20   18   27 1    
    21   19   20 2    
    22   20   21 1    
    23   21   22 ar   
    24   21   27 ar   
    25   22   23 1    
    26   22   24 ar   
    27   24   25 ar   
    28   25   26 ar   
    29   26   27 ar   
@<TRIPOS>SUBSTRUCTURE
     1 ADP401      1 GROUP   
@<TRIPOS>SET
ATOM$ORANGE STATIC     ATOMS   COLORGROUP SYSTEM 
20 10 10 11 11 13 13 15 15 17 17 19 19 21 21 22 22 25 \
25 27 27 

