#    Name: 6g2j_2_ADP_CAVITY_N1_4
#    Modification time : Fri May 22 19:32:04 2020

@<TRIPOS>MOLECULE
6g2j_2_ADP_CAVITY_N1_4
   60     0     5     0     0
SMALL
NO_CHARGES


@<TRIPOS>ATOM
      1 O         233.1200  197.3800  223.7300 O.2       1 ALA2        0.0000 
      2 O         235.1800  197.2000  223.2500 O.2       1 ALA2        0.0000 
      3 N         237.6500  199.4200  223.6600 N.am      1 ALA2        0.0000 
      4 O         234.4800  196.6100  225.1600 O.2       1 ALA2        0.0000 
      5 N         238.6500  198.3000  223.6800 N.am      1 ALA2        0.0000 
      6 N         237.5900  197.3600  224.1800 N.am      1 ALA2        0.0000 
      7 O         235.4800  195.4900  225.1800 O.2       1 ALA2        0.0000 
      8 O         236.4800  194.3700  225.2000 O.2       1 ALA2        0.0000 
      9 N         239.0700  200.7100  224.5800 N.am      1 ALA2        0.0000 
     10 N         238.0100  199.7700  225.0800 N.am      1 ALA2        0.0000 
     11 N         236.9500  198.8300  225.5800 N.am      1 ALA2        0.0000 
     12 N         235.9000  197.8900  226.0800 N.am      1 ALA2        0.0000 
     13 N         234.8400  196.9500  226.5800 N.am      1 ALA2        0.0000 
     14 N         237.9600  197.7100  225.6000 N.am      1 ALA2        0.0000 
     15 N         236.9000  196.7700  226.1000 N.am      1 ALA2        0.0000 
     16 N         235.8400  195.8400  226.6000 N.am      1 ALA2        0.0000 
     17 N         238.9600  196.5900  225.6200 N.am      1 ALA2        0.0000 
     18 N         237.9000  195.6600  226.1200 N.am      1 ALA2        0.0000 
     19 N         236.8400  194.7200  226.6200 N.am      1 ALA2        0.0000 
     20 N         239.9600  195.4800  225.6400 N.am      1 ALA2        0.0000 
     21 N         238.3700  200.1200  226.4900 N.am      1 ALA2        0.0000 
     22 N         237.3200  199.1800  226.9900 N.am      1 ALA2        0.0000 
     23 N         236.2600  198.2400  227.4900 N.am      1 ALA2        0.0000 
     24 N         238.3200  198.0600  227.0100 N.am      1 ALA2        0.0000 
     25 N         238.2600  196.0000  227.5300 N.am      1 ALA2        0.0000 
     26 O         238.2000  193.9500  228.0500 O.2       1 ALA2        0.0000 
     27 OD1       238.6000  196.2500  224.2000 O.co2     2 ASP3        0.0000 
     28 OD1       237.5400  195.3100  224.7000 O.co2     2 ASP3        0.0000 
     29 OD1       238.0700  201.8200  224.5600 O.co2     2 ASP3        0.0000 
     30 OD1       237.0100  200.8900  225.0600 O.co2     2 ASP3        0.0000 
     31 OD1       237.3700  201.2300  226.4700 O.co2     2 ASP3        0.0000 
     32 NZ        232.1200  198.4900  223.7100 N.4       3 LYS4        0.0000 
     33 NZ        233.5400  199.7800  224.6300 N.4       3 LYS4        0.0000 
     34 NZ        236.0100  202.0000  225.0400 N.4       3 LYS4        0.0000 
     35 NZ        234.9500  201.0600  225.5400 N.4       3 LYS4        0.0000 
     36 NZ        233.9000  200.1300  226.0400 N.4       3 LYS4        0.0000 
     37 NZ        233.8400  198.0700  226.5600 N.4       3 LYS4        0.0000 
     38 NZ        235.3100  201.4100  226.9500 N.4       3 LYS4        0.0000 
     39 CA        235.2900  201.3100  222.2100 C.3       4 GLY6        0.0000 
     40 CA        234.2300  200.3700  222.7100 C.3       4 GLY6        0.0000 
     41 CA        233.1700  199.4300  223.2100 C.3       4 GLY6        0.0000 
     42 CA        234.5900  200.7200  224.1300 C.3       4 GLY6        0.0000 
     43 CA        236.6500  200.5400  223.6400 C.3       4 GLY6        0.0000 
     44 CA        233.4800  197.7200  225.1500 C.3       4 GLY6        0.0000 
     45 CA        234.9000  199.0100  226.0600 C.3       4 GLY6        0.0000 
     46 CA        238.9000  194.5400  226.1400 C.3       4 GLY6        0.0000 
     47 CA        239.9000  193.4200  226.1600 C.3       4 GLY6        0.0000 
     48 CA        234.2600  200.4700  227.4500 C.3       4 GLY6        0.0000 
     49 CA        236.3100  200.2900  226.9700 C.3       4 GLY6        0.0000 
     50 CA        235.2600  199.3600  227.4700 C.3       4 GLY6        0.0000 
     51 CA        239.2600  194.8900  227.5500 C.3       4 GLY6        0.0000 
     52 DU        235.2300  199.2500  222.7300 H         5 CUB7        0.0000 
     53 DU        234.1800  198.3100  223.2300 H         5 CUB7        0.0000 
     54 DU        235.5900  199.6000  224.1400 H         5 CUB7        0.0000 
     55 DU        234.5400  198.6600  224.6400 H         5 CUB7        0.0000 
     56 DU        236.5900  198.4800  224.1600 H         5 CUB7        0.0000 
     57 DU        235.5400  197.5400  224.6600 H         5 CUB7        0.0000 
     58 DU        236.5400  196.4300  224.6800 H         5 CUB7        0.0000 
     59 DU        235.9500  199.9500  225.5600 H         5 CUB7        0.0000 
     60 DU        237.8400  193.6000  226.6400 H         5 CUB7        0.0000 
@<TRIPOS>BOND
@<TRIPOS>SUBSTRUCTURE
     1 ALA2        1 GROUP   
     2 ASP3       27 GROUP   
     3 LYS4       32 GROUP   
     4 GLY6       39 GROUP   
     5 CUB7       52 GROUP   
@<TRIPOS>SET

