#    Name: 6g2j_3_NDP_CAVITY_N1_8
#    Modification time : Fri May 22 19:32:14 2020

@<TRIPOS>MOLECULE
6g2j_3_NDP_CAVITY_N1_8
  106     0     7     0     0
SMALL
NO_CHARGES


@<TRIPOS>ATOM
      1 OG        257.1400  268.2900  286.1100 O.3       1 SER1        0.0000 
      2 OG        256.5000  269.7600  287.5100 O.3       1 SER1        0.0000 
      3 OG        255.4400  268.8200  288.0100 O.3       1 SER1        0.0000 
      4 OG        256.4400  267.7000  288.0200 O.3       1 SER1        0.0000 
      5 N         250.9900  270.7800  282.2900 N.am      2 ALA2        0.0000 
      6 N         251.8800  265.5500  283.3500 N.am      2 ALA2        0.0000 
      7 O         254.3000  265.7200  284.2800 O.2       2 ALA2        0.0000 
      8 N         253.2400  264.7800  284.7800 N.am      2 ALA2        0.0000 
      9 O         255.7200  267.0100  285.2000 O.2       2 ALA2        0.0000 
     10 N         256.0800  267.3500  286.6100 N.am      2 ALA2        0.0000 
     11 O         251.1500  263.0100  290.5300 O.2       2 ALA2        0.0000 
     12 N         251.6800  269.5200  290.3800 N.am      2 ALA2        0.0000 
     13 N         252.6800  268.4100  290.4000 N.am      2 ALA2        0.0000 
     14 N         253.6800  267.2900  290.4200 N.am      2 ALA2        0.0000 
     15 N         252.6200  266.3500  290.9200 N.am      2 ALA2        0.0000 
     16 N         251.5700  265.4100  291.4200 N.am      2 ALA2        0.0000 
     17 N         256.8000  268.0500  289.4400 N.am      2 ALA2        0.0000 
     18 N         253.6300  265.2300  290.9400 N.am      2 ALA2        0.0000 
     19 N         252.5700  264.2900  291.4400 N.am      2 ALA2        0.0000 
     20 N         253.0400  268.7500  291.8100 N.am      2 ALA2        0.0000 
     21 N         254.0400  267.6400  291.8300 N.am      2 ALA2        0.0000 
     22 N         255.0400  266.5200  291.8500 N.am      2 ALA2        0.0000 
     23 N         253.9900  265.5800  292.3500 N.am      2 ALA2        0.0000 
     24 N         256.4600  267.8000  292.7700 N.am      2 ALA2        0.0000 
     25 OD1       252.2400  265.9000  284.7600 O.co2     3 ASP3        0.0000 
     26 OD1       252.6000  266.2500  286.1800 O.co2     3 ASP3        0.0000 
     27 OD1       251.9600  267.7100  287.5700 O.co2     3 ASP3        0.0000 
     28 OD1       252.9600  266.5900  287.5900 O.co2     3 ASP3        0.0000 
     29 OD1       253.9600  265.4800  287.6100 O.co2     3 ASP3        0.0000 
     30 OD1       252.9000  264.5400  288.1100 O.co2     3 ASP3        0.0000 
     31 OD1       251.8500  263.6000  288.6100 O.co2     3 ASP3        0.0000 
     32 OD1       253.3200  266.9400  289.0100 O.co2     3 ASP3        0.0000 
     33 OD1       253.2600  264.8900  289.5300 O.co2     3 ASP3        0.0000 
     34 OD1       252.2100  263.9500  290.0300 O.co2     3 ASP3        0.0000 
     35 OD1       254.8500  272.3400  288.8800 O.co2     3 ASP3        0.0000 
     36 OD1       253.8000  271.4000  289.3800 O.co2     3 ASP3        0.0000 
     37 OD1       255.1600  270.6300  290.8100 O.co2     3 ASP3        0.0000 
     38 OD1       255.1000  268.5700  291.3300 O.co2     3 ASP3        0.0000 
     39 OD1       257.1600  268.4000  290.8500 O.co2     3 ASP3        0.0000 
     40 OD1       256.1000  267.4600  291.3500 O.co2     3 ASP3        0.0000 
     41 OD1       255.4600  268.9200  292.7500 O.co2     3 ASP3        0.0000 
     42 NZ        252.0500  271.7200  281.7900 N.4       4 LYS4        0.0000 
     43 NZ        251.9900  269.6600  282.3100 N.4       4 LYS4        0.0000 
     44 NZ        251.9400  267.6100  282.8300 N.4       4 LYS4        0.0000 
     45 NZ        252.4100  272.0700  283.2100 N.4       4 LYS4        0.0000 
     46 NZ        251.3500  271.1300  283.7100 N.4       4 LYS4        0.0000 
     47 NZ        250.3000  270.1900  284.2100 N.4       4 LYS4        0.0000 
     48 NZ        252.3500  270.0100  283.7200 N.4       4 LYS4        0.0000 
     49 NZ        252.3000  267.9500  284.2400 N.4       4 LYS4        0.0000 
     50 NZ        253.3000  266.8400  284.2600 N.4       4 LYS4        0.0000 
     51 NZ        252.7200  270.3600  285.1400 N.4       4 LYS4        0.0000 
     52 NZ        251.6600  269.4200  285.6400 N.4       4 LYS4        0.0000 
     53 NZ        250.6000  268.4800  286.1400 N.4       4 LYS4        0.0000 
     54 NZ        253.7200  269.2400  285.1600 N.4       4 LYS4        0.0000 
     55 NZ        252.6600  268.3000  285.6600 N.4       4 LYS4        0.0000 
     56 NZ        254.7200  268.1200  285.1800 N.4       4 LYS4        0.0000 
     57 NZ        253.6600  267.1900  285.6800 N.4       4 LYS4        0.0000 
     58 NZ        254.0800  269.5900  286.5700 N.4       4 LYS4        0.0000 
     59 NZ        253.0200  268.6500  287.0700 N.4       4 LYS4        0.0000 
     60 NZ        253.4400  271.0500  287.9700 N.4       4 LYS4        0.0000 
     61 NZ        254.4400  269.9400  287.9900 N.4       4 LYS4        0.0000 
     62 NZ        253.3800  269.0000  288.4900 N.4       4 LYS4        0.0000 
     63 NZ        252.3200  268.0600  288.9900 N.4       4 LYS4        0.0000 
     64 NZ        252.7400  270.4600  289.8800 N.4       4 LYS4        0.0000 
     65 NZ        253.7400  269.3400  289.9000 N.4       4 LYS4        0.0000 
     66 CZ        253.6000  265.1300  286.2000 C.ar      5 PHE5        0.0000 
     67 CZ        252.5400  264.1900  286.7000 C.ar      5 PHE5        0.0000 
     68 CZ        255.1300  270.5300  286.0700 C.ar      5 PHE5        0.0000 
     69 CZ        256.1300  269.4100  286.0900 C.ar      5 PHE5        0.0000 
     70 CZ        253.9000  263.4200  288.1300 C.ar      5 PHE5        0.0000 
     71 CZ        255.4900  270.8700  287.4900 C.ar      5 PHE5        0.0000 
     72 CZ        254.1600  271.7500  290.7900 C.ar      5 PHE5        0.0000 
     73 CZ        253.1000  270.8100  291.2900 C.ar      5 PHE5        0.0000 
     74 CZ        254.1000  269.6900  291.3100 C.ar      5 PHE5        0.0000 
     75 CA        251.0500  272.8400  281.7700 C.3       6 GLY6        0.0000 
     76 CA        251.3000  269.0700  284.2300 C.3       6 GLY6        0.0000 
     77 CA        251.2400  267.0200  284.7400 C.3       6 GLY6        0.0000 
     78 CA        253.7700  271.3000  284.6400 C.3       6 GLY6        0.0000 
     79 CA        254.6600  266.0700  285.7000 C.3       6 GLY6        0.0000 
     80 CA        254.6000  264.0100  286.2200 C.3       6 GLY6        0.0000 
     81 CA        255.0200  266.4200  287.1100 C.3       6 GLY6        0.0000 
     82 CA        257.0800  266.2400  286.6300 C.3       6 GLY6        0.0000 
     83 CA        254.9600  264.3600  287.6300 C.3       6 GLY6        0.0000 
     84 CA        257.4400  266.5800  288.0400 C.3       6 GLY6        0.0000 
     85 CA        256.3800  265.6500  288.5400 C.3       6 GLY6        0.0000 
     86 CA        255.3200  264.7100  289.0400 C.3       6 GLY6        0.0000 
     87 CA        254.2700  263.7700  289.5500 C.3       6 GLY6        0.0000 
     88 CA        253.2100  262.8300  290.0500 C.3       6 GLY6        0.0000 
     89 CA        255.8600  271.2200  288.9000 C.3       6 GLY6        0.0000 
     90 CA        254.8000  270.2800  289.4000 C.3       6 GLY6        0.0000 
     91 CA        255.8000  269.1700  289.4200 C.3       6 GLY6        0.0000 
     92 CA        257.8000  266.9300  289.4600 C.3       6 GLY6        0.0000 
     93 CA        256.7400  265.9900  289.9600 C.3       6 GLY6        0.0000 
     94 CA        255.6800  265.0500  290.4600 C.3       6 GLY6        0.0000 
     95 CA        254.6300  264.1200  290.9600 C.3       6 GLY6        0.0000 
     96 CA        253.5700  263.1800  291.4600 C.3       6 GLY6        0.0000 
     97 CA        257.1000  266.3400  291.3700 C.3       6 GLY6        0.0000 
     98 CA        256.0400  265.4000  291.8700 C.3       6 GLY6        0.0000 
     99 DU        255.0800  268.4700  286.5900 H         7 CUB7        0.0000 
    100 DU        254.0200  267.5300  287.0900 H         7 CUB7        0.0000 
    101 DU        254.3800  267.8800  288.5100 H         7 CUB7        0.0000 
    102 DU        255.3800  266.7600  288.5300 H         7 CUB7        0.0000 
    103 DU        254.3200  265.8200  289.0300 H         7 CUB7        0.0000 
    104 DU        254.7400  268.2300  289.9200 H         7 CUB7        0.0000 
    105 DU        255.7400  267.1100  289.9400 H         7 CUB7        0.0000 
    106 DU        254.6800  266.1700  290.4400 H         7 CUB7        0.0000 
@<TRIPOS>BOND
@<TRIPOS>SUBSTRUCTURE
     1 SER1        1 GROUP   
     2 ALA2        5 GROUP   
     3 ASP3       25 GROUP   
     4 LYS4       42 GROUP   
     5 PHE5       66 GROUP   
     6 GLY6       75 GROUP   
     7 CUB7       99 GROUP   
@<TRIPOS>SET

