#    Name: 5otr_1_ATP
#    Modification time : Fri May 22 19:13:57 2020

@<TRIPOS>MOLECULE
5otr_1_ATP
   19    21     1     0     1
SMALL
NO_CHARGES


@<TRIPOS>ATOM
      1 O5'      -122.7170 -181.6510  302.8960 O.3       1 ATP406      0.0000 
      2 C5'      -123.3970 -181.0060  303.9900 C.3       1 ATP406      0.0000 
      3 C4'      -123.2940 -179.4960  303.9430 C.3       1 ATP406      0.0000 
      4 O4'      -124.4670 -178.9380  304.5880 O.3       1 ATP406      0.0000 
      5 C3'      -122.0880 -178.9010  304.6800 C.3       1 ATP406      0.0000 
      6 O3'      -120.9910 -178.5720  303.8350 O.3       1 ATP406      0.0000 
      7 C2'      -122.6710 -177.6830  305.4070 C.3       1 ATP406      0.0000 
      8 O2'      -122.7230 -176.5060  304.6050 O.3       1 ATP406      0.0000 
      9 C1'      -124.0830 -178.1640  305.7110 C.3       1 ATP406      0.0000 
     10 N9       -124.2040 -178.9650  306.9330 N.pl3     1 ATP406      0.0000 
     11 C8       -124.2130 -180.3320  307.0410 C.2       1 ATP406      0.0000 
     12 N7       -124.3570 -180.7720  308.2670 N.2       1 ATP406      0.0000 
     13 C5       -124.4610 -179.6140  309.0200 C.ar      1 ATP406      0.0000 
     14 C6       -124.6600 -179.3970  310.3980 C.ar      1 ATP406      0.0000 
     15 N6       -124.8490 -180.3800  311.2770 N.pl3     1 ATP406      0.0000 
     16 N1       -124.7170 -178.1140  310.8330 N.ar      1 ATP406      0.0000 
     17 C2       -124.5980 -177.1250  309.9370 C.ar      1 ATP406      0.0000 
     18 N3       -124.4220 -177.2110  308.6130 N.ar      1 ATP406      0.0000 
     19 C4       -124.3610 -178.4920  308.2150 C.ar      1 ATP406      0.0000 
@<TRIPOS>BOND
     1    1    2 1    
     2    2    3 1    
     3    3    4 1    
     4    3    5 1    
     5    4    9 1    
     6    5    6 1    
     7    5    7 1    
     8    7    8 1    
     9    7    9 1    
    10    9   10 1    
    11   10   11 1    
    12   10   19 1    
    13   11   12 2    
    14   12   13 1    
    15   13   14 ar   
    16   13   19 ar   
    17   14   15 1    
    18   14   16 ar   
    19   16   17 ar   
    20   17   18 ar   
    21   18   19 ar   
@<TRIPOS>SUBSTRUCTURE
     1 ATP406      1 GROUP   
@<TRIPOS>SET
ATOM$ORANGE STATIC     ATOMS   COLORGROUP SYSTEM 
20 2 2 3 3 5 5 7 7 9 9 11 11 13 13 14 14 17 \
17 19 19 

