#    Name: 5zxd_4_ATP_CAVITY_N1_12
#    Modification time : Fri May 22 19:31:22 2020

@<TRIPOS>MOLECULE
5zxd_4_ATP_CAVITY_N1_12
   84     0     5     0     0
SMALL
NO_CHARGES


@<TRIPOS>ATOM
      1 OG        -12.2100   95.4000   37.2200 O.3       1 SER1        0.0000 
      2 OG        -12.8800   96.7200   40.5800 O.3       1 SER1        0.0000 
      3 OG        -12.9200   97.7600   39.5000 O.3       1 SER1        0.0000 
      4 OG        -12.5100   97.7800   41.5800 O.3       1 SER1        0.0000 
      5 N          -9.9500   90.7400   36.8300 N.am      2 ALA2        0.0000 
      6 N          -9.5800   91.8000   37.8200 N.am      2 ALA2        0.0000 
      7 O         -11.0800   93.0700   37.0200 O.2       2 ALA2        0.0000 
      8 N          -6.8100   94.4300   34.0000 N.am      2 ALA2        0.0000 
      9 O         -10.6700   93.0900   39.1000 O.2       2 ALA2        0.0000 
     10 O          -9.2100   92.8600   38.8200 O.2       2 ALA2        0.0000 
     11 N         -10.7600   95.1600   36.9300 N.am      2 ALA2        0.0000 
     12 N          -9.3000   94.9300   36.6500 N.am      2 ALA2        0.0000 
     13 N          -7.8500   94.6900   36.3600 N.am      2 ALA2        0.0000 
     14 N          -6.4000   94.4500   36.0800 N.am      2 ALA2        0.0000 
     15 N          -6.4400   95.4900   34.9900 N.am      2 ALA2        0.0000 
     16 O         -10.3000   94.1500   40.1000 O.2       2 ALA2        0.0000 
     17 O          -8.8500   93.9200   39.8100 O.2       2 ALA2        0.0000 
     18 O          -7.3900   93.6800   39.5300 O.2       2 ALA2        0.0000 
     19 N         -10.3900   96.2200   37.9300 N.am      2 ALA2        0.0000 
     20 N          -8.9300   95.9900   37.6400 N.am      2 ALA2        0.0000 
     21 N          -7.4800   95.7500   37.3600 N.am      2 ALA2        0.0000 
     22 N          -6.0300   95.5100   37.0700 N.am      2 ALA2        0.0000 
     23 N         -11.3800   95.4500   41.3800 N.am      2 ALA2        0.0000 
     24 N          -9.9300   95.2100   41.1000 N.am      2 ALA2        0.0000 
     25 O          -8.4800   94.9800   40.8100 O.2       2 ALA2        0.0000 
     26 O          -7.0200   94.7400   40.5200 O.2       2 ALA2        0.0000 
     27 N          -8.5700   97.0500   38.6400 N.am      2 ALA2        0.0000 
     28 N          -8.6100   98.0800   37.5600 N.am      2 ALA2        0.0000 
     29 N          -9.5600   96.2700   42.0900 N.am      2 ALA2        0.0000 
     30 O          -6.6500   95.8000   41.5200 O.2       2 ALA2        0.0000 
     31 O          -5.2900   97.6300   39.0600 O.2       2 ALA2        0.0000 
     32 O          -6.2900   96.8600   42.5200 O.2       2 ALA2        0.0000 
     33 N          -4.8300   96.6200   42.2300 N.am      2 ALA2        0.0000 
     34 N          -6.3300   97.8900   41.4300 N.am      2 ALA2        0.0000 
     35 N          -4.8800   97.6500   41.1500 N.am      2 ALA2        0.0000 
     36 N          -6.3700   98.9300   40.3500 N.am      2 ALA2        0.0000 
     37 CZ         -5.9800   94.4800   38.1600 C.ar      3 PHE5        0.0000 
     38 CZ         -4.5700   95.2700   36.7900 C.ar      3 PHE5        0.0000 
     39 CZ         -5.5700   94.5000   40.2400 C.ar      3 PHE5        0.0000 
     40 CZ         -5.6100   95.5400   39.1500 C.ar      3 PHE5        0.0000 
     41 CZ         -5.6600   96.5700   38.0700 C.ar      3 PHE5        0.0000 
     42 CZ         -4.2100   96.3300   37.7800 C.ar      3 PHE5        0.0000 
     43 CA        -11.0400   92.0400   38.1100 C.3       4 GLY6        0.0000 
     44 CA         -9.6300   92.8300   36.7400 C.3       4 GLY6        0.0000 
     45 CA         -8.2200   93.6300   35.3700 C.3       4 GLY6        0.0000 
     46 CA        -13.6200   94.6000   38.5900 C.3       4 GLY6        0.0000 
     47 CA        -12.1700   94.3700   38.3100 C.3       4 GLY6        0.0000 
     48 CA        -11.7500   94.3900   40.3900 C.3       4 GLY6        0.0000 
     49 CA        -13.2500   95.6600   39.5900 C.3       4 GLY6        0.0000 
     50 CA        -11.8000   95.4300   39.3000 C.3       4 GLY6        0.0000 
     51 CA        -13.2900   96.7000   38.5000 C.3       4 GLY6        0.0000 
     52 CA        -11.8400   96.4600   38.2200 C.3       4 GLY6        0.0000 
     53 CA         -6.0700   96.5500   35.9900 C.3       4 GLY6        0.0000 
     54 CA         -4.6200   96.3100   35.7000 C.3       4 GLY6        0.0000 
     55 CA        -12.8400   95.6900   41.6700 C.3       4 GLY6        0.0000 
     56 CA        -11.4700   97.5200   39.2100 C.3       4 GLY6        0.0000 
     57 CA        -10.0200   97.2800   38.9300 C.3       4 GLY6        0.0000 
     58 CA         -7.1100   96.8100   38.3500 C.3       4 GLY6        0.0000 
     59 CA         -5.7000   97.6100   36.9800 C.3       4 GLY6        0.0000 
     60 CA         -4.2500   97.3700   36.7000 C.3       4 GLY6        0.0000 
     61 CA         -5.2000   95.5600   41.2300 C.3       4 GLY6        0.0000 
     62 CA        -11.0600   97.5400   41.2900 C.3       4 GLY6        0.0000 
     63 CA         -5.2500   96.5900   40.1500 C.3       4 GLY6        0.0000 
     64 CA        -12.5600   98.8200   40.4900 C.3       4 GLY6        0.0000 
     65 CA        -11.1000   98.5800   40.2100 C.3       4 GLY6        0.0000 
     66 CA         -9.6500   98.3400   39.9200 C.3       4 GLY6        0.0000 
     67 CA         -5.3300   98.6700   37.9800 C.3       4 GLY6        0.0000 
     68 CA         -3.8800   98.4300   37.6900 C.3       4 GLY6        0.0000 
     69 CA         -4.9200   98.6900   40.0600 C.3       4 GLY6        0.0000 
     70 DU         -8.1300   91.5600   37.5400 H         5 CUB7        0.0000 
     71 DU        -10.7100   94.1300   38.0200 H         5 CUB7        0.0000 
     72 DU         -9.2600   93.8900   37.7300 H         5 CUB7        0.0000 
     73 DU         -7.8100   93.6500   37.4500 H         5 CUB7        0.0000 
     74 DU        -10.3400   95.1900   39.0200 H         5 CUB7        0.0000 
     75 DU         -8.8900   94.9500   38.7300 H         5 CUB7        0.0000 
     76 DU         -7.4400   94.7100   38.4400 H         5 CUB7        0.0000 
     77 DU        -11.4300   96.4900   40.3000 H         5 CUB7        0.0000 
     78 DU         -9.9700   96.2500   40.0100 H         5 CUB7        0.0000 
     79 DU         -8.5200   96.0100   39.7300 H         5 CUB7        0.0000 
     80 DU         -7.0700   95.7700   39.4400 H         5 CUB7        0.0000 
     81 DU         -9.6000   97.3100   41.0100 H         5 CUB7        0.0000 
     82 DU         -6.7000   96.8300   40.4400 H         5 CUB7        0.0000 
     83 DU         -8.2000   98.1000   39.6400 H         5 CUB7        0.0000 
     84 DU         -6.7400   97.8700   39.3500 H         5 CUB7        0.0000 
@<TRIPOS>BOND
@<TRIPOS>SUBSTRUCTURE
     1 SER1        1 GROUP   
     2 ALA2        5 GROUP   
     3 PHE5       37 GROUP   
     4 GLY6       43 GROUP   
     5 CUB7       70 GROUP   
@<TRIPOS>SET

