#    Name: 5zxd_4_ATP_CAVITY_N1_4
#    Modification time : Fri May 22 19:31:22 2020

@<TRIPOS>MOLECULE
5zxd_4_ATP_CAVITY_N1_4
   44     0     4     0     0
SMALL
NO_CHARGES


@<TRIPOS>ATOM
      1 N          -9.5800   91.8000   37.8200 N.am      1 ALA2        0.0000 
      2 N          -6.8100   94.4300   34.0000 N.am      1 ALA2        0.0000 
      3 O          -9.2100   92.8600   38.8200 O.2       1 ALA2        0.0000 
      4 N          -9.3000   94.9300   36.6500 N.am      1 ALA2        0.0000 
      5 N          -7.8500   94.6900   36.3600 N.am      1 ALA2        0.0000 
      6 N          -6.4000   94.4500   36.0800 N.am      1 ALA2        0.0000 
      7 N          -6.4400   95.4900   34.9900 N.am      1 ALA2        0.0000 
      8 O          -8.8500   93.9200   39.8100 O.2       1 ALA2        0.0000 
      9 O          -7.3900   93.6800   39.5300 O.2       1 ALA2        0.0000 
     10 N          -8.9300   95.9900   37.6400 N.am      1 ALA2        0.0000 
     11 N          -7.4800   95.7500   37.3600 N.am      1 ALA2        0.0000 
     12 N          -6.0300   95.5100   37.0700 N.am      1 ALA2        0.0000 
     13 O          -8.4800   94.9800   40.8100 O.2       1 ALA2        0.0000 
     14 O          -7.0200   94.7400   40.5200 O.2       1 ALA2        0.0000 
     15 N          -8.5700   97.0500   38.6400 N.am      1 ALA2        0.0000 
     16 O          -6.6500   95.8000   41.5200 O.2       1 ALA2        0.0000 
     17 O          -5.2900   97.6300   39.0600 O.2       1 ALA2        0.0000 
     18 O          -6.2900   96.8600   42.5200 O.2       1 ALA2        0.0000 
     19 N          -4.8300   96.6200   42.2300 N.am      1 ALA2        0.0000 
     20 N          -6.3300   97.8900   41.4300 N.am      1 ALA2        0.0000 
     21 N          -4.8800   97.6500   41.1500 N.am      1 ALA2        0.0000 
     22 CZ         -5.9800   94.4800   38.1600 C.ar      2 PHE5        0.0000 
     23 CZ         -4.5700   95.2700   36.7900 C.ar      2 PHE5        0.0000 
     24 CZ         -5.5700   94.5000   40.2400 C.ar      2 PHE5        0.0000 
     25 CZ         -5.6100   95.5400   39.1500 C.ar      2 PHE5        0.0000 
     26 CZ         -5.6600   96.5700   38.0700 C.ar      2 PHE5        0.0000 
     27 CZ         -4.2100   96.3300   37.7800 C.ar      2 PHE5        0.0000 
     28 CA         -9.6300   92.8300   36.7400 C.3       3 GLY6        0.0000 
     29 CA         -8.2200   93.6300   35.3700 C.3       3 GLY6        0.0000 
     30 CA         -6.0700   96.5500   35.9900 C.3       3 GLY6        0.0000 
     31 CA         -7.1100   96.8100   38.3500 C.3       3 GLY6        0.0000 
     32 CA         -5.7000   97.6100   36.9800 C.3       3 GLY6        0.0000 
     33 CA         -5.2000   95.5600   41.2300 C.3       3 GLY6        0.0000 
     34 CA         -5.2500   96.5900   40.1500 C.3       3 GLY6        0.0000 
     35 CA         -4.9200   98.6900   40.0600 C.3       3 GLY6        0.0000 
     36 DU         -8.1300   91.5600   37.5400 H         4 CUB7        0.0000 
     37 DU         -9.2600   93.8900   37.7300 H         4 CUB7        0.0000 
     38 DU         -7.8100   93.6500   37.4500 H         4 CUB7        0.0000 
     39 DU         -8.8900   94.9500   38.7300 H         4 CUB7        0.0000 
     40 DU         -7.4400   94.7100   38.4400 H         4 CUB7        0.0000 
     41 DU         -8.5200   96.0100   39.7300 H         4 CUB7        0.0000 
     42 DU         -7.0700   95.7700   39.4400 H         4 CUB7        0.0000 
     43 DU         -6.7000   96.8300   40.4400 H         4 CUB7        0.0000 
     44 DU         -6.7400   97.8700   39.3500 H         4 CUB7        0.0000 
@<TRIPOS>BOND
@<TRIPOS>SUBSTRUCTURE
     1 ALA2        1 GROUP   
     2 PHE5       22 GROUP   
     3 GLY6       28 GROUP   
     4 CUB7       36 GROUP   
@<TRIPOS>SET

