#    Name: 5zxd_4_ATP
#    Modification time : Fri May 22 19:31:21 2020

@<TRIPOS>MOLECULE
5zxd_4_ATP
   31    33     1     0     1
SMALL
NO_CHARGES


@<TRIPOS>ATOM
      1 PG         -4.5900   82.8840   41.6490 P.3       1 ATP602      0.0000 
      2 O1G        -3.9860   81.8090   40.7750 O.co2     1 ATP602      0.0000 
      3 O2G        -5.2730   82.3470   42.8870 O.co2     1 ATP602      0.0000 
      4 O3G        -5.3990   83.9110   40.8910 O.co2     1 ATP602      0.0000 
      5 PB         -3.2080   84.3090   43.6800 P.3       1 ATP602      0.0000 
      6 O1B        -1.9420   83.7360   44.2690 O.co2     1 ATP602      0.0000 
      7 O2B        -4.5210   84.1120   44.4020 O.co2     1 ATP602      0.0000 
      8 O3B        -3.3220   83.7400   42.1720 O.3       1 ATP602      0.0000 
      9 PA         -3.2050   86.7600   42.2030 P.3       1 ATP602      0.0000 
     10 O1A        -1.9330   86.7540   41.3900 O.co2     1 ATP602      0.0000 
     11 O2A        -4.5050   86.2880   41.5940 O.co2     1 ATP602      0.0000 
     12 O3A        -2.9100   85.8910   43.5300 O.3       1 ATP602      0.0000 
     13 O5'        -3.3950   88.2550   42.7800 O.3       1 ATP602      0.0000 
     14 C5'        -2.6370   88.7060   43.9050 C.3       1 ATP602      0.0000 
     15 C4'        -3.1980   90.0200   44.4390 C.3       1 ATP602      0.0000 
     16 O4'        -3.2750   90.9830   43.3830 O.3       1 ATP602      0.0000 
     17 C3'        -4.6000   89.8410   44.9960 C.3       1 ATP602      0.0000 
     18 O3'        -4.7260   90.5990   46.2020 O.3       1 ATP602      0.0000 
     19 C2'        -5.5040   90.4420   43.9450 C.3       1 ATP602      0.0000 
     20 O2'        -6.6580   91.0440   44.5400 O.3       1 ATP602      0.0000 
     21 C1'        -4.6170   91.4570   43.2470 C.3       1 ATP602      0.0000 
     22 N9         -4.9770   91.5380   41.8150 N.pl3     1 ATP602      0.0000 
     23 C8         -4.9980   90.5060   40.9540 C.2       1 ATP602      0.0000 
     24 N7         -5.3710   90.9200   39.7180 N.2       1 ATP602      0.0000 
     25 C5         -5.5970   92.2430   39.7830 C.ar      1 ATP602      0.0000 
     26 C6         -6.0170   93.3000   38.8390 C.ar      1 ATP602      0.0000 
     27 N6         -6.2770   93.0100   37.5410 N.pl3     1 ATP602      0.0000 
     28 N1         -6.1320   94.5580   39.3160 N.ar      1 ATP602      0.0000 
     29 C2         -5.8780   94.8610   40.6020 C.ar      1 ATP602      0.0000 
     30 N3         -5.4930   93.9480   41.5090 N.ar      1 ATP602      0.0000 
     31 C4         -5.3400   92.6460   41.1690 C.ar      1 ATP602      0.0000 
@<TRIPOS>BOND
     1    1    2 ar   
     2    1    3 ar   
     3    1    4 ar   
     4    1    8 1    
     5    5    6 ar   
     6    5    7 ar   
     7    5    8 1    
     8    5   12 1    
     9    9   10 ar   
    10    9   11 ar   
    11    9   12 1    
    12    9   13 1    
    13   13   14 1    
    14   14   15 1    
    15   15   16 1    
    16   15   17 1    
    17   16   21 1    
    18   17   18 1    
    19   17   19 1    
    20   19   20 1    
    21   19   21 1    
    22   21   22 1    
    23   22   23 1    
    24   22   31 1    
    25   23   24 2    
    26   24   25 1    
    27   25   26 ar   
    28   25   31 ar   
    29   26   27 1    
    30   26   28 ar   
    31   28   29 ar   
    32   29   30 ar   
    33   30   31 ar   
@<TRIPOS>SUBSTRUCTURE
     1 ATP602      1 GROUP   
@<TRIPOS>SET
ATOM$ORANGE STATIC     ATOMS   COLORGROUP SYSTEM 
20 14 14 15 15 17 17 19 19 21 21 23 23 25 25 26 26 29 \
29 31 31 

