#    Name: 6smw_6_LYA
#    Modification time : Fri May 22 19:28:27 2020

@<TRIPOS>MOLECULE
6smw_6_LYA
   31    33     1     0     0
SMALL
NO_CHARGES


@<TRIPOS>ATOM
      1 C1          8.3400    8.3600   23.0990 C.ar      1 LYA1305     0.0000 
      2 C2          8.4930    7.2440   23.9090 C.ar      1 LYA1305     0.0000 
      3 C3          8.3720    5.9730   23.3710 C.ar      1 LYA1305     0.0000 
      4 C4          8.0980    5.8180   22.0120 C.ar      1 LYA1305     0.0000 
      5 C5          7.9420    6.9350   21.1980 C.ar      1 LYA1305     0.0000 
      6 C6          8.0650    8.2070   21.7430 C.ar      1 LYA1305     0.0000 
      7 C7          8.4690    9.7260   23.6770 C.3       1 LYA1305     0.0000 
      8 C8          7.1240   10.1750   24.2320 C.3       1 LYA1305     0.0000 
      9 C9          7.1930   11.5690   24.7090 C.2       1 LYA1305     0.0000 
     10 C10         7.2060   12.6790   23.8800 C.2       1 LYA1305     0.0000 
     11 N11         7.2730   13.8420   24.6660 N.pl3     1 LYA1305     0.0000 
     12 C12         7.2990   13.4410   25.9870 C.2       1 LYA1305     0.0000 
     13 C13         7.2480   12.0400   26.0490 C.2       1 LYA1305     0.0000 
     14 C14         7.2630   11.3840   27.3430 C.2       1 LYA1305     0.0000 
     15 O15         7.2230   10.1790   27.5180 O.2       1 LYA1305     0.0000 
     16 N16         7.3290   12.2120   28.5100 N.2       1 LYA1305     0.0000 
     17 C17         7.3720   13.5250   28.3530 C.2       1 LYA1305     0.0000 
     18 N18         7.3630   14.2330   27.1270 N.pl3     1 LYA1305     0.0000 
     19 N19         7.4380   14.3170   29.4860 N.pl3     1 LYA1305     0.0000 
     20 C20         7.9720    4.4310   21.4780 C.2       1 LYA1305     0.0000 
     21 O21         8.2290    3.4650   22.2110 O.2       1 LYA1305     0.0000 
     22 N22         7.5580    4.2870   20.1930 N.am      1 LYA1305     0.0000 
     23 C23         7.4150    2.9330   19.6380 C.3       1 LYA1305     0.0000 
     24 C24         5.9470    2.6570   19.3160 C.3       1 LYA1305     0.0000 
     25 C25         5.0590    3.0200   20.5040 C.3       1 LYA1305     0.0000 
     26 C26         4.8970    1.8250   21.4560 C.2       1 LYA1305     0.0000 
     27 O27         5.6530    0.8460   21.3040 O.co2     1 LYA1305     0.0000 
     28 O28         3.9950    1.8940   22.3480 O.co2     1 LYA1305     0.0000 
     29 C29         8.2690    2.8540   18.3520 C.2       1 LYA1305     0.0000 
     30 O30         8.5400    3.9420   17.8180 O.co2     1 LYA1305     0.0000 
     31 O31         8.6200    1.7070   17.9450 O.co2     1 LYA1305     0.0000 
@<TRIPOS>BOND
     1    1    2 ar   
     2    1    6 ar   
     3    1    7 1    
     4    2    3 ar   
     5    3    4 ar   
     6    4    5 ar   
     7    4   20 1    
     8    5    6 ar   
     9    7    8 1    
    10    8    9 1    
    11    9   10 2    
    12    9   13 1    
    13   10   11 1    
    14   11   12 1    
    15   12   13 2    
    16   12   18 1    
    17   13   14 1    
    18   14   15 2    
    19   14   16 1    
    20   16   17 2    
    21   17   18 1    
    22   17   19 1    
    23   20   21 2    
    24   20   22 am   
    25   22   23 1    
    26   23   24 1    
    27   23   29 1    
    28   24   25 1    
    29   25   26 1    
    30   26   27 ar   
    31   26   28 ar   
    32   29   30 ar   
    33   29   31 ar   
@<TRIPOS>SUBSTRUCTURE
     1 LYA1305     1 GROUP   
@<TRIPOS>SET

