#    Name: 6smw_2_LYA
#    Modification time : Fri May 22 19:28:18 2020

@<TRIPOS>MOLECULE
6smw_2_LYA
   31    33     1     0     0
SMALL
NO_CHARGES


@<TRIPOS>ATOM
      1 C1         35.9120  -15.8570    0.1830 C.ar      1 LYA710      0.0000 
      2 C2         35.8200  -14.7800   -0.6890 C.ar      1 LYA710      0.0000 
      3 C3         34.5810  -14.2640   -1.0310 C.ar      1 LYA710      0.0000 
      4 C4         33.4200  -14.8140   -0.4930 C.ar      1 LYA710      0.0000 
      5 C5         33.5050  -15.8800    0.3980 C.ar      1 LYA710      0.0000 
      6 C6         34.7530  -16.4020    0.7350 C.ar      1 LYA710      0.0000 
      7 C7         37.2590  -16.4110    0.5590 C.3       1 LYA710      0.0000 
      8 C8         37.7370  -17.5220   -0.3760 C.3       1 LYA710      0.0000 
      9 C9         37.8360  -17.0440   -1.7580 C.2       1 LYA710      0.0000 
     10 C10        36.9250  -17.3570   -2.7500 C.2       1 LYA710      0.0000 
     11 N11        37.3120  -16.7390   -3.9440 N.pl3     1 LYA710      0.0000 
     12 C12        38.4720  -16.0390   -3.6830 C.2       1 LYA710      0.0000 
     13 C13        38.8240  -16.2080   -2.3380 C.2       1 LYA710      0.0000 
     14 C14        40.0110  -15.5650   -1.8300 C.2       1 LYA710      0.0000 
     15 O15        40.4060  -15.6420   -0.6780 O.2       1 LYA710      0.0000 
     16 N16        40.7850  -14.7730   -2.7490 N.2       1 LYA710      0.0000 
     17 C17        40.3690  -14.6720   -4.0040 C.2       1 LYA710      0.0000 
     18 N18        39.2230  -15.2720   -4.5630 N.pl3     1 LYA710      0.0000 
     19 N19        41.1110  -13.9110   -4.8920 N.pl3     1 LYA710      0.0000 
     20 C20        32.1090  -14.1910   -0.8930 C.2       1 LYA710      0.0000 
     21 O21        32.1210  -13.1920   -1.6250 O.2       1 LYA710      0.0000 
     22 N22        30.9490  -14.7370   -0.4240 N.am      1 LYA710      0.0000 
     23 C23        29.6520  -14.1080   -0.7970 C.3       1 LYA710      0.0000 
     24 C24        29.0170  -14.7870   -2.0120 C.3       1 LYA710      0.0000 
     25 C25        29.6690  -14.2960   -3.3050 C.3       1 LYA710      0.0000 
     26 C26        29.1550  -12.9190   -3.7630 C.2       1 LYA710      0.0000 
     27 O27        28.2030  -12.4040   -3.1460 O.co2     1 LYA710      0.0000 
     28 O28        29.7340  -12.3770   -4.7590 O.co2     1 LYA710      0.0000 
     29 C29        28.6990  -14.2120    0.4240 C.2       1 LYA710      0.0000 
     30 O30        29.1050  -14.8940    1.3790 O.co2     1 LYA710      0.0000 
     31 O31        27.5930  -13.6070    0.3580 O.co2     1 LYA710      0.0000 
@<TRIPOS>BOND
     1    1    2 ar   
     2    1    6 ar   
     3    1    7 1    
     4    2    3 ar   
     5    3    4 ar   
     6    4    5 ar   
     7    4   20 1    
     8    5    6 ar   
     9    7    8 1    
    10    8    9 1    
    11    9   10 2    
    12    9   13 1    
    13   10   11 1    
    14   11   12 1    
    15   12   13 2    
    16   12   18 1    
    17   13   14 1    
    18   14   15 2    
    19   14   16 1    
    20   16   17 2    
    21   17   18 1    
    22   17   19 1    
    23   20   21 2    
    24   20   22 am   
    25   22   23 1    
    26   23   24 1    
    27   23   29 1    
    28   24   25 1    
    29   25   26 1    
    30   26   27 ar   
    31   26   28 ar   
    32   29   30 ar   
    33   29   31 ar   
@<TRIPOS>SUBSTRUCTURE
     1 LYA710      1 GROUP   
@<TRIPOS>SET

