#    Name: 6em2_1_M77
#    Modification time : Fri May 22 19:24:11 2020

@<TRIPOS>MOLECULE
6em2_1_M77
   37    39     1     0     0
SMALL
NO_CHARGES


@<TRIPOS>ATOM
      1 O1        -15.7980    3.1440  -31.0070 O.2       1 M77401      0.0000 
      2 S1        -14.7660    2.3190  -30.4410 S.o2      1 M77401      0.0000 
      3 O2        -14.2390    1.2570  -31.2250 O.2       1 M77401      0.0000 
      4 N4        -15.3860    1.6360  -29.0920 N.pl3     1 M77401      0.0000 
      5 C22       -16.0190    2.4880  -28.0620 C.3       1 M77401      0.0000 
      6 C21       -17.5150    2.8210  -28.3250 C.3       1 M77401      0.0000 
      7 N17       -18.3720    1.6320  -28.5750 N.4       1 M77401      0.0000 
      8 C16       -18.1410    1.0100  -29.8970 C.3       1 M77401      0.0000 
      9 C20       -17.0560   -0.0480  -29.9730 C.3       1 M77401      0.0000 
     10 C15       -15.8280    0.2250  -29.1020 C.3       1 M77401      0.0000 
     11 C5        -13.4480    3.4130  -29.9330 C.ar      1 M77401      0.0000 
     12 C6        -13.6980    4.7480  -30.0920 C.ar      1 M77401      0.0000 
     13 C7        -12.7080    5.6850  -29.8400 C.ar      1 M77401      0.0000 
     14 C8        -11.4800    5.3020  -29.4060 C.ar      1 M77401      0.0000 
     15 C9        -11.1840    3.9360  -29.1920 C.ar      1 M77401      0.0000 
     16 C10       -12.1720    2.9510  -29.4620 C.ar      1 M77401      0.0000 
     17 C11       -11.8240    1.5980  -29.2210 C.ar      1 M77401      0.0000 
     18 C14        -9.9320    3.4830  -28.6930 C.ar      1 M77401      0.0000 
     19 N13        -9.6340    2.2140  -28.4670 N.ar      1 M77401      0.0000 
     20 C12       -10.5810    1.3000  -28.7370 C.ar      1 M77401      0.0000 
     21 H221      -15.4480    3.4120  -27.9820 H         1 M77401      0.0000 
     22 H222      -15.9000    2.0140  -27.0890 H         1 M77401      0.0000 
     23 H211      -17.9310    3.4280  -27.5220 H         1 M77401      0.0000 
     24 H212      -17.5850    3.4420  -29.2170 H         1 M77401      0.0000 
     25 H17       -19.3530    1.8450  -28.4250 H         1 M77401      0.0000 
     26 H161      -17.9440    1.8120  -30.6070 H         1 M77401      0.0000 
     27 H162      -19.0910    0.5840  -30.2130 H         1 M77401      0.0000 
     28 H201      -16.7370   -0.1490  -31.0090 H         1 M77401      0.0000 
     29 H202      -17.4720   -1.0280  -29.7460 H         1 M77401      0.0000 
     30 H151      -14.9980   -0.4110  -29.4050 H         1 M77401      0.0000 
     31 H152      -16.0270   -0.0990  -28.0810 H         1 M77401      0.0000 
     32 H6        -14.6730    5.1100  -30.4170 H         1 M77401      0.0000 
     33 H7        -12.9230    6.7420  -29.9930 H         1 M77401      0.0000 
     34 H8        -10.7030    6.0410  -29.2160 H         1 M77401      0.0000 
     35 H11       -12.5230    0.7850  -29.4110 H         1 M77401      0.0000 
     36 H14        -9.1400    4.1960  -28.4700 H         1 M77401      0.0000 
     37 H12       -10.2800    0.2730  -28.5370 H         1 M77401      0.0000 
@<TRIPOS>BOND
     1    1    2 2    
     2    2    3 2    
     3    2    4 1    
     4    2   11 1    
     5    4    5 1    
     6    4   10 1    
     7    5    6 1    
     8    5   21 1    
     9    5   22 1    
    10    6    7 1    
    11    6   23 1    
    12    6   24 1    
    13    7    8 1    
    14    7   25 1    
    15    8    9 1    
    16    8   26 1    
    17    8   27 1    
    18    9   10 1    
    19    9   28 1    
    20    9   29 1    
    21   10   30 1    
    22   10   31 1    
    23   11   12 ar   
    24   11   16 ar   
    25   12   13 ar   
    26   12   32 1    
    27   13   14 ar   
    28   13   33 1    
    29   14   15 ar   
    30   14   34 1    
    31   15   16 ar   
    32   15   18 ar   
    33   16   17 ar   
    34   17   20 ar   
    35   17   35 1    
    36   18   19 ar   
    37   18   36 1    
    38   19   20 ar   
    39   20   37 1    
@<TRIPOS>SUBSTRUCTURE
     1 M77401      1 GROUP   
@<TRIPOS>SET

