#    Name: 6j5i_3_ATP
#    Modification time : Fri May 22 19:26:37 2020

@<TRIPOS>MOLECULE
6j5i_3_ATP
   31    33     1     0     1
SMALL
NO_CHARGES


@<TRIPOS>ATOM
      1 PG        200.5470  189.0590  134.7490 P.3       1 ATP601      0.0000 
      2 O1G       199.7670  189.6260  135.8880 O.co2     1 ATP601      0.0000 
      3 O2G       202.0310  189.0610  134.9480 O.co2     1 ATP601      0.0000 
      4 O3G       200.1010  189.4830  133.3830 O.co2     1 ATP601      0.0000 
      5 PB        198.7190  187.0120  134.3420 P.3       1 ATP601      0.0000 
      6 O1B       197.6930  187.6810  135.2060 O.co2     1 ATP601      0.0000 
      7 O2B       198.6770  187.1190  132.8470 O.co2     1 ATP601      0.0000 
      8 O3B       200.1510  187.5230  134.8370 O.3       1 ATP601      0.0000 
      9 PA        199.4160  184.2890  133.8970 P.3       1 ATP601      0.0000 
     10 O1A       200.8880  184.5230  133.8440 O.co2     1 ATP601      0.0000 
     11 O2A       198.7200  184.0340  132.6000 O.co2     1 ATP601      0.0000 
     12 O3A       198.7170  185.4580  134.7520 O.3       1 ATP601      0.0000 
     13 O5'       199.1810  183.0730  134.9020 O.3       1 ATP601      0.0000 
     14 C5'       199.6180  183.2180  136.2470 C.3       1 ATP601      0.0000 
     15 C4'       199.9910  181.8740  136.8680 C.3       1 ATP601      0.0000 
     16 O4'       198.8980  180.9610  136.8100 O.3       1 ATP601      0.0000 
     17 C3'       201.1470  181.2300  136.1310 C.3       1 ATP601      0.0000 
     18 O3'       202.1040  180.7800  137.0840 O.3       1 ATP601      0.0000 
     19 C2'       200.5680  180.0240  135.4480 C.3       1 ATP601      0.0000 
     20 O2'       201.5190  178.9650  135.4700 O.3       1 ATP601      0.0000 
     21 C1'       199.3320  179.7180  136.2690 C.3       1 ATP601      0.0000 
     22 N9        198.3010  179.1650  135.3730 N.pl3     1 ATP601      0.0000 
     23 C8        197.9890  179.6460  134.1620 C.2       1 ATP601      0.0000 
     24 N7        197.0170  178.9120  133.5780 N.2       1 ATP601      0.0000 
     25 C5        196.7010  177.9310  134.4350 C.ar      1 ATP601      0.0000 
     26 C6        195.7550  176.8080  134.4460 C.ar      1 ATP601      0.0000 
     27 N6        194.9360  176.6020  133.3910 N.pl3     1 ATP601      0.0000 
     28 N1        195.7360  176.0150  135.5320 N.ar      1 ATP601      0.0000 
     29 C2        196.5430  176.2270  136.5780 C.ar      1 ATP601      0.0000 
     30 N3        197.4250  177.2260  136.6350 N.ar      1 ATP601      0.0000 
     31 C4        197.5490  178.0970  135.6140 C.ar      1 ATP601      0.0000 
@<TRIPOS>BOND
     1    1    2 ar   
     2    1    3 ar   
     3    1    4 ar   
     4    1    8 1    
     5    5    6 ar   
     6    5    7 ar   
     7    5    8 1    
     8    5   12 1    
     9    9   10 ar   
    10    9   11 ar   
    11    9   12 1    
    12    9   13 1    
    13   13   14 1    
    14   14   15 1    
    15   15   16 1    
    16   15   17 1    
    17   16   21 1    
    18   17   18 1    
    19   17   19 1    
    20   19   20 1    
    21   19   21 1    
    22   21   22 1    
    23   22   23 1    
    24   22   31 1    
    25   23   24 2    
    26   24   25 1    
    27   25   26 ar   
    28   25   31 ar   
    29   26   27 1    
    30   26   28 ar   
    31   28   29 ar   
    32   29   30 ar   
    33   30   31 ar   
@<TRIPOS>SUBSTRUCTURE
     1 ATP601      1 GROUP   
@<TRIPOS>SET
ATOM$ORANGE STATIC     ATOMS   COLORGROUP SYSTEM 
20 14 14 15 15 17 17 19 19 21 21 23 23 25 25 26 26 29 \
29 31 31 

