#    Name: 6j5i_1_ATP
#    Modification time : Fri May 22 19:25:50 2020

@<TRIPOS>MOLECULE
6j5i_1_ATP
   31    33     1     0     1
SMALL
NO_CHARGES


@<TRIPOS>ATOM
      1 PG        161.0680  216.2310  143.5380 P.3       1 ATP601      0.0000 
      2 O1G       161.5150  215.2790  142.4690 O.co2     1 ATP601      0.0000 
      3 O2G       160.2410  217.3850  143.0500 O.co2     1 ATP601      0.0000 
      4 O3G       162.1080  216.5910  144.5460 O.co2     1 ATP601      0.0000 
      5 PB        159.6670  215.9140  145.8990 P.3       1 ATP601      0.0000 
      6 O1B       160.5970  215.2810  146.8800 O.co2     1 ATP601      0.0000 
      7 O2B       159.5860  217.4050  145.8430 O.co2     1 ATP601      0.0000 
      8 O3B       160.0640  215.3840  144.4420 O.3       1 ATP601      0.0000 
      9 PA        156.9230  215.4330  145.2390 P.3       1 ATP601      0.0000 
     10 O1A       157.3160  215.4490  143.7910 O.co2     1 ATP601      0.0000 
     11 O2A       155.9730  216.4790  145.7510 O.co2     1 ATP601      0.0000 
     12 O3A       158.2140  215.2810  146.1830 O.3       1 ATP601      0.0000 
     13 O5'       156.2200  214.0230  145.4790 O.3       1 ATP601      0.0000 
     14 C5'       156.1920  213.0720  144.4190 C.3       1 ATP601      0.0000 
     15 C4'       155.0480  212.1120  144.6650 C.3       1 ATP601      0.0000 
     16 O4'       154.8330  211.9530  146.0580 O.3       1 ATP601      0.0000 
     17 C3'       153.7720  212.6850  144.1110 C.3       1 ATP601      0.0000 
     18 O3'       153.4020  211.9340  142.9600 O.3       1 ATP601      0.0000 
     19 C2'       152.7460  212.5200  145.2020 C.3       1 ATP601      0.0000 
     20 O2'       151.6710  211.7250  144.7110 O.3       1 ATP601      0.0000 
     21 C1'       153.4480  211.7540  146.2840 C.3       1 ATP601      0.0000 
     22 N9        153.1040  212.2320  147.6290 N.pl3     1 ATP601      0.0000 
     23 C8        153.7090  213.2220  148.2710 C.2       1 ATP601      0.0000 
     24 N7        153.1800  213.4050  149.5000 N.2       1 ATP601      0.0000 
     25 C5        152.2140  212.5050  149.6550 C.ar      1 ATP601      0.0000 
     26 C6        151.2670  212.1530  150.7160 C.ar      1 ATP601      0.0000 
     27 N6        151.2520  212.8280  151.8780 N.pl3     1 ATP601      0.0000 
     28 N1        150.4200  211.1410  150.4950 N.ar      1 ATP601      0.0000 
     29 C2        150.4300  210.4700  149.3380 C.ar      1 ATP601      0.0000 
     30 N3        151.2710  210.7390  148.3290 N.ar      1 ATP601      0.0000 
     31 C4        152.1710  211.7300  148.4240 C.ar      1 ATP601      0.0000 
@<TRIPOS>BOND
     1    1    2 ar   
     2    1    3 ar   
     3    1    4 ar   
     4    1    8 1    
     5    5    6 ar   
     6    5    7 ar   
     7    5    8 1    
     8    5   12 1    
     9    9   10 ar   
    10    9   11 ar   
    11    9   12 1    
    12    9   13 1    
    13   13   14 1    
    14   14   15 1    
    15   15   16 1    
    16   15   17 1    
    17   16   21 1    
    18   17   18 1    
    19   17   19 1    
    20   19   20 1    
    21   19   21 1    
    22   21   22 1    
    23   22   23 1    
    24   22   31 1    
    25   23   24 2    
    26   24   25 1    
    27   25   26 ar   
    28   25   31 ar   
    29   26   27 1    
    30   26   28 ar   
    31   28   29 ar   
    32   29   30 ar   
    33   30   31 ar   
@<TRIPOS>SUBSTRUCTURE
     1 ATP601      1 GROUP   
@<TRIPOS>SET
ATOM$ORANGE STATIC     ATOMS   COLORGROUP SYSTEM 
20 14 14 15 15 17 17 19 19 21 21 23 23 25 25 26 26 29 \
29 31 31 

