#    Name: 6j5i_3_ATP_CAVITY_N1_4
#    Modification time : Fri May 22 19:26:39 2020

@<TRIPOS>MOLECULE
6j5i_3_ATP_CAVITY_N1_4
  136     0     7     0     0
SMALL
NO_CHARGES


@<TRIPOS>ATOM
      1 OG        197.0800  173.7900  136.7000 O.3       1 SER1        0.0000 
      2 OG        195.1500  178.0500  133.5900 O.3       1 SER1        0.0000 
      3 OG        197.7500  175.6500  135.9300 O.3       1 SER1        0.0000 
      4 OG        197.1300  178.7100  133.9900 O.3       1 SER1        0.0000 
      5 OG        195.7600  179.2900  134.1900 O.3       1 SER1        0.0000 
      6 OG        194.3900  179.8700  134.3800 O.3       1 SER1        0.0000 
      7 OG        203.2900  178.2500  132.4500 O.3       1 SER1        0.0000 
      8 OG        197.7400  179.9400  134.5900 O.3       1 SER1        0.0000 
      9 OG        196.3700  180.5200  134.7800 O.3       1 SER1        0.0000 
     10 OG        201.2900  181.8900  130.7000 O.3       1 SER1        0.0000 
     11 OG        201.2200  181.2600  132.0700 O.3       1 SER1        0.0000 
     12 OG        203.8900  179.4800  133.0400 O.3       1 SER1        0.0000 
     13 OG        202.5200  180.0600  133.2400 O.3       1 SER1        0.0000 
     14 OG        203.2000  181.9200  132.4700 O.3       1 SER1        0.0000 
     15 OG        199.7000  184.9000  133.6400 O.3       1 SER1        0.0000 
     16 OG        200.3700  186.7500  132.8700 O.3       1 SER1        0.0000 
     17 N         196.4700  172.5500  136.1100 N.am      2 ALA2        0.0000 
     18 N         195.1000  173.1300  136.3000 N.am      2 ALA2        0.0000 
     19 N         194.4800  176.1900  134.3600 N.am      2 ALA2        0.0000 
     20 N         198.5200  173.8300  135.1400 N.am      2 ALA2        0.0000 
     21 N         197.1500  174.4100  135.3400 N.am      2 ALA2        0.0000 
     22 N         195.7800  174.9900  135.5300 N.am      2 ALA2        0.0000 
     23 N         197.8200  176.2700  134.5700 N.am      2 ALA2        0.0000 
     24 N         196.4500  176.8500  134.7600 N.am      2 ALA2        0.0000 
     25 O         193.7100  178.0100  135.1500 O.2       2 ALA2        0.0000 
     26 N         199.1200  175.0700  135.7400 N.am      2 ALA2        0.0000 
     27 N         198.4300  177.5100  135.1600 N.am      2 ALA2        0.0000 
     28 N         199.7300  176.3100  136.3300 N.am      2 ALA2        0.0000 
     29 O         199.1100  179.3600  134.3900 O.2       2 ALA2        0.0000 
     30 N         201.7800  177.5800  135.3700 N.am      2 ALA2        0.0000 
     31 N         200.4100  178.1600  135.5600 N.am      2 ALA2        0.0000 
     32 O         199.0400  178.7400  135.7600 O.2       2 ALA2        0.0000 
     33 O         199.9900  183.0900  129.5300 O.2       2 ALA2        0.0000 
     34 O         199.9200  182.4600  130.9000 O.2       2 ALA2        0.0000 
     35 O         201.1500  180.6400  133.4300 O.2       2 ALA2        0.0000 
     36 O         199.7800  181.2200  133.6200 O.2       2 ALA2        0.0000 
     37 N         205.1900  178.2800  134.2100 N.am      2 ALA2        0.0000 
     38 N         203.8200  178.8600  134.4100 N.am      2 ALA2        0.0000 
     39 O         202.4500  179.4400  134.6000 O.2       2 ALA2        0.0000 
     40 O         201.0800  180.0200  134.7900 O.2       2 ALA2        0.0000 
     41 O         199.7100  180.6000  134.9900 O.2       2 ALA2        0.0000 
     42 N         203.7500  178.2400  135.7700 N.am      2 ALA2        0.0000 
     43 N         202.3800  178.8200  135.9600 N.am      2 ALA2        0.0000 
     44 O         199.0900  183.6600  133.0500 O.2       2 ALA2        0.0000 
     45 N         204.5000  180.7200  133.6400 N.am      2 ALA2        0.0000 
     46 N         204.4300  180.1000  135.0000 N.am      2 ALA2        0.0000 
     47 O         197.5800  182.9900  135.9700 O.2       2 ALA2        0.0000 
     48 N         204.3600  179.4800  136.3600 N.am      2 ALA2        0.0000 
     49 N         202.9900  180.0600  136.5600 N.am      2 ALA2        0.0000 
     50 N         200.2500  181.2200  136.9500 N.am      2 ALA2        0.0000 
     51 N         202.9200  179.4400  137.9200 N.am      2 ALA2        0.0000 
     52 N         202.8500  178.8100  139.2900 N.am      2 ALA2        0.0000 
     53 O         198.3300  185.4700  133.8400 O.2       2 ALA2        0.0000 
     54 O         202.3700  183.1200  134.6200 O.2       2 ALA2        0.0000 
     55 O         201.0000  183.6900  134.8100 O.2       2 ALA2        0.0000 
     56 O         198.2600  184.8500  135.2000 O.2       2 ALA2        0.0000 
     57 N         203.6700  181.9200  135.7900 N.am      2 ALA2        0.0000 
     58 O         202.3000  182.4900  135.9800 O.2       2 ALA2        0.0000 
     59 N         200.9300  183.0700  136.1800 N.am      2 ALA2        0.0000 
     60 N         199.5600  183.6500  136.3700 N.am      2 ALA2        0.0000 
     61 O         198.1900  184.2300  136.5600 O.2       2 ALA2        0.0000 
     62 N         202.2300  181.8700  137.3500 N.am      2 ALA2        0.0000 
     63 N         199.4900  183.0300  137.7300 N.am      2 ALA2        0.0000 
     64 N         202.1600  181.2500  138.7100 N.am      2 ALA2        0.0000 
     65 N         200.7900  181.8300  138.9000 N.am      2 ALA2        0.0000 
     66 N         199.4200  182.4100  139.1000 N.am      2 ALA2        0.0000 
     67 N         203.4600  180.0500  139.8800 N.am      2 ALA2        0.0000 
     68 N         202.0900  180.6300  140.0700 N.am      2 ALA2        0.0000 
     69 N         200.7200  181.2100  140.2700 N.am      2 ALA2        0.0000 
     70 O         201.6700  185.5500  134.0400 O.2       2 ALA2        0.0000 
     71 O         200.3000  186.1300  134.2400 O.2       2 ALA2        0.0000 
     72 O         200.2300  185.5100  135.6000 O.2       2 ALA2        0.0000 
     73 O         202.6900  181.8700  140.6700 O.2       2 ALA2        0.0000 
     74 OD1       195.6400  173.7500  138.2600 O.co2     3 ASP3        0.0000 
     75 OD1       198.3600  176.8800  136.5300 O.co2     3 ASP3        0.0000 
     76 OD1       196.9900  177.4600  136.7200 O.co2     3 ASP3        0.0000 
     77 OD1       200.3400  177.5400  136.9300 O.co2     3 ASP3        0.0000 
     78 OD1       200.9400  178.7800  137.5200 O.co2     3 ASP3        0.0000 
     79 OD1       199.5700  179.3600  137.7100 O.co2     3 ASP3        0.0000 
     80 OD1       201.5500  180.0100  138.1200 O.co2     3 ASP3        0.0000 
     81 OD1       200.1800  180.5900  138.3100 O.co2     3 ASP3        0.0000 
     82 OD1       201.4800  179.3900  139.4800 O.co2     3 ASP3        0.0000 
     83 OD1       200.1100  179.9700  139.6700 O.co2     3 ASP3        0.0000 
     84 OD1       203.8800  183.7800  131.7000 O.co2     3 ASP3        0.0000 
     85 OD1       202.5100  184.3600  131.8900 O.co2     3 ASP3        0.0000 
     86 OD1       203.8100  183.1600  133.0600 O.co2     3 ASP3        0.0000 
     87 OD1       202.4400  183.7400  133.2600 O.co2     3 ASP3        0.0000 
     88 OD1       203.1800  186.2200  131.1200 O.co2     3 ASP3        0.0000 
     89 OD1       198.9300  186.7100  134.4300 O.co2     3 ASP3        0.0000 
     90 NZ        203.2200  177.6300  133.8100 N.4       4 LYS4        0.0000 
     91 CZ        195.6900  178.6600  135.5500 C.ar      5 PHE5        0.0000 
     92 CZ        194.3200  179.2400  135.7400 C.ar      5 PHE5        0.0000 
     93 CZ        195.6200  178.0400  136.9100 C.ar      5 PHE5        0.0000 
     94 CZ        197.6700  179.3200  135.9500 C.ar      5 PHE5        0.0000 
     95 CZ        196.3000  179.9000  136.1400 C.ar      5 PHE5        0.0000 
     96 CZ        197.6000  178.7000  137.3100 C.ar      5 PHE5        0.0000 
     97 CZ        198.2700  180.5600  136.5400 C.ar      5 PHE5        0.0000 
     98 CZ        198.8800  181.7900  137.1400 C.ar      5 PHE5        0.0000 
     99 CZ        197.5100  182.3700  137.3300 C.ar      5 PHE5        0.0000 
    100 CZ        199.3500  181.7900  140.4600 C.ar      5 PHE5        0.0000 
    101 CA        194.4100  175.5700  135.7200 C.3       6 GLY6        0.0000 
    102 CA        195.7100  174.3700  136.8900 C.3       6 GLY6        0.0000 
    103 CA        196.5200  177.4700  133.4000 C.3       6 GLY6        0.0000 
    104 CA        193.7800  178.6300  133.7900 C.3       6 GLY6        0.0000 
    105 CA        195.0800  177.4300  134.9500 C.3       6 GLY6        0.0000 
    106 CA        196.3800  176.2300  136.1200 C.3       6 GLY6        0.0000 
    107 CA        195.0100  176.8100  136.3200 C.3       6 GLY6        0.0000 
    108 CA        196.3100  175.6100  137.4900 C.3       6 GLY6        0.0000 
    109 CA        199.8500  181.8400  132.2600 C.3       6 GLY6        0.0000 
    110 CA        198.4100  181.8000  133.8200 C.3       6 GLY6        0.0000 
    111 CA        196.9700  181.7600  135.3800 C.3       6 GLY6        0.0000 
    112 CA        200.5300  183.7000  131.4900 C.3       6 GLY6        0.0000 
    113 CA        199.1600  184.2800  131.6900 C.3       6 GLY6        0.0000 
    114 CA        197.7200  184.2400  133.2400 C.3       6 GLY6        0.0000 
    115 CA        199.0200  183.0400  134.4100 C.3       6 GLY6        0.0000 
    116 CA        202.5800  184.9800  130.5300 C.3       6 GLY6        0.0000 
    117 CA        201.1400  184.9400  132.0900 C.3       6 GLY6        0.0000 
    118 CA        203.7400  182.5400  134.4300 C.3       6 GLY6        0.0000 
    119 CA        199.6300  184.2700  135.0100 C.3       6 GLY6        0.0000 
    120 CA        204.3400  183.7700  135.0200 C.3       6 GLY6        0.0000 
    121 DU        197.0600  178.0900  135.3600 H         7 CUB7        0.0000 
    122 DU        198.3400  181.1800  135.1800 H         7 CUB7        0.0000 
    123 DU        201.0100  179.4000  136.1600 H         7 CUB7        0.0000 
    124 DU        199.6400  179.9800  136.3500 H         7 CUB7        0.0000 
    125 DU        201.9000  183.1200  131.3000 H         7 CUB7        0.0000 
    126 DU        201.8300  182.5000  132.6600 H         7 CUB7        0.0000 
    127 DU        200.4600  183.0800  132.8600 H         7 CUB7        0.0000 
    128 DU        203.1300  181.3000  133.8300 H         7 CUB7        0.0000 
    129 DU        201.7600  181.8800  134.0300 H         7 CUB7        0.0000 
    130 DU        200.3900  182.4600  134.2200 H         7 CUB7        0.0000 
    131 DU        203.0600  180.6800  135.1900 H         7 CUB7        0.0000 
    132 DU        201.6900  181.2600  135.3900 H         7 CUB7        0.0000 
    133 DU        200.3200  181.8400  135.5800 H         7 CUB7        0.0000 
    134 DU        198.9500  182.4200  135.7800 H         7 CUB7        0.0000 
    135 DU        201.6200  180.6400  136.7500 H         7 CUB7        0.0000 
    136 DU        201.0700  184.3200  133.4500 H         7 CUB7        0.0000 
@<TRIPOS>BOND
@<TRIPOS>SUBSTRUCTURE
     1 SER1        1 GROUP   
     2 ALA2       17 GROUP   
     3 ASP3       74 GROUP   
     4 LYS4       90 GROUP   
     5 PHE5       91 GROUP   
     6 GLY6      101 GROUP   
     7 CUB7      121 GROUP   
@<TRIPOS>SET

