#    Name: 6j5i_4_ADP
#    Modification time : Fri May 22 19:27:01 2020

@<TRIPOS>MOLECULE
6j5i_4_ADP
   27    29     1     0     1
SMALL
NO_CHARGES


@<TRIPOS>ATOM
      1 PB        212.7800  196.9610  157.2660 P.3       1 ADP501      0.0000 
      2 O1B       213.1600  197.4160  155.8880 O.co2     1 ADP501      0.0000 
      3 O2B       212.1640  198.0240  158.1270 O.co2     1 ADP501      0.0000 
      4 O3B       212.0830  195.6460  157.3210 O.co2     1 ADP501      0.0000 
      5 PA        214.4870  195.5020  158.9870 P.3       1 ADP501      0.0000 
      6 O1A       214.2680  194.1800  158.3350 O.co2     1 ADP501      0.0000 
      7 O2A       215.8320  195.7990  159.5860 O.co2     1 ADP501      0.0000 
      8 O3A       214.1990  196.6550  157.9210 O.3       1 ADP501      0.0000 
      9 O5'       213.4370  195.6220  160.1740 O.3       1 ADP501      0.0000 
     10 C5'       212.6390  194.4880  160.4390 C.3       1 ADP501      0.0000 
     11 C4'       212.5070  194.2470  161.9330 C.3       1 ADP501      0.0000 
     12 O4'       211.5900  193.1730  162.1210 O.3       1 ADP501      0.0000 
     13 C3'       213.7900  193.7960  162.5920 C.3       1 ADP501      0.0000 
     14 O3'       214.3390  194.8270  163.4000 O.3       1 ADP501      0.0000 
     15 C2'       213.3950  192.6740  163.5170 C.3       1 ADP501      0.0000 
     16 O2'       213.1390  193.2000  164.8140 O.3       1 ADP501      0.0000 
     17 C1'       212.0950  192.1540  162.9780 C.3       1 ADP501      0.0000 
     18 N9        212.3550  190.9320  162.1780 N.pl3     1 ADP501      0.0000 
     19 C8        212.5170  190.8930  160.8480 C.2       1 ADP501      0.0000 
     20 N7        212.7250  189.6360  160.4020 N.2       1 ADP501      0.0000 
     21 C5        212.6940  188.8380  161.4710 C.ar      1 ADP501      0.0000 
     22 C6        212.8450  187.3980  161.7040 C.ar      1 ADP501      0.0000 
     23 N6        213.0750  186.5560  160.6750 N.pl3     1 ADP501      0.0000 
     24 N1        212.7470  186.9540  162.9690 N.ar      1 ADP501      0.0000 
     25 C2        212.5190  187.7870  163.9960 C.ar      1 ADP501      0.0000 
     26 N3        212.3740  189.1090  163.8540 N.ar      1 ADP501      0.0000 
     27 C4        212.4530  189.6880  162.6380 C.ar      1 ADP501      0.0000 
@<TRIPOS>BOND
     1    1    2 ar   
     2    1    3 ar   
     3    1    4 ar   
     4    1    8 1    
     5    5    6 ar   
     6    5    7 ar   
     7    5    8 1    
     8    5    9 1    
     9    9   10 1    
    10   10   11 1    
    11   11   12 1    
    12   11   13 1    
    13   12   17 1    
    14   13   14 1    
    15   13   15 1    
    16   15   16 1    
    17   15   17 1    
    18   17   18 1    
    19   18   19 1    
    20   18   27 1    
    21   19   20 2    
    22   20   21 1    
    23   21   22 ar   
    24   21   27 ar   
    25   22   23 1    
    26   22   24 ar   
    27   24   25 ar   
    28   25   26 ar   
    29   26   27 ar   
@<TRIPOS>SUBSTRUCTURE
     1 ADP501      1 GROUP   
@<TRIPOS>SET
ATOM$ORANGE STATIC     ATOMS   COLORGROUP SYSTEM 
20 10 10 11 11 13 13 15 15 17 17 19 19 21 21 22 22 25 \
25 27 27 

