#    Name: 6j5i_2_ATP
#    Modification time : Fri May 22 19:26:13 2020

@<TRIPOS>MOLECULE
6j5i_2_ATP
   31    33     1     0     1
SMALL
NO_CHARGES


@<TRIPOS>ATOM
      1 PG        201.3000  216.7990  173.7320 P.3       1 ATP601      0.0000 
      2 O1G       200.0670  216.6450  172.8930 O.co2     1 ATP601      0.0000 
      3 O2G       201.2860  218.0280  174.5930 O.co2     1 ATP601      0.0000 
      4 O3G       202.5710  216.5740  172.9700 O.co2     1 ATP601      0.0000 
      5 PB        202.5990  214.8600  175.2610 P.3       1 ATP601      0.0000 
      6 O1B       202.8590  213.7460  174.2950 O.co2     1 ATP601      0.0000 
      7 O2B       203.6530  215.8850  175.5480 O.co2     1 ATP601      0.0000 
      8 O3B       201.2610  215.6110  174.8070 O.3       1 ATP601      0.0000 
      9 PA        202.8580  214.5270  178.0010 P.3       1 ATP601      0.0000 
     10 O1A       202.8560  216.0050  178.2460 O.co2     1 ATP601      0.0000 
     11 O2A       204.1660  213.8080  178.0870 O.co2     1 ATP601      0.0000 
     12 O3A       202.1200  214.1960  176.6270 O.3       1 ATP601      0.0000 
     13 O5'       201.8260  213.9000  179.0440 O.3       1 ATP601      0.0000 
     14 C5'       201.4790  214.7260  180.1340 C.3       1 ATP601      0.0000 
     15 C4'       200.6520  213.9380  181.1140 C.3       1 ATP601      0.0000 
     16 O4'       201.1290  212.6010  181.1490 O.3       1 ATP601      0.0000 
     17 C3'       200.8330  214.4920  182.5150 C.3       1 ATP601      0.0000 
     18 O3'       199.7070  215.2660  182.9270 O.3       1 ATP601      0.0000 
     19 C2'       200.9690  213.2760  183.3990 C.3       1 ATP601      0.0000 
     20 O2'       199.8640  213.2170  184.2940 O.3       1 ATP601      0.0000 
     21 C1'       200.9200  212.0880  182.4620 C.3       1 ATP601      0.0000 
     22 N9        201.9910  211.1390  182.8080 N.pl3     1 ATP601      0.0000 
     23 C8        203.0540  210.8640  182.0420 C.2       1 ATP601      0.0000 
     24 N7        203.8500  209.9430  182.6340 N.2       1 ATP601      0.0000 
     25 C5        203.2840  209.6170  183.8090 C.ar      1 ATP601      0.0000 
     26 C6        203.6010  208.7040  184.9260 C.ar      1 ATP601      0.0000 
     27 N6        204.7220  207.9480  184.9030 N.pl3     1 ATP601      0.0000 
     28 N1        202.7510  208.6540  185.9690 N.ar      1 ATP601      0.0000 
     29 C2        201.6420  209.4060  186.0020 C.ar      1 ATP601      0.0000 
     30 N3        201.2920  210.2540  185.0230 N.ar      1 ATP601      0.0000 
     31 C4        202.0550  210.4030  183.9170 C.ar      1 ATP601      0.0000 
@<TRIPOS>BOND
     1    1    2 ar   
     2    1    3 ar   
     3    1    4 ar   
     4    1    8 1    
     5    5    6 ar   
     6    5    7 ar   
     7    5    8 1    
     8    5   12 1    
     9    9   10 ar   
    10    9   11 ar   
    11    9   12 1    
    12    9   13 1    
    13   13   14 1    
    14   14   15 1    
    15   15   16 1    
    16   15   17 1    
    17   16   21 1    
    18   17   18 1    
    19   17   19 1    
    20   19   20 1    
    21   19   21 1    
    22   21   22 1    
    23   22   23 1    
    24   22   31 1    
    25   23   24 2    
    26   24   25 1    
    27   25   26 ar   
    28   25   31 ar   
    29   26   27 1    
    30   26   28 ar   
    31   28   29 ar   
    32   29   30 ar   
    33   30   31 ar   
@<TRIPOS>SUBSTRUCTURE
     1 ATP601      1 GROUP   
@<TRIPOS>SET
ATOM$ORANGE STATIC     ATOMS   COLORGROUP SYSTEM 
20 14 14 15 15 17 17 19 19 21 21 23 23 25 25 26 26 29 \
29 31 31 

