#    Name: 5xiq_5_ANP
#    Modification time : Fri May 22 19:17:52 2020

@<TRIPOS>MOLECULE
5xiq_5_ANP
   31    33     1     0     1
SMALL
NO_CHARGES


@<TRIPOS>ATOM
      1 PG         -9.9600    8.6490  -16.5030 P.3       1 ANP1001     0.0000 
      2 O1G       -11.2980    9.0790  -16.8970 O.co2     1 ANP1001     0.0000 
      3 O2G        -9.0850    9.8480  -16.1170 O.co2     1 ANP1001     0.0000 
      4 O3G       -10.0120    7.7410  -15.2480 O.co2     1 ANP1001     0.0000 
      5 PB         -8.0560    6.9230  -17.3930 P.3       1 ANP1001     0.0000 
      6 O1B        -6.7730    7.5580  -17.4780 O.co2     1 ANP1001     0.0000 
      7 O2B        -8.2160    6.1080  -16.1010 O.co2     1 ANP1001     0.0000 
      8 N3B        -9.3050    7.8570  -17.7690 N.3       1 ANP1001     0.0000 
      9 PA         -7.0850    4.6710  -19.0250 P.3       1 ANP1001     0.0000 
     10 O1A        -6.2460    5.1510  -20.1450 O.co2     1 ANP1001     0.0000 
     11 O2A        -6.4260    4.1360  -17.8130 O.co2     1 ANP1001     0.0000 
     12 O3A        -8.0880    5.8480  -18.5900 O.3       1 ANP1001     0.0000 
     13 O5'        -8.0850    3.5810  -19.5770 O.3       1 ANP1001     0.0000 
     14 C5'        -8.2670    3.4030  -20.9680 C.3       1 ANP1001     0.0000 
     15 C4'        -9.7390    3.5440  -21.3190 C.3       1 ANP1001     0.0000 
     16 O4'       -10.4970    2.6970  -20.4430 O.3       1 ANP1001     0.0000 
     17 C3'       -10.1920    4.9300  -20.9580 C.3       1 ANP1001     0.0000 
     18 O3'        -9.8570    5.8460  -22.0130 O.3       1 ANP1001     0.0000 
     19 C2'       -11.6820    4.7470  -20.8560 C.3       1 ANP1001     0.0000 
     20 O2'       -12.2730    4.6710  -22.1630 O.3       1 ANP1001     0.0000 
     21 C1'       -11.7590    3.3700  -20.1960 C.3       1 ANP1001     0.0000 
     22 N9        -11.9730    3.4940  -18.7570 N.pl3     1 ANP1001     0.0000 
     23 C8        -11.2280    4.1900  -17.8410 C.2       1 ANP1001     0.0000 
     24 N7        -11.6760    4.0770  -16.5930 N.2       1 ANP1001     0.0000 
     25 C5        -12.7720    3.2350  -16.7310 C.ar      1 ANP1001     0.0000 
     26 C6        -13.6960    2.7120  -15.8030 C.ar      1 ANP1001     0.0000 
     27 N6        -13.6450    2.9730  -14.5090 N.pl3     1 ANP1001     0.0000 
     28 N1        -14.6730    1.9100  -16.2420 N.ar      1 ANP1001     0.0000 
     29 C2        -14.7380    1.6310  -17.5350 C.ar      1 ANP1001     0.0000 
     30 N3        -13.9310    2.0690  -18.4920 N.ar      1 ANP1001     0.0000 
     31 C4        -12.9530    2.8700  -18.0540 C.ar      1 ANP1001     0.0000 
@<TRIPOS>BOND
     1    1    2 ar   
     2    1    3 ar   
     3    1    4 ar   
     4    1    8 1    
     5    5    6 ar   
     6    5    7 ar   
     7    5    8 1    
     8    5   12 1    
     9    9   10 ar   
    10    9   11 ar   
    11    9   12 1    
    12    9   13 1    
    13   13   14 1    
    14   14   15 1    
    15   15   16 1    
    16   15   17 1    
    17   16   21 1    
    18   17   18 1    
    19   17   19 1    
    20   19   20 1    
    21   19   21 1    
    22   21   22 1    
    23   22   23 1    
    24   22   31 1    
    25   23   24 2    
    26   24   25 1    
    27   25   26 ar   
    28   25   31 ar   
    29   26   27 1    
    30   26   28 ar   
    31   28   29 ar   
    32   29   30 ar   
    33   30   31 ar   
@<TRIPOS>SUBSTRUCTURE
     1 ANP1001     1 GROUP   
@<TRIPOS>SET
ATOM$ORANGE STATIC     ATOMS   COLORGROUP SYSTEM 
20 14 14 15 15 17 17 19 19 21 21 23 23 25 25 26 26 29 \
29 31 31 

