#    Name: 5xiq_4_ANP_CAVITY_N1_12
#    Modification time : Fri May 22 19:17:59 2020

@<TRIPOS>MOLECULE
5xiq_4_ANP_CAVITY_N1_12
  123     0     7     0     0
SMALL
NO_CHARGES


@<TRIPOS>ATOM
      1 OG         10.9900   24.0800   33.9900 O.3       1 SER1        0.0000 
      2 OG         10.8800   26.6800   33.9800 O.3       1 SER1        0.0000 
      3 OG         11.6400   24.9800   35.0000 O.3       1 SER1        0.0000 
      4 OG         19.9700   27.0600   32.3100 O.3       1 SER1        0.0000 
      5 OG         21.2300   26.2500   32.2300 O.3       1 SER1        0.0000 
      6 OG         20.2200   24.4800   34.4400 O.3       1 SER1        0.0000 
      7 OG         20.1100   27.0700   34.4300 O.3       1 SER1        0.0000 
      8 OG         21.3700   26.2600   34.3500 O.3       1 SER1        0.0000 
      9 N           9.2300   24.0100   35.1700 N.am      2 ALA2        0.0000 
     10 N           9.8700   24.9100   36.1800 N.am      2 ALA2        0.0000 
     11 N          14.4000   26.8300   31.6200 N.am      2 ALA2        0.0000 
     12 N          19.9400   24.4600   30.2000 N.am      2 ALA2        0.0000 
     13 N          15.0500   27.7200   32.6400 N.am      2 ALA2        0.0000 
     14 O          18.0700   26.9800   31.3800 O.2       2 ALA2        0.0000 
     15 O          19.3200   26.1700   31.3000 O.2       2 ALA2        0.0000 
     16 O          21.0900   26.2400   30.1200 O.2       2 ALA2        0.0000 
     17 N          14.4300   29.4300   33.7300 N.am      2 ALA2        0.0000 
     18 N          13.9300   28.5500   34.8300 N.am      2 ALA2        0.0000 
     19 N          14.0700   28.5600   36.9500 N.am      2 ALA2        0.0000 
     20 N          16.3400   29.5100   34.6700 N.am      2 ALA2        0.0000 
     21 N          15.8300   28.6300   35.7700 N.am      2 ALA2        0.0000 
     22 N          13.4600   30.2700   38.0500 N.am      2 ALA2        0.0000 
     23 N          14.7200   29.4500   37.9700 N.am      2 ALA2        0.0000 
     24 N          16.4800   29.5200   36.7900 N.am      2 ALA2        0.0000 
     25 OD1        10.3800   25.7900   35.0800 O.co2     3 ASP3        0.0000 
     26 OD1        12.0300   28.4600   33.9000 O.co2     3 ASP3        0.0000 
     27 OD1        11.5300   27.5800   35.0000 O.co2     3 ASP3        0.0000 
     28 OD1        10.5200   25.8000   37.2000 O.co2     3 ASP3        0.0000 
     29 OD1        12.2800   25.8800   36.0200 O.co2     3 ASP3        0.0000 
     30 OD1        11.7800   24.9900   37.1200 O.co2     3 ASP3        0.0000 
     31 OD1        13.5400   25.0600   35.9400 O.co2     3 ASP3        0.0000 
     32 OD1        13.0300   24.1800   37.0400 O.co2     3 ASP3        0.0000 
     33 OD1        15.3000   25.1400   34.7600 O.co2     3 ASP3        0.0000 
     34 OD1        12.6700   29.3600   34.9100 O.co2     3 ASP3        0.0000 
     35 OD1        12.1700   28.4700   36.0100 O.co2     3 ASP3        0.0000 
     36 OD1        11.1600   26.7000   38.2200 O.co2     3 ASP3        0.0000 
     37 OD1        12.9200   26.7700   37.0400 O.co2     3 ASP3        0.0000 
     38 OD1        12.4200   25.8900   38.1400 O.co2     3 ASP3        0.0000 
     39 OD1        14.6800   26.8500   35.8500 O.co2     3 ASP3        0.0000 
     40 OD1        14.1800   25.9600   36.9600 O.co2     3 ASP3        0.0000 
     41 OD1        15.9400   26.0300   35.7800 O.co2     3 ASP3        0.0000 
     42 OD1        17.2000   25.2200   35.7000 O.co2     3 ASP3        0.0000 
     43 OD1        12.8100   29.3700   37.0300 O.co2     3 ASP3        0.0000 
     44 OD1        12.3100   28.4800   38.1300 O.co2     3 ASP3        0.0000 
     45 OD1        13.5700   27.6700   38.0500 O.co2     3 ASP3        0.0000 
     46 OD1        13.0600   26.7800   39.1500 O.co2     3 ASP3        0.0000 
     47 OD1        14.8300   26.8600   37.9700 O.co2     3 ASP3        0.0000 
     48 OD1        16.5900   26.9300   36.7900 O.co2     3 ASP3        0.0000 
     49 OD1        17.8400   26.1200   36.7100 O.co2     3 ASP3        0.0000 
     50 OD1        19.1000   25.3000   36.6300 O.co2     3 ASP3        0.0000 
     51 OD1        20.3600   24.4900   36.5500 O.co2     3 ASP3        0.0000 
     52 OD1        11.7000   30.1900   39.2300 O.co2     3 ASP3        0.0000 
     53 OD1        12.9500   29.3800   39.1500 O.co2     3 ASP3        0.0000 
     54 OD1        14.2100   28.5700   39.0700 O.co2     3 ASP3        0.0000 
     55 OD1        13.7100   27.6800   40.1700 O.co2     3 ASP3        0.0000 
     56 OD1        15.4700   27.7500   38.9900 O.co2     3 ASP3        0.0000 
     57 OD1        16.7300   26.9400   38.9100 O.co2     3 ASP3        0.0000 
     58 OD1        17.9800   26.1300   38.8300 O.co2     3 ASP3        0.0000 
     59 OD1        19.2400   25.3100   38.7500 O.co2     3 ASP3        0.0000 
     60 OD1        17.3700   27.8400   39.9200 O.co2     3 ASP3        0.0000 
     61 OD1        18.6300   27.0200   39.8400 O.co2     3 ASP3        0.0000 
     62 NZ         11.2700   24.1100   38.2200 N.4       4 LYS4        0.0000 
     63 NZ         21.8400   24.5400   31.1400 N.4       4 LYS4        0.0000 
     64 NZ         20.7200   25.3600   33.3300 N.4       4 LYS4        0.0000 
     65 NZ         22.4800   25.4400   32.1500 N.4       4 LYS4        0.0000 
     66 NZ         22.6200   25.4500   34.2700 N.4       4 LYS4        0.0000 
     67 NZ         22.1200   24.5600   35.3700 N.4       4 LYS4        0.0000 
     68 CZ         10.4900   23.2000   35.0900 C.ar      5 PHE5        0.0000 
     69 CZ         11.1300   24.0900   36.1000 C.ar      5 PHE5        0.0000 
     70 CZ         10.6300   23.2100   37.2100 C.ar      5 PHE5        0.0000 
     71 CZ         12.8900   24.1700   34.9200 C.ar      5 PHE5        0.0000 
     72 CZ         15.1600   25.1300   32.6400 C.ar      5 PHE5        0.0000 
     73 CZ         14.6500   24.2400   33.7400 C.ar      5 PHE5        0.0000 
     74 CZ         15.8000   26.0200   33.6600 C.ar      5 PHE5        0.0000 
     75 CZ         17.5600   26.0900   32.4800 C.ar      5 PHE5        0.0000 
     76 CZ         18.8200   25.2800   32.4000 C.ar      5 PHE5        0.0000 
     77 CZ         20.0800   24.4700   32.3200 C.ar      5 PHE5        0.0000 
     78 CZ         17.7000   26.1000   34.5900 C.ar      5 PHE5        0.0000 
     79 CZ         19.4600   26.1800   33.4100 C.ar      5 PHE5        0.0000 
     80 CZ         18.9600   25.2900   34.5200 C.ar      5 PHE5        0.0000 
     81 CZ         21.5100   26.2700   36.4700 C.ar      5 PHE5        0.0000 
     82 CZ         21.0000   25.3800   37.5700 C.ar      5 PHE5        0.0000 
     83 CZ         20.5000   24.5000   38.6700 C.ar      5 PHE5        0.0000 
     84 CZ         22.7600   25.4600   36.3900 C.ar      5 PHE5        0.0000 
     85 CZ         22.2600   24.5700   37.4900 C.ar      5 PHE5        0.0000 
     86 CZ         20.3900   27.0900   38.6600 C.ar      5 PHE5        0.0000 
     87 CZ         19.8900   26.2100   39.7600 C.ar      5 PHE5        0.0000 
     88 CZ         21.6500   26.2800   38.5800 C.ar      5 PHE5        0.0000 
     89 CZ         19.2700   27.9200   40.8600 C.ar      5 PHE5        0.0000 
     90 CZ         21.0300   27.9900   39.6800 C.ar      5 PHE5        0.0000 
     91 CA          9.3700   24.0200   37.2800 C.3       6 GLY6        0.0000 
     92 CA         12.6400   26.7500   32.8000 C.3       6 GLY6        0.0000 
     93 CA         12.1400   25.8700   33.9000 C.3       6 GLY6        0.0000 
     94 CA         13.9000   25.9400   32.7200 C.3       6 GLY6        0.0000 
     95 CA         13.4000   25.0500   33.8200 C.3       6 GLY6        0.0000 
     96 CA         15.6600   26.0100   31.5400 C.3       6 GLY6        0.0000 
     97 CA         10.0200   24.9200   38.3000 C.3       6 GLY6        0.0000 
     98 CA         13.7900   28.5300   32.7200 C.3       6 GLY6        0.0000 
     99 CA         16.3100   26.9100   32.5600 C.3       6 GLY6        0.0000 
    100 CA         20.5800   25.3500   31.2200 C.3       6 GLY6        0.0000 
    101 CA         15.6900   28.6200   33.6500 C.3       6 GLY6        0.0000 
    102 CA         16.9500   27.8000   33.5700 C.3       6 GLY6        0.0000 
    103 CA         18.2100   26.9900   33.4900 C.3       6 GLY6        0.0000 
    104 CA         18.8500   27.8900   34.5100 C.3       6 GLY6        0.0000 
    105 CA         21.6200   23.6700   36.4700 C.3       6 GLY6        0.0000 
    106 DU         13.2900   27.6500   33.8200 H         7 CUB7        0.0000 
    107 DU         12.7800   26.7600   34.9200 H         7 CUB7        0.0000 
    108 DU         14.5400   26.8400   33.7400 H         7 CUB7        0.0000 
    109 DU         14.0400   25.9500   34.8400 H         7 CUB7        0.0000 
    110 DU         13.4300   27.6600   35.9300 H         7 CUB7        0.0000 
    111 DU         15.1900   27.7300   34.7500 H         7 CUB7        0.0000 
    112 DU         16.4500   26.9200   34.6700 H         7 CUB7        0.0000 
    113 DU         15.3300   27.7400   36.8700 H         7 CUB7        0.0000 
    114 DU         18.3500   27.0000   35.6100 H         7 CUB7        0.0000 
    115 DU         19.6100   26.1900   35.5300 H         7 CUB7        0.0000 
    116 DU         20.8600   25.3700   35.4500 H         7 CUB7        0.0000 
    117 DU         15.9700   28.6400   37.8900 H         7 CUB7        0.0000 
    118 DU         17.2300   27.8200   37.8100 H         7 CUB7        0.0000 
    119 DU         18.4900   27.0100   37.7300 H         7 CUB7        0.0000 
    120 DU         19.7500   26.2000   37.6500 H         7 CUB7        0.0000 
    121 DU         17.8700   28.7200   38.8200 H         7 CUB7        0.0000 
    122 DU         19.1300   27.9100   38.7400 H         7 CUB7        0.0000 
    123 DU         19.7800   28.8000   39.7600 H         7 CUB7        0.0000 
@<TRIPOS>BOND
@<TRIPOS>SUBSTRUCTURE
     1 SER1        1 GROUP   
     2 ALA2        9 GROUP   
     3 ASP3       25 GROUP   
     4 LYS4       62 GROUP   
     5 PHE5       68 GROUP   
     6 GLY6       91 GROUP   
     7 CUB7      106 GROUP   
@<TRIPOS>SET

