#    Name: 5xiq_4_ANP
#    Modification time : Fri May 22 19:17:58 2020

@<TRIPOS>MOLECULE
5xiq_4_ANP
   31    33     1     0     1
SMALL
NO_CHARGES


@<TRIPOS>ATOM
      1 PG         14.2890   28.5240   40.1710 P.3       1 ANP1001     0.0000 
      2 O1G        13.2370   29.5340   40.1460 O.co2     1 ANP1001     0.0000 
      3 O2G        15.4650   28.9440   41.1040 O.co2     1 ANP1001     0.0000 
      4 O3G        13.7690   27.1680   40.7380 O.co2     1 ANP1001     0.0000 
      5 PB         16.2620   27.5650   38.5680 P.3       1 ANP1001     0.0000 
      6 O1B        17.3960   28.4310   38.4310 O.co2     1 ANP1001     0.0000 
      7 O2B        16.4800   26.4980   39.6500 O.co2     1 ANP1001     0.0000 
      8 N3B        14.8330   28.3210   38.6360 N.3       1 ANP1001     0.0000 
      9 PA         17.0920   26.7680   35.8590 P.3       1 ANP1001     0.0000 
     10 O1A        17.5110   28.1600   35.5870 O.co2     1 ANP1001     0.0000 
     11 O2A        18.1290   25.7220   35.9950 O.co2     1 ANP1001     0.0000 
     12 O3A        16.1700   26.7550   37.1780 O.3       1 ANP1001     0.0000 
     13 O5'        16.0780   26.3240   34.7430 O.3       1 ANP1001     0.0000 
     14 C5'        16.0100   27.0090   33.5150 C.3       1 ANP1001     0.0000 
     15 C4'        14.5620   27.3860   33.2300 C.3       1 ANP1001     0.0000 
     16 O4'        13.7000   26.2470   33.3540 O.3       1 ANP1001     0.0000 
     17 C3'        14.1220   28.3100   34.3350 C.3       1 ANP1001     0.0000 
     18 O3'        14.5520   29.6510   34.0510 O.3       1 ANP1001     0.0000 
     19 C2'        12.6260   28.1990   34.2620 C.3       1 ANP1001     0.0000 
     20 O2'        12.1190   28.9430   33.1420 O.3       1 ANP1001     0.0000 
     21 C1'        12.4680   26.7100   33.9780 C.3       1 ANP1001     0.0000 
     22 N9         12.2660   25.9240   35.2060 N.pl3     1 ANP1001     0.0000 
     23 C8         12.9880   25.9170   36.3690 C.2       1 ANP1001     0.0000 
     24 N7         12.5670   25.0360   37.2590 N.2       1 ANP1001     0.0000 
     25 C5         11.5010   24.4250   36.6230 C.ar      1 ANP1001     0.0000 
     26 C6         10.6180   23.4000   37.0110 C.ar      1 ANP1001     0.0000 
     27 N6         10.6780   22.8140   38.2030 N.pl3     1 ANP1001     0.0000 
     28 N1          9.6710   23.0130   36.1520 N.ar      1 ANP1001     0.0000 
     29 C2          9.5920   23.6000   34.9660 C.ar      1 ANP1001     0.0000 
     30 N3         10.3670   24.5680   34.4990 N.ar      1 ANP1001     0.0000 
     31 C4         11.3180   24.9630   35.3580 C.ar      1 ANP1001     0.0000 
@<TRIPOS>BOND
     1    1    2 ar   
     2    1    3 ar   
     3    1    4 ar   
     4    1    8 1    
     5    5    6 ar   
     6    5    7 ar   
     7    5    8 1    
     8    5   12 1    
     9    9   10 ar   
    10    9   11 ar   
    11    9   12 1    
    12    9   13 1    
    13   13   14 1    
    14   14   15 1    
    15   15   16 1    
    16   15   17 1    
    17   16   21 1    
    18   17   18 1    
    19   17   19 1    
    20   19   20 1    
    21   19   21 1    
    22   21   22 1    
    23   22   23 1    
    24   22   31 1    
    25   23   24 2    
    26   24   25 1    
    27   25   26 ar   
    28   25   31 ar   
    29   26   27 1    
    30   26   28 ar   
    31   28   29 ar   
    32   29   30 ar   
    33   30   31 ar   
@<TRIPOS>SUBSTRUCTURE
     1 ANP1001     1 GROUP   
@<TRIPOS>SET
ATOM$ORANGE STATIC     ATOMS   COLORGROUP SYSTEM 
20 14 14 15 15 17 17 19 19 21 21 23 23 25 25 26 26 29 \
29 31 31 

