#    Name: 5xiq_2_HFG
#    Modification time : Fri May 22 19:17:39 2020

@<TRIPOS>MOLECULE
5xiq_2_HFG
   24    26     1     0     0
SMALL
NO_CHARGES


@<TRIPOS>ATOM
      1 O4'       -15.8860  -24.5800   -6.7640 O.2       1 HFG1002     0.0000 
      2 C21       -16.2870  -25.6480   -6.3830 C.2       1 HFG1002     0.0000 
      3 C3'       -17.5510  -26.2960   -6.9530 C.3       1 HFG1002     0.0000 
      4 C2'       -17.8130  -25.8700   -8.4090 C.3       1 HFG1002     0.0000 
      5 N1'       -18.1190  -24.4490   -8.5290 N.4       1 HFG1002     0.0000 
      6 C6'       -18.4760  -24.0980   -9.9030 C.3       1 HFG1002     0.0000 
      7 C5'       -17.3790  -24.4800  -10.8840 C.3       1 HFG1002     0.0000 
      8 C4'       -17.0380  -25.9510  -10.7400 C.3       1 HFG1002     0.0000 
      9 C39       -16.6610  -26.2390   -9.3060 C.3       1 HFG1002     0.0000 
     10 O7'       -16.3570  -27.6180   -9.1650 O.3       1 HFG1002     0.0000 
     11 C1'       -15.6840  -26.3430   -5.1580 C.3       1 HFG1002     0.0000 
     12 N3        -14.8960  -25.3770   -4.3850 N.am      1 HFG1002     0.0000 
     13 C4        -15.5680  -24.3880   -3.6910 C.2       1 HFG1002     0.0000 
     14 O11       -16.7570  -24.3100   -3.6750 O.2       1 HFG1002     0.0000 
     15 C10       -14.7060  -23.4550   -2.9770 C.ar      1 HFG1002     0.0000 
     16 C5        -15.2650  -22.4260   -2.2470 C.ar      1 HFG1002     0.0000 
     17 C2        -13.5500  -25.4370   -4.3720 C.2       1 HFG1002     0.0000 
     18 N1        -12.7580  -24.6400   -3.7550 N.2       1 HFG1002     0.0000 
     19 C9        -13.3300  -23.6080   -3.0290 C.ar      1 HFG1002     0.0000 
     20 C8        -12.5180  -22.7180   -2.3570 C.ar      1 HFG1002     0.0000 
     21 C7        -13.0760  -21.6840   -1.6320 C.ar      1 HFG1002     0.0000 
     22 BR1       -11.9620  -20.4860   -0.7580 Br        1 HFG1002     0.0000 
     23 C6        -14.4490  -21.5450   -1.5720 C.ar      1 HFG1002     0.0000 
     24 CL1       -15.1340  -20.2910   -0.6670 Cl        1 HFG1002     0.0000 
@<TRIPOS>BOND
     1    1    2 2    
     2    2    3 1    
     3    2   11 1    
     4    3    4 1    
     5    4    5 1    
     6    4    9 1    
     7    5    6 1    
     8    6    7 1    
     9    7    8 1    
    10    8    9 1    
    11    9   10 1    
    12   11   12 1    
    13   12   13 am   
    14   12   17 1    
    15   13   14 2    
    16   13   15 1    
    17   15   16 ar   
    18   15   19 ar   
    19   16   23 ar   
    20   17   18 2    
    21   18   19 1    
    22   19   20 ar   
    23   20   21 ar   
    24   21   22 1    
    25   21   23 ar   
    26   23   24 1    
@<TRIPOS>SUBSTRUCTURE
     1 HFG1002     1 GROUP   
@<TRIPOS>SET

