#    Name: 5xiq_5_ANP_CAVITY_N1_4
#    Modification time : Fri May 22 19:17:54 2020

@<TRIPOS>MOLECULE
5xiq_5_ANP_CAVITY_N1_4
   87     0     6     0     0
SMALL
NO_CHARGES


@<TRIPOS>ATOM
      1 OG        -13.1100    3.0100  -18.5200 O.3       1 SER1        0.0000 
      2 OG         -4.1700    3.3900  -22.3100 O.3       1 SER1        0.0000 
      3 OG         -4.7800    5.1000  -21.2100 O.3       1 SER1        0.0000 
      4 OG         -4.0300    3.4000  -20.1900 O.3       1 SER1        0.0000 
      5 OG         -3.3800    4.2900  -19.1700 O.3       1 SER1        0.0000 
      6 N          -9.7300    3.1500  -23.0000 N.am      2 ALA2        0.0000 
      7 N         -11.6000    5.6700  -21.8200 N.am      2 ALA2        0.0000 
      8 N          -9.8400    5.7400  -23.0000 N.am      2 ALA2        0.0000 
      9 O          -5.3200    1.6000  -22.2200 O.2       2 ALA2        0.0000 
     10 N         -14.2300    3.8400  -16.3200 N.am      2 ALA2        0.0000 
     11 N          -9.7000    5.7500  -20.8900 N.am      2 ALA2        0.0000 
     12 N          -7.3000    6.7200  -21.0500 N.am      2 ALA2        0.0000 
     13 N          -7.8000    5.8400  -19.9500 N.am      2 ALA2        0.0000 
     14 OD1       -12.6100    3.9000  -19.6200 O.co2     3 ASP3        0.0000 
     15 OD1       -10.9600    6.5700  -20.8100 O.co2     3 ASP3        0.0000 
     16 OD1       -11.4600    5.6800  -19.7100 O.co2     3 ASP3        0.0000 
     17 OD1       -11.9700    4.8000  -18.6100 O.co2     3 ASP3        0.0000 
     18 OD1       -12.4700    3.9100  -17.5100 O.co2     3 ASP3        0.0000 
     19 OD1        -9.4500    3.1700  -18.7700 O.co2     3 ASP3        0.0000 
     20 OD1       -13.0800    5.6200  -16.4100 O.co2     3 ASP3        0.0000 
     21 OD1       -10.8200    6.5800  -18.6900 O.co2     3 ASP3        0.0000 
     22 OD1       -11.3200    5.6900  -17.5900 O.co2     3 ASP3        0.0000 
     23 OD1       -11.8300    4.8100  -16.4900 O.co2     3 ASP3        0.0000 
     24 OD1       -10.0700    4.8800  -17.6700 O.co2     3 ASP3        0.0000 
     25 OD1        -8.3000    4.9500  -18.8500 O.co2     3 ASP3        0.0000 
     26 OD1        -8.8100    4.0700  -17.7500 O.co2     3 ASP3        0.0000 
     27 OD1        -7.0500    4.1400  -18.9300 O.co2     3 ASP3        0.0000 
     28 OD1        -5.7900    3.3200  -19.0100 O.co2     3 ASP3        0.0000 
     29 OD1       -10.1800    7.4700  -17.6800 O.co2     3 ASP3        0.0000 
     30 OD1       -10.6800    6.5900  -16.5700 O.co2     3 ASP3        0.0000 
     31 OD1        -8.9200    6.6600  -17.7500 O.co2     3 ASP3        0.0000 
     32 OD1        -7.6600    5.8500  -17.8300 O.co2     3 ASP3        0.0000 
     33 OD1        -6.4000    5.0300  -17.9100 O.co2     3 ASP3        0.0000 
     34 OD1        -5.1500    4.2200  -17.9900 O.co2     3 ASP3        0.0000 
     35 OD1        -3.8900    3.4100  -18.0700 O.co2     3 ASP3        0.0000 
     36 OD1        -7.0200    6.7400  -16.8200 O.co2     3 ASP3        0.0000 
     37 OD1        -5.7600    5.9300  -16.9000 O.co2     3 ASP3        0.0000 
     38 OD1        -4.5000    5.1200  -16.9800 O.co2     3 ASP3        0.0000 
     39 OD1        -5.0000    4.2300  -15.8800 O.co2     3 ASP3        0.0000 
     40 OD1        -3.7500    3.4200  -15.9600 O.co2     3 ASP3        0.0000 
     41 CZ         -8.3400    2.3500  -20.9600 C.ar      4 PHE5        0.0000 
     42 CZ         -8.8400    1.4600  -19.8600 C.ar      4 PHE5        0.0000 
     43 CZ         -7.0800    1.5300  -21.0400 C.ar      4 PHE5        0.0000 
     44 CZ         -5.8200    0.7200  -21.1200 C.ar      4 PHE5        0.0000 
     45 CZ        -12.9700    3.0200  -16.4000 C.ar      4 PHE5        0.0000 
     46 CZ        -11.2100    3.1000  -17.5800 C.ar      4 PHE5        0.0000 
     47 CZ         -9.9600    2.2800  -17.6600 C.ar      4 PHE5        0.0000 
     48 CZ         -7.6900    3.2400  -19.9500 C.ar      4 PHE5        0.0000 
     49 CZ         -8.1900    2.3600  -18.8400 C.ar      4 PHE5        0.0000 
     50 CZ         -6.4300    2.4300  -20.0300 C.ar      4 PHE5        0.0000 
     51 CZ         -5.1800    1.6100  -20.1000 C.ar      4 PHE5        0.0000 
     52 CZ         -4.5300    2.5100  -19.0900 C.ar      4 PHE5        0.0000 
     53 CZ         -2.7400    5.1900  -18.1600 C.ar      4 PHE5        0.0000 
     54 CZ         -3.2400    4.3000  -17.0600 C.ar      4 PHE5        0.0000 
     55 CZ         -4.6100    7.7100  -16.9800 C.ar      4 PHE5        0.0000 
     56 CZ         -5.1100    6.8300  -15.8800 C.ar      4 PHE5        0.0000 
     57 CZ         -5.6200    5.9400  -14.7800 C.ar      4 PHE5        0.0000 
     58 CZ         -3.3500    6.9000  -17.0600 C.ar      4 PHE5        0.0000 
     59 CZ         -3.8600    6.0100  -15.9600 C.ar      4 PHE5        0.0000 
     60 CZ         -4.3600    5.1300  -14.8600 C.ar      4 PHE5        0.0000 
     61 CA        -10.9900    3.9600  -22.9200 C.3       5 GLY6        0.0000 
     62 CA        -10.2400    2.2600  -21.9000 C.3       5 GLY6        0.0000 
     63 CA         -8.9800    1.4500  -21.9800 C.3       5 GLY6        0.0000 
     64 CA        -11.3500    3.0900  -19.7000 C.3       5 GLY6        0.0000 
     65 CA        -11.8600    2.2000  -18.6000 C.3       5 GLY6        0.0000 
     66 CA         -8.5900    4.9300  -23.0800 C.3       5 GLY6        0.0000 
     67 CA         -9.0900    4.0400  -21.9800 C.3       5 GLY6        0.0000 
     68 CA         -9.5900    3.1600  -20.8800 C.3       5 GLY6        0.0000 
     69 CA        -10.1000    2.2700  -19.7800 C.3       5 GLY6        0.0000 
     70 CA         -7.8300    3.2300  -22.0600 C.3       5 GLY6        0.0000 
     71 CA         -6.5700    2.4200  -22.1400 C.3       5 GLY6        0.0000 
     72 CA         -7.9400    5.8300  -22.0700 C.3       5 GLY6        0.0000 
     73 CA         -8.4500    4.9400  -20.9700 C.3       5 GLY6        0.0000 
     74 CA         -7.1900    4.1300  -21.0500 C.3       5 GLY6        0.0000 
     75 CA         -5.9300    3.3100  -21.1300 C.3       5 GLY6        0.0000 
     76 CA         -4.6700    2.5000  -21.2100 C.3       5 GLY6        0.0000 
     77 CA         -6.0400    5.9100  -21.1300 C.3       5 GLY6        0.0000 
     78 CA         -6.5400    5.0200  -20.0300 C.3       5 GLY6        0.0000 
     79 CA         -5.2900    4.2100  -20.1100 C.3       5 GLY6        0.0000 
     80 DU        -10.3500    4.8600  -21.9000 H         6 CUB7        0.0000 
     81 DU        -10.8500    3.9700  -20.8000 H         6 CUB7        0.0000 
     82 DU        -10.2100    4.8700  -19.7900 H         6 CUB7        0.0000 
     83 DU        -10.7100    3.9800  -18.6900 H         6 CUB7        0.0000 
     84 DU         -8.9500    4.0600  -19.8700 H         6 CUB7        0.0000 
     85 DU         -9.5600    5.7700  -18.7700 H         6 CUB7        0.0000 
     86 DU         -7.1600    6.7300  -18.9300 H         6 CUB7        0.0000 
     87 DU         -6.5100    7.6300  -17.9200 H         6 CUB7        0.0000 
@<TRIPOS>BOND
@<TRIPOS>SUBSTRUCTURE
     1 SER1        1 GROUP   
     2 ALA2        6 GROUP   
     3 ASP3       14 GROUP   
     4 PHE5       41 GROUP   
     5 GLY6       61 GROUP   
     6 CUB7       80 GROUP   
@<TRIPOS>SET

