#    Name: 5xiq_3_HFG_CAVITY_N1_4
#    Modification time : Fri May 22 19:17:47 2020

@<TRIPOS>MOLECULE
5xiq_3_HFG_CAVITY_N1_4
   56     0     6     0     0
SMALL
NO_CHARGES


@<TRIPOS>ATOM
      1 N           6.2800   -5.5800   36.5700 N.am      1 ALA2        0.0000 
      2 O           9.4400   -6.3100   37.4300 O.2       1 ALA2        0.0000 
      3 OD1         8.1200   -4.6500   27.9400 O.co2     2 ASP3        0.0000 
      4 OD1         9.3800   -5.4700   27.8600 O.co2     2 ASP3        0.0000 
      5 OD1        10.1600   -4.5600   30.9900 O.co2     2 ASP3        0.0000 
      6 NZ         11.4200   -5.3800   30.9100 N.4       3 LYS4        0.0000 
      7 NZ         12.0600   -4.4800   31.9300 N.4       3 LYS4        0.0000 
      8 NZ         11.5600   -5.3600   33.0300 N.4       3 LYS4        0.0000 
      9 CZ          7.4800   -5.5500   26.9300 C.ar      4 PHE5        0.0000 
     10 CZ          6.9700   -6.4400   28.0300 C.ar      4 PHE5        0.0000 
     11 CZ          8.2300   -7.2500   27.9500 C.ar      4 PHE5        0.0000 
     12 CZ          4.1000   -5.6900   31.4000 C.ar      4 PHE5        0.0000 
     13 CZ          5.8600   -5.6100   30.2200 C.ar      4 PHE5        0.0000 
     14 CZ          5.3500   -6.5000   31.3200 C.ar      4 PHE5        0.0000 
     15 CZ          7.6200   -5.5400   29.0400 C.ar      4 PHE5        0.0000 
     16 CZ          7.1100   -6.4300   30.1400 C.ar      4 PHE5        0.0000 
     17 CZ          8.8800   -6.3500   28.9600 C.ar      4 PHE5        0.0000 
     18 CZ          6.0000   -5.6000   32.3400 C.ar      4 PHE5        0.0000 
     19 CZ          5.4900   -6.4900   33.4400 C.ar      4 PHE5        0.0000 
     20 CZ          7.7600   -5.5300   31.1600 C.ar      4 PHE5        0.0000 
     21 CZ          9.5200   -5.4600   29.9800 C.ar      4 PHE5        0.0000 
     22 CZ          9.0200   -6.3400   31.0800 C.ar      4 PHE5        0.0000 
     23 CZ          6.1400   -5.5900   34.4600 C.ar      4 PHE5        0.0000 
     24 CZ          7.9000   -5.5200   33.2800 C.ar      4 PHE5        0.0000 
     25 CZ          7.4000   -6.4100   34.3800 C.ar      4 PHE5        0.0000 
     26 CZ          6.8900   -7.2900   35.4800 C.ar      4 PHE5        0.0000 
     27 CZ          9.6600   -5.4500   32.0900 C.ar      4 PHE5        0.0000 
     28 CZ         10.9200   -6.2600   32.0200 C.ar      4 PHE5        0.0000 
     29 CA          6.3600   -4.7300   29.1200 C.3       5 GLY6        0.0000 
     30 CA          6.5000   -4.7200   31.2400 C.3       5 GLY6        0.0000 
     31 CA          8.7600   -3.7600   28.9600 C.3       5 GLY6        0.0000 
     32 CA          8.2600   -4.6400   30.0600 C.3       5 GLY6        0.0000 
     33 CA          8.9100   -3.7500   31.0700 C.3       5 GLY6        0.0000 
     34 CA          8.4000   -4.6300   32.1700 C.3       5 GLY6        0.0000 
     35 CA          5.5200   -3.8800   35.5500 C.3       5 GLY6        0.0000 
     36 CA          6.7800   -4.7000   35.4700 C.3       5 GLY6        0.0000 
     37 CA          9.0500   -3.7400   33.1900 C.3       5 GLY6        0.0000 
     38 CA          8.5400   -4.6200   34.2900 C.3       5 GLY6        0.0000 
     39 CA          8.0400   -5.5100   35.3900 C.3       5 GLY6        0.0000 
     40 CA          7.5400   -6.4000   36.4900 C.3       5 GLY6        0.0000 
     41 CA         10.8100   -3.6700   32.0100 C.3       5 GLY6        0.0000 
     42 CA         10.3000   -4.5500   33.1100 C.3       5 GLY6        0.0000 
     43 CA          9.8000   -5.4400   34.2100 C.3       5 GLY6        0.0000 
     44 CA          7.4300   -3.8000   36.4900 C.3       5 GLY6        0.0000 
     45 CA          6.9200   -4.6900   37.5900 C.3       5 GLY6        0.0000 
     46 CA          9.1900   -3.7300   35.3100 C.3       5 GLY6        0.0000 
     47 CA          8.6800   -4.6100   36.4100 C.3       5 GLY6        0.0000 
     48 CA         10.9500   -3.6600   34.1300 C.3       5 GLY6        0.0000 
     49 CA         10.4400   -4.5400   35.2300 C.3       5 GLY6        0.0000 
     50 CA          9.9400   -5.4300   36.3300 C.3       5 GLY6        0.0000 
     51 CA         12.7100   -3.5800   32.9500 C.3       5 GLY6        0.0000 
     52 CA         12.2100   -4.4700   34.0500 C.3       5 GLY6        0.0000 
     53 CA          8.8200   -4.6000   38.5200 C.3       5 GLY6        0.0000 
     54 DU          8.7300   -6.3600   26.8500 H         6 CUB7        0.0000 
     55 DU          5.6300   -6.4800   35.5600 H         6 CUB7        0.0000 
     56 DU          8.1800   -5.5000   37.5100 H         6 CUB7        0.0000 
@<TRIPOS>BOND
@<TRIPOS>SUBSTRUCTURE
     1 ALA2        1 GROUP   
     2 ASP3        3 GROUP   
     3 LYS4        6 GROUP   
     4 PHE5        9 GROUP   
     5 GLY6       29 GROUP   
     6 CUB7       54 GROUP   
@<TRIPOS>SET

