#    Name: 5xiq_3_HFG
#    Modification time : Fri May 22 19:17:45 2020

@<TRIPOS>MOLECULE
5xiq_3_HFG
   24    26     1     0     0
SMALL
NO_CHARGES


@<TRIPOS>ATOM
      1 O4'         7.8630   -3.5090   26.9800 O.2       1 HFG1002     0.0000 
      2 C21         7.3560   -4.6090   26.7690 C.2       1 HFG1002     0.0000 
      3 C3'         6.0360   -4.7620   26.0090 C.3       1 HFG1002     0.0000 
      4 C2'         5.8350   -3.5580   25.0870 C.3       1 HFG1002     0.0000 
      5 N1'         5.5780   -2.3370   25.8640 N.4       1 HFG1002     0.0000 
      6 C6'         5.4000   -1.1690   24.9890 C.3       1 HFG1002     0.0000 
      7 C5'         6.6270   -0.9460   24.1210 C.3       1 HFG1002     0.0000 
      8 C4'         6.8890   -2.1880   23.2840 C.3       1 HFG1002     0.0000 
      9 C39         7.0570   -3.3900   24.1980 C.3       1 HFG1002     0.0000 
     10 O7'         7.2380   -4.5730   23.4060 O.3       1 HFG1002     0.0000 
     11 C1'         8.0050   -5.9090   27.2480 C.3       1 HFG1002     0.0000 
     12 N3          8.7830   -5.6480   28.4800 N.am      1 HFG1002     0.0000 
     13 C4          8.0890   -5.3070   29.6310 C.2       1 HFG1002     0.0000 
     14 O11         6.8630   -5.2190   29.6550 O.2       1 HFG1002     0.0000 
     15 C10         8.9350   -5.0650   30.8060 C.ar      1 HFG1002     0.0000 
     16 C5          8.3520   -4.7170   32.0190 C.ar      1 HFG1002     0.0000 
     17 C2         10.1380   -5.7370   28.4860 C.2       1 HFG1002     0.0000 
     18 N1         10.9180   -5.5320   29.4990 N.2       1 HFG1002     0.0000 
     19 C9         10.3180   -5.1830   30.7070 C.ar      1 HFG1002     0.0000 
     20 C8         11.1130   -4.9520   31.8250 C.ar      1 HFG1002     0.0000 
     21 C7         10.5310   -4.6040   33.0380 C.ar      1 HFG1002     0.0000 
     22 BR1        11.6200   -4.2960   34.5330 Br        1 HFG1002     0.0000 
     23 C6          9.1490   -4.4860   33.1340 C.ar      1 HFG1002     0.0000 
     24 CL1         8.4230   -4.0540   34.6370 Cl        1 HFG1002     0.0000 
@<TRIPOS>BOND
     1    1    2 2    
     2    2    3 1    
     3    2   11 1    
     4    3    4 1    
     5    4    5 1    
     6    4    9 1    
     7    5    6 1    
     8    6    7 1    
     9    7    8 1    
    10    8    9 1    
    11    9   10 1    
    12   11   12 1    
    13   12   13 am   
    14   12   17 1    
    15   13   14 2    
    16   13   15 1    
    17   15   16 ar   
    18   15   19 ar   
    19   16   23 ar   
    20   17   18 2    
    21   18   19 1    
    22   19   20 ar   
    23   20   21 ar   
    24   21   22 1    
    25   21   23 ar   
    26   23   24 1    
@<TRIPOS>SUBSTRUCTURE
     1 HFG1002     1 GROUP   
@<TRIPOS>SET

