#    Name: 6awi_4_ADP
#    Modification time : Fri May 22 19:26:20 2020

@<TRIPOS>MOLECULE
6awi_4_ADP
   27    29     1     0     1
SMALL
NO_CHARGES


@<TRIPOS>ATOM
      1 PB         41.5970   32.6900   50.0140 P.3       1 ADP301      0.0000 
      2 O1B        40.7780   31.9290   48.9960 O.co2     1 ADP301      0.0000 
      3 O2B        41.5020   34.2040   49.7970 O.co2     1 ADP301      0.0000 
      4 O3B        42.9970   32.1670   50.2040 O.co2     1 ADP301      0.0000 
      5 PA         40.8760   32.8260   52.8870 P.3       1 ADP301      0.0000 
      6 O1A        41.6370   34.1250   53.0060 O.co2     1 ADP301      0.0000 
      7 O2A        41.2920   31.7140   53.7590 O.co2     1 ADP301      0.0000 
      8 O3A        40.7900   32.3620   51.3820 O.3       1 ADP301      0.0000 
      9 O5'        39.3400   33.1270   53.2320 O.3       1 ADP301      0.0000 
     10 C5'        38.5500   34.1060   52.5560 C.3       1 ADP301      0.0000 
     11 C4'        37.2210   34.3320   53.1830 C.3       1 ADP301      0.0000 
     12 O4'        37.3930   34.9700   54.4690 O.3       1 ADP301      0.0000 
     13 C3'        36.2750   35.2300   52.4360 C.3       1 ADP301      0.0000 
     14 O3'        35.6010   34.5560   51.3610 O.3       1 ADP301      0.0000 
     15 C2'        35.3620   35.6730   53.4920 C.3       1 ADP301      0.0000 
     16 O2'        34.3410   34.6940   53.7340 O.3       1 ADP301      0.0000 
     17 C1'        36.2320   35.7010   54.7790 C.3       1 ADP301      0.0000 
     18 N9         36.7810   36.9960   55.2310 N.pl3     1 ADP301      0.0000 
     19 C8         37.4180   37.1830   56.4090 C.2       1 ADP301      0.0000 
     20 N7         37.8480   38.4680   56.5320 N.2       1 ADP301      0.0000 
     21 C5         37.4960   39.1040   55.3810 C.ar      1 ADP301      0.0000 
     22 C6         37.5900   40.4640   54.8430 C.ar      1 ADP301      0.0000 
     23 N6         38.2070   41.4470   55.5380 N.pl3     1 ADP301      0.0000 
     24 N1         37.0940   40.7160   53.6520 N.ar      1 ADP301      0.0000 
     25 C2         36.5160   39.7640   52.9200 C.ar      1 ADP301      0.0000 
     26 N3         36.3650   38.5110   53.3630 N.ar      1 ADP301      0.0000 
     27 C4         36.7950   38.1290   54.5620 C.ar      1 ADP301      0.0000 
@<TRIPOS>BOND
     1    1    2 ar   
     2    1    3 ar   
     3    1    4 ar   
     4    1    8 1    
     5    5    6 ar   
     6    5    7 ar   
     7    5    8 1    
     8    5    9 1    
     9    9   10 1    
    10   10   11 1    
    11   11   12 1    
    12   11   13 1    
    13   12   17 1    
    14   13   14 1    
    15   13   15 1    
    16   15   16 1    
    17   15   17 1    
    18   17   18 1    
    19   18   19 1    
    20   18   27 1    
    21   19   20 2    
    22   20   21 1    
    23   21   22 ar   
    24   21   27 ar   
    25   22   23 1    
    26   22   24 ar   
    27   24   25 ar   
    28   25   26 ar   
    29   26   27 ar   
@<TRIPOS>SUBSTRUCTURE
     1 ADP301      1 GROUP   
@<TRIPOS>SET
ATOM$ORANGE STATIC     ATOMS   COLORGROUP SYSTEM 
20 10 10 11 11 13 13 15 15 17 17 19 19 21 21 22 22 25 \
25 27 27 

