#    Name: 6awi_1_ADP
#    Modification time : Fri May 22 19:26:00 2020

@<TRIPOS>MOLECULE
6awi_1_ADP
   27    29     1     0     1
SMALL
NO_CHARGES


@<TRIPOS>ATOM
      1 PB         -0.5400   -0.9240   22.2260 P.3       1 ADP301      0.0000 
      2 O1B        -0.5330   -1.4630   20.8290 O.co2     1 ADP301      0.0000 
      3 O2B        -1.4760   -1.6090   23.1640 O.co2     1 ADP301      0.0000 
      4 O3B        -0.6270    0.5790   22.2420 O.co2     1 ADP301      0.0000 
      5 PA          1.8690   -0.8840   23.9440 P.3       1 ADP301      0.0000 
      6 O1A         2.9640    0.0770   23.6040 O.co2     1 ADP301      0.0000 
      7 O2A         1.0200   -0.6340   25.1280 O.co2     1 ADP301      0.0000 
      8 O3A         0.9680   -1.2420   22.6310 O.3       1 ADP301      0.0000 
      9 O5'         2.6490   -2.2840   23.9850 O.3       1 ADP301      0.0000 
     10 C5'         1.9770   -3.5280   24.0520 C.3       1 ADP301      0.0000 
     11 C4'         2.9220   -4.6240   24.4810 C.3       1 ADP301      0.0000 
     12 O4'         3.5730   -4.3550   25.6920 O.3       1 ADP301      0.0000 
     13 C3'         2.3780   -6.0230   24.7180 C.3       1 ADP301      0.0000 
     14 O3'         2.1770   -6.5620   23.3590 O.3       1 ADP301      0.0000 
     15 C2'         3.4610   -6.6770   25.5310 C.3       1 ADP301      0.0000 
     16 O2'         4.5310   -7.1230   24.6930 O.3       1 ADP301      0.0000 
     17 C1'         4.0130   -5.5160   26.3600 C.3       1 ADP301      0.0000 
     18 N9          3.4310   -5.4750   27.7620 N.pl3     1 ADP301      0.0000 
     19 C8          3.9590   -4.7120   28.7210 C.2       1 ADP301      0.0000 
     20 N7          3.2900   -4.8300   29.8850 N.2       1 ADP301      0.0000 
     21 C5          2.2690   -5.6350   29.6530 C.ar      1 ADP301      0.0000 
     22 C6          1.1810   -6.2330   30.4250 C.ar      1 ADP301      0.0000 
     23 N6          1.0020   -5.9050   31.7350 N.pl3     1 ADP301      0.0000 
     24 N1          0.3430   -7.0640   29.8340 N.ar      1 ADP301      0.0000 
     25 C2          0.4070   -7.3910   28.5420 C.ar      1 ADP301      0.0000 
     26 N3          1.4060   -6.8860   27.8230 N.ar      1 ADP301      0.0000 
     27 C4          2.3460   -6.0480   28.2660 C.ar      1 ADP301      0.0000 
@<TRIPOS>BOND
     1    1    2 ar   
     2    1    3 ar   
     3    1    4 ar   
     4    1    8 1    
     5    5    6 ar   
     6    5    7 ar   
     7    5    8 1    
     8    5    9 1    
     9    9   10 1    
    10   10   11 1    
    11   11   12 1    
    12   11   13 1    
    13   12   17 1    
    14   13   14 1    
    15   13   15 1    
    16   15   16 1    
    17   15   17 1    
    18   17   18 1    
    19   18   19 1    
    20   18   27 1    
    21   19   20 2    
    22   20   21 1    
    23   21   22 ar   
    24   21   27 ar   
    25   22   23 1    
    26   22   24 ar   
    27   24   25 ar   
    28   25   26 ar   
    29   26   27 ar   
@<TRIPOS>SUBSTRUCTURE
     1 ADP301      1 GROUP   
@<TRIPOS>SET
ATOM$ORANGE STATIC     ATOMS   COLORGROUP SYSTEM 
20 10 10 11 11 13 13 15 15 17 17 19 19 21 21 22 22 25 \
25 27 27 

