#    Name: 6awi_3_ADP
#    Modification time : Fri May 22 19:26:12 2020

@<TRIPOS>MOLECULE
6awi_3_ADP
   27    29     1     0     1
SMALL
NO_CHARGES


@<TRIPOS>ATOM
      1 PB         10.2800   13.5920   49.6150 P.3       1 ADP301      0.0000 
      2 O1B         8.9400   14.2450   49.5510 O.co2     1 ADP301      0.0000 
      3 O2B        11.1300   14.1620   50.7750 O.co2     1 ADP301      0.0000 
      4 O3B        10.1630   12.0440   49.5750 O.co2     1 ADP301      0.0000 
      5 PA         11.0770   13.4790   46.7390 P.3       1 ADP301      0.0000 
      6 O1A        12.1150   12.5090   46.3750 O.co2     1 ADP301      0.0000 
      7 O2A         9.6280   13.1390   46.6010 O.co2     1 ADP301      0.0000 
      8 O3A        11.1700   13.8790   48.3150 O.3       1 ADP301      0.0000 
      9 O5'        11.6160   14.8820   46.1300 O.3       1 ADP301      0.0000 
     10 C5'        10.9430   16.1160   46.4770 C.3       1 ADP301      0.0000 
     11 C4'        11.4550   17.2160   45.5560 C.3       1 ADP301      0.0000 
     12 O4'        11.1220   16.9230   44.1980 O.3       1 ADP301      0.0000 
     13 C3'        10.8940   18.6030   45.7560 C.3       1 ADP301      0.0000 
     14 O3'        11.6160   19.2100   46.8670 O.3       1 ADP301      0.0000 
     15 C2'        11.1850   19.2500   44.4370 C.3       1 ADP301      0.0000 
     16 O2'        12.5430   19.6720   44.2910 O.3       1 ADP301      0.0000 
     17 C1'        11.0420   18.1120   43.4370 C.3       1 ADP301      0.0000 
     18 N9          9.7590   18.0580   42.7460 N.pl3     1 ADP301      0.0000 
     19 C8          9.5930   17.3000   41.6270 C.2       1 ADP301      0.0000 
     20 N7          8.3100   17.3720   41.2230 N.2       1 ADP301      0.0000 
     21 C5          7.6250   18.1490   42.0920 C.ar      1 ADP301      0.0000 
     22 C6          6.2630   18.6380   42.2310 C.ar      1 ADP301      0.0000 
     23 N6          5.2940   18.2900   41.3440 N.pl3     1 ADP301      0.0000 
     24 N1          5.9760   19.4720   43.2090 N.ar      1 ADP301      0.0000 
     25 C2          6.8540   19.8000   44.1420 C.ar      1 ADP301      0.0000 
     26 N3          8.1250   19.4040   44.0790 N.ar      1 ADP301      0.0000 
     27 C4          8.5680   18.5840   43.1080 C.ar      1 ADP301      0.0000 
@<TRIPOS>BOND
     1    1    2 ar   
     2    1    3 ar   
     3    1    4 ar   
     4    1    8 1    
     5    5    6 ar   
     6    5    7 ar   
     7    5    8 1    
     8    5    9 1    
     9    9   10 1    
    10   10   11 1    
    11   11   12 1    
    12   11   13 1    
    13   12   17 1    
    14   13   14 1    
    15   13   15 1    
    16   15   16 1    
    17   15   17 1    
    18   17   18 1    
    19   18   19 1    
    20   18   27 1    
    21   19   20 2    
    22   20   21 1    
    23   21   22 ar   
    24   21   27 ar   
    25   22   23 1    
    26   22   24 ar   
    27   24   25 ar   
    28   25   26 ar   
    29   26   27 ar   
@<TRIPOS>SUBSTRUCTURE
     1 ADP301      1 GROUP   
@<TRIPOS>SET
ATOM$ORANGE STATIC     ATOMS   COLORGROUP SYSTEM 
20 10 10 11 11 13 13 15 15 17 17 19 19 21 21 22 22 25 \
25 27 27 

