#    Name: 6f4k_3_GTX
#    Modification time : Fri May 22 19:25:11 2020

@<TRIPOS>MOLECULE
6f4k_3_GTX
   54    53     1     0     0
SMALL
NO_CHARGES


@<TRIPOS>ATOM
      1 N1        -10.3710   -3.4660   13.5560 N.4       1 GTX301      0.0000 
      2 CA1       -10.7750   -2.7520   12.3340 C.3       1 GTX301      0.0000 
      3 C1        -10.1430   -3.4640   11.1510 C.2       1 GTX301      0.0000 
      4 O11        -9.1430   -4.1880   11.3470 O.co2     1 GTX301      0.0000 
      5 O12       -10.6430   -3.3260   10.0040 O.co2     1 GTX301      0.0000 
      6 CB1       -10.3660   -1.2870   12.4950 C.3       1 GTX301      0.0000 
      7 CG1       -10.8920   -0.3980   11.3970 C.3       1 GTX301      0.0000 
      8 CD1       -10.8830    1.0470   11.8080 C.2       1 GTX301      0.0000 
      9 OE1       -10.7580    1.4230   12.9370 O.2       1 GTX301      0.0000 
     10 N2        -11.0600    1.9710   10.7360 N.am      1 GTX301      0.0000 
     11 CA2       -11.1070    3.3920   10.9630 C.3       1 GTX301      0.0000 
     12 C2        -12.5790    3.7860   11.0120 C.2       1 GTX301      0.0000 
     13 O2        -13.3600    3.5520   10.1400 O.2       1 GTX301      0.0000 
     14 CB2       -10.4620    4.1560    9.8190 C.3       1 GTX301      0.0000 
     15 SG2        -8.6770    3.9690    9.8690 S.3       1 GTX301      0.0000 
     16 C1S        -8.0990    4.8000   11.4240 C.3       1 GTX301      0.0000 
     17 C2S        -7.2430    6.0820   11.2130 C.3       1 GTX301      0.0000 
     18 C3S        -5.7300    5.7930   11.2040 C.3       1 GTX301      0.0000 
     19 C4S        -4.8120    7.0280   11.1190 C.3       1 GTX301      0.0000 
     20 C5S        -4.4010    7.4740    9.7010 C.3       1 GTX301      0.0000 
     21 C6S        -3.1050    6.8550    9.1020 C.3       1 GTX301      0.0000 
     22 N3        -12.9820    4.4770   12.1910 N.am      1 GTX301      0.0000 
     23 CA3       -14.3580    4.8900   12.3610 C.3       1 GTX301      0.0000 
     24 C3        -14.8170    4.4110   13.7370 C.2       1 GTX301      0.0000 
     25 O31       -14.0710    3.6730   14.4660 O.co2     1 GTX301      0.0000 
     26 O32       -15.9800    4.7220   14.1260 O.co2     1 GTX301      0.0000 
     27 HN11      -10.6920   -3.0390   14.2680 H         1 GTX301      0.0000 
     28 HN12       -9.4830   -3.4940   13.6030 H         1 GTX301      0.0000 
     29 HN13      -10.6940   -4.2950   13.5360 H         1 GTX301      0.0000 
     30 HA1       -11.7400   -2.8000   12.2480 H         1 GTX301      0.0000 
     31 HB11      -10.7010   -0.9620   13.3450 H         1 GTX301      0.0000 
     32 HB12       -9.3970   -1.2330   12.5010 H         1 GTX301      0.0000 
     33 HG11      -10.3370   -0.5060   10.6080 H         1 GTX301      0.0000 
     34 HG12      -11.8010   -0.6610   11.1840 H         1 GTX301      0.0000 
     35 HN2       -11.1610    1.6710    9.9370 H         1 GTX301      0.0000 
     36 HA2       -10.6730    3.6120   11.8020 H         1 GTX301      0.0000 
     37 HB21      -10.6880    5.0970    9.8950 H         1 GTX301      0.0000 
     38 HB22      -10.7970    3.8130    8.9760 H         1 GTX301      0.0000 
     39 HS11       -8.8780    5.0380   11.9500 H         1 GTX301      0.0000 
     40 HS12       -7.5710    4.1620   11.9310 H         1 GTX301      0.0000 
     41 HS21       -7.4890    6.4860   10.3670 H         1 GTX301      0.0000 
     42 HS22       -7.4370    6.7080   11.9280 H         1 GTX301      0.0000 
     43 HS31       -5.5370    5.2210   10.4450 H         1 GTX301      0.0000 
     44 HS32       -5.5100    5.3080   12.0140 H         1 GTX301      0.0000 
     45 HS41       -4.0040    6.8370   11.6210 H         1 GTX301      0.0000 
     46 HS42       -5.2670    7.7700   11.5480 H         1 GTX301      0.0000 
     47 HS51       -5.1330    7.2650    9.1010 H         1 GTX301      0.0000 
     48 HS52       -4.2900    8.4370    9.7140 H         1 GTX301      0.0000 
     49 HS61       -2.9660    7.2020    8.2060 H         1 GTX301      0.0000 
     50 HS62       -2.3470    7.0890    9.6600 H         1 GTX301      0.0000 
     51 HS63       -3.1950    5.8900    9.0650 H         1 GTX301      0.0000 
     52 HN3       -12.4080    4.6340   12.8130 H         1 GTX301      0.0000 
     53 HA31      -14.4210    5.8570   12.3110 H         1 GTX301      0.0000 
     54 HA32      -14.9100    4.4880   11.6710 H         1 GTX301      0.0000 
@<TRIPOS>BOND
     1    1    2 1    
     2    2    3 1    
     3    1   27 1    
     4    1   28 1    
     5    1   29 1    
     6    2    6 1    
     7    2   30 1    
     8    3    4 ar   
     9    3    5 ar   
    10    6    7 1    
    11    6   31 1    
    12    6   32 1    
    13    7    8 1    
    14    7   33 1    
    15    7   34 1    
    16    8    9 2    
    17    8   10 am   
    18   10   11 1    
    19   11   12 1    
    20   10   35 1    
    21   11   14 1    
    22   11   36 1    
    23   12   13 2    
    24   12   22 am   
    25   14   15 1    
    26   14   37 1    
    27   14   38 1    
    28   15   16 1    
    29   16   17 1    
    30   16   39 1    
    31   16   40 1    
    32   17   18 1    
    33   17   41 1    
    34   17   42 1    
    35   18   19 1    
    36   18   43 1    
    37   18   44 1    
    38   19   20 1    
    39   19   45 1    
    40   19   46 1    
    41   20   21 1    
    42   20   47 1    
    43   20   48 1    
    44   21   49 1    
    45   21   50 1    
    46   21   51 1    
    47   22   23 1    
    48   23   24 1    
    49   22   52 1    
    50   23   53 1    
    51   23   54 1    
    52   24   25 ar   
    53   24   26 ar   
@<TRIPOS>SUBSTRUCTURE
     1 GTX301      1 GROUP   
@<TRIPOS>SET

