#    Name: 6f4k_3_GTX_CAVITY_N1_4
#    Modification time : Fri May 22 19:25:13 2020

@<TRIPOS>MOLECULE
6f4k_3_GTX_CAVITY_N1_4
   91     0     5     0     0
SMALL
NO_CHARGES


@<TRIPOS>ATOM
      1 OG         -9.2700    4.1500    8.6900 O.3       1 SER1        0.0000 
      2 OG         -5.1800    2.8900   13.6300 O.3       1 SER1        0.0000 
      3 OG         -6.9700    3.7000   14.4100 O.3       1 SER1        0.0000 
      4 OG         -1.5600    6.3500    9.7000 O.3       1 SER1        0.0000 
      5 OG         -3.3600    7.1600   10.4800 O.3       1 SER1        0.0000 
      6 N         -11.9100    2.5700   10.0200 N.am      2 ALA2        0.0000 
      7 O         -12.7900    3.7400    9.6700 O.2       2 ALA2        0.0000 
      8 N         -11.1100    3.4400   10.9400 N.am      2 ALA2        0.0000 
      9 N         -10.1900    3.7900    9.8200 N.am      2 ALA2        0.0000 
     10 N          -4.1600    6.3000    9.5500 N.am      2 ALA2        0.0000 
     11 N          -5.9500    7.1100   10.3400 N.am      2 ALA2        0.0000 
     12 N          -5.0300    7.4700    9.2100 N.am      2 ALA2        0.0000 
     13 CZ        -10.2400    2.2700   11.2900 C.ar      3 PHE5        0.0000 
     14 CZ         -9.3200    2.6200   10.1600 C.ar      3 PHE5        0.0000 
     15 CZ        -11.0700    4.9600    9.4700 C.ar      3 PHE5        0.0000 
     16 CZ         -9.4900    1.6100   13.6900 C.ar      3 PHE5        0.0000 
     17 CZ         -9.4400    3.1300   12.2100 C.ar      3 PHE5        0.0000 
     18 CZ         -8.5200    3.4900   11.0900 C.ar      3 PHE5        0.0000 
     19 CZ         -8.4700    5.0200    9.6100 C.ar      3 PHE5        0.0000 
     20 CZ        -10.2700    5.8300   10.4000 C.ar      3 PHE5        0.0000 
     21 CZ         -7.7700    2.8300   13.4800 C.ar      3 PHE5        0.0000 
     22 CZ         -8.6400    4.0000   13.1400 C.ar      3 PHE5        0.0000 
     23 CZ         -7.7200    4.3600   12.0100 C.ar      3 PHE5        0.0000 
     24 CZ         -7.6700    5.8900   10.5400 C.ar      3 PHE5        0.0000 
     25 CZ         -6.7500    6.2400    9.4100 C.ar      3 PHE5        0.0000 
     26 CZ         -8.5500    7.0600   10.2000 C.ar      3 PHE5        0.0000 
     27 CZ         -4.2600    3.2400   12.5000 C.ar      3 PHE5        0.0000 
     28 CZ         -6.0500    4.0600   13.2800 C.ar      3 PHE5        0.0000 
     29 CZ         -5.2500    4.9200   14.2100 C.ar      3 PHE5        0.0000 
     30 CZ         -4.3300    5.2800   13.0800 C.ar      3 PHE5        0.0000 
     31 CZ         -2.4900    5.9900   10.8200 C.ar      3 PHE5        0.0000 
     32 CZ         -7.0500    5.7400   14.9900 C.ar      3 PHE5        0.0000 
     33 CZ         -6.1200    6.0900   13.8700 C.ar      3 PHE5        0.0000 
     34 CZ         -5.2000    6.4500   12.7400 C.ar      3 PHE5        0.0000 
     35 CZ         -4.2800    6.8100   11.6100 C.ar      3 PHE5        0.0000 
     36 CZ         -7.9200    6.9100   14.6500 C.ar      3 PHE5        0.0000 
     37 CZ         -7.0000    7.2600   13.5200 C.ar      3 PHE5        0.0000 
     38 CZ         -6.0800    7.6200   12.3900 C.ar      3 PHE5        0.0000 
     39 CZ         -5.1500    7.9800   11.2700 C.ar      3 PHE5        0.0000 
     40 CZ         -0.8100    5.6900   12.1000 C.ar      3 PHE5        0.0000 
     41 CZ          0.1100    6.0500   10.9700 C.ar      3 PHE5        0.0000 
     42 CZ         -2.6100    6.5000   12.8800 C.ar      3 PHE5        0.0000 
     43 CZ         -1.6900    6.8600   11.7500 C.ar      3 PHE5        0.0000 
     44 CZ         -3.4800    7.6700   12.5400 C.ar      3 PHE5        0.0000 
     45 CZ         -2.5600    8.0300   11.4100 C.ar      3 PHE5        0.0000 
     46 CZ         -4.3600    8.8500   12.1900 C.ar      3 PHE5        0.0000 
     47 CZ         -2.6800    8.5400   13.4600 C.ar      3 PHE5        0.0000 
     48 CA        -12.8400    2.2100   11.1500 C.3       4 GLY6        0.0000 
     49 CA        -13.7100    3.3800   10.8000 C.3       4 GLY6        0.0000 
     50 CA        -11.8600    4.1000    8.5400 C.3       4 GLY6        0.0000 
     51 CA        -12.9600    2.7200   13.2000 C.3       4 GLY6        0.0000 
     52 CA        -12.0400    3.0800   12.0700 C.3       4 GLY6        0.0000 
     53 CA        -13.8300    3.8900   12.8600 C.3       4 GLY6        0.0000 
     54 CA        -12.9100    4.2500   11.7300 C.3       4 GLY6        0.0000 
     55 CA        -11.9900    4.6100   10.6000 C.3       4 GLY6        0.0000 
     56 CA         -7.6000    3.8500    9.9600 C.3       4 GLY6        0.0000 
     57 CA        -12.1100    5.1200   12.6500 C.3       4 GLY6        0.0000 
     58 CA        -11.1900    5.4800   11.5300 C.3       4 GLY6        0.0000 
     59 CA         -5.9300    3.5400   11.2300 C.3       4 GLY6        0.0000 
     60 CA         -6.8000    4.7100   10.8800 C.3       4 GLY6        0.0000 
     61 CA        -10.3900    6.3400   12.4500 C.3       4 GLY6        0.0000 
     62 CA         -9.4700    6.7000   11.3200 C.3       4 GLY6        0.0000 
     63 CA         -5.1300    4.4100   12.1500 C.3       4 GLY6        0.0000 
     64 CA         -4.2100    4.7700   11.0300 C.3       4 GLY6        0.0000 
     65 CA         -3.2800    5.1200    9.9000 C.3       4 GLY6        0.0000 
     66 CA         -5.0800    5.9400   10.6800 C.3       4 GLY6        0.0000 
     67 CA         -9.5900    7.2100   13.3800 C.3       4 GLY6        0.0000 
     68 CA         -8.6700    7.5700   12.2500 C.3       4 GLY6        0.0000 
     69 CA         -7.7500    7.9200   11.1200 C.3       4 GLY6        0.0000 
     70 CA         -2.5400    4.4700   12.3000 C.3       4 GLY6        0.0000 
     71 CA         -1.6100    4.8200   11.1700 C.3       4 GLY6        0.0000 
     72 CA         -0.6900    5.1800   10.0400 C.3       4 GLY6        0.0000 
     73 CA         -4.2300    8.3300   10.1400 C.3       4 GLY6        0.0000 
     74 CA         -7.8700    8.4400   13.1800 C.3       4 GLY6        0.0000 
     75 CA         -3.4300    9.2000   11.0600 C.3       4 GLY6        0.0000 
     76 CA         -1.7600    8.9000   12.3300 C.3       4 GLY6        0.0000 
     77 DU        -11.1600    1.9100   12.4200 H         5 CUB7        0.0000 
     78 DU        -10.3700    2.7800   13.3400 H         5 CUB7        0.0000 
     79 DU        -11.2400    3.9500   13.0000 H         5 CUB7        0.0000 
     80 DU        -10.3200    4.3000   11.8700 H         5 CUB7        0.0000 
     81 DU         -9.3900    4.6600   10.7400 H         5 CUB7        0.0000 
     82 DU         -9.5200    5.1700   12.8000 H         5 CUB7        0.0000 
     83 DU         -8.6000    5.5300   11.6700 H         5 CUB7        0.0000 
     84 DU         -7.8500    4.8700   14.0700 H         5 CUB7        0.0000 
     85 DU         -6.9200    5.2300   12.9400 H         5 CUB7        0.0000 
     86 DU         -6.0000    5.5800   11.8100 H         5 CUB7        0.0000 
     87 DU         -8.7200    6.0400   13.7200 H         5 CUB7        0.0000 
     88 DU         -7.8000    6.4000   12.6000 H         5 CUB7        0.0000 
     89 DU         -6.8700    6.7500   11.4700 H         5 CUB7        0.0000 
     90 DU         -3.4600    4.1100   13.4300 H         5 CUB7        0.0000 
     91 DU         -3.4100    5.6400   11.9500 H         5 CUB7        0.0000 
@<TRIPOS>BOND
@<TRIPOS>SUBSTRUCTURE
     1 SER1        1 GROUP   
     2 ALA2        6 GROUP   
     3 PHE5       13 GROUP   
     4 GLY6       48 GROUP   
     5 CUB7       77 GROUP   
@<TRIPOS>SET

