#    Name: 6f4k_2_GTX
#    Modification time : Fri May 22 19:25:03 2020

@<TRIPOS>MOLECULE
6f4k_2_GTX
   54    53     1     0     0
SMALL
NO_CHARGES


@<TRIPOS>ATOM
      1 N1         -3.4870   -6.2610   23.7400 N.4       1 GTX301      0.0000 
      2 CA1        -3.0090   -7.2760   24.6830 C.3       1 GTX301      0.0000 
      3 C1         -3.1440   -8.6560   24.0550 C.2       1 GTX301      0.0000 
      4 O11        -2.5370   -9.6090   24.5980 O.co2     1 GTX301      0.0000 
      5 O12        -3.8260   -8.8050   22.9970 O.co2     1 GTX301      0.0000 
      6 CB1        -3.7980   -7.2840   26.0100 C.3       1 GTX301      0.0000 
      7 CG1        -5.3110   -7.4410   25.8000 C.3       1 GTX301      0.0000 
      8 CD1        -5.9960   -7.5950   27.1500 C.2       1 GTX301      0.0000 
      9 OE1        -6.4370   -6.6500   27.7230 O.2       1 GTX301      0.0000 
     10 N2         -6.0940   -8.9220   27.7040 N.am      1 GTX301      0.0000 
     11 CA2        -6.7230   -9.1300   29.0030 C.3       1 GTX301      0.0000 
     12 C2         -5.5840   -9.3640   29.9640 C.2       1 GTX301      0.0000 
     13 O2         -4.8990  -10.3350   29.8780 O.2       1 GTX301      0.0000 
     14 CB2        -7.5850  -10.3730   28.9730 C.3       1 GTX301      0.0000 
     15 SG2        -8.4520  -10.7160   30.5200 S.3       1 GTX301      0.0000 
     16 C1S        -9.8390   -9.5540   30.6480 C.3       1 GTX301      0.0000 
     17 C2S       -10.7570   -9.9620   31.8110 C.3       1 GTX301      0.0000 
     18 C3S       -11.7950  -10.9480   31.2750 C.3       1 GTX301      0.0000 
     19 C4S       -12.9060  -11.1750   32.3080 C.3       1 GTX301      0.0000 
     20 C5S       -13.7710  -12.2850   31.7540 C.3       1 GTX301      0.0000 
     21 C6S       -15.0460  -12.3270   32.5930 C.3       1 GTX301      0.0000 
     22 N3         -5.3470   -8.3680   30.9690 N.am      1 GTX301      0.0000 
     23 CA3        -4.2660   -8.5490   31.9210 C.3       1 GTX301      0.0000 
     24 C3         -4.2720   -7.3080   32.8090 C.2       1 GTX301      0.0000 
     25 O31        -3.6710   -7.3260   33.9230 O.co2     1 GTX301      0.0000 
     26 O32        -4.8930   -6.2810   32.3970 O.co2     1 GTX301      0.0000 
     27 HN11       -3.3210   -6.5280   22.9080 H         1 GTX301      0.0000 
     28 HN12       -3.0680   -5.4920   23.8940 H         1 GTX301      0.0000 
     29 HN13       -4.3640   -6.1470   23.8460 H         1 GTX301      0.0000 
     30 HA1        -2.0730   -7.1080   24.8760 H         1 GTX301      0.0000 
     31 HB11       -3.6310   -6.4510   26.4780 H         1 GTX301      0.0000 
     32 HB12       -3.4800   -8.0200   26.5570 H         1 GTX301      0.0000 
     33 HG11       -5.6580   -6.6550   25.3490 H         1 GTX301      0.0000 
     34 HG12       -5.4840   -8.2270   25.2580 H         1 GTX301      0.0000 
     35 HN2        -5.7630   -9.5910   27.2770 H         1 GTX301      0.0000 
     36 HA2        -7.2420   -8.3530   29.2640 H         1 GTX301      0.0000 
     37 HB21       -8.2480  -10.2560   28.2740 H         1 GTX301      0.0000 
     38 HB22       -7.0270  -11.1350   28.7520 H         1 GTX301      0.0000 
     39 HS11       -9.4970   -8.6600   30.8060 H         1 GTX301      0.0000 
     40 HS12      -10.3440   -9.5630   29.8200 H         1 GTX301      0.0000 
     41 HS21      -11.2030   -9.1780   32.1670 H         1 GTX301      0.0000 
     42 HS22      -10.2320  -10.3860   32.5080 H         1 GTX301      0.0000 
     43 HS31      -11.3630  -11.7930   31.0790 H         1 GTX301      0.0000 
     44 HS32      -12.1840  -10.5910   30.4610 H         1 GTX301      0.0000 
     45 HS41      -12.5220  -11.4430   33.1570 H         1 GTX301      0.0000 
     46 HS42      -13.4310  -10.3670   32.4180 H         1 GTX301      0.0000 
     47 HS51      -13.3040  -13.1320   31.8210 H         1 GTX301      0.0000 
     48 HS52      -13.9910  -12.1010   30.8270 H         1 GTX301      0.0000 
     49 HS61      -15.4950  -11.4690   32.5420 H         1 GTX301      0.0000 
     50 HS62      -15.6340  -13.0200   32.2540 H         1 GTX301      0.0000 
     51 HS63      -14.8190  -12.5190   33.5160 H         1 GTX301      0.0000 
     52 HN3        -5.8520   -7.6730   31.0160 H         1 GTX301      0.0000 
     53 HA31       -4.4220   -9.3430   32.4560 H         1 GTX301      0.0000 
     54 HA32       -3.4190   -8.6210   31.4540 H         1 GTX301      0.0000 
@<TRIPOS>BOND
     1    1    2 1    
     2    2    3 1    
     3    1   27 1    
     4    1   28 1    
     5    1   29 1    
     6    2    6 1    
     7    2   30 1    
     8    3    4 ar   
     9    3    5 ar   
    10    6    7 1    
    11    6   31 1    
    12    6   32 1    
    13    7    8 1    
    14    7   33 1    
    15    7   34 1    
    16    8    9 2    
    17    8   10 am   
    18   10   11 1    
    19   11   12 1    
    20   10   35 1    
    21   11   14 1    
    22   11   36 1    
    23   12   13 2    
    24   12   22 am   
    25   14   15 1    
    26   14   37 1    
    27   14   38 1    
    28   15   16 1    
    29   16   17 1    
    30   16   39 1    
    31   16   40 1    
    32   17   18 1    
    33   17   41 1    
    34   17   42 1    
    35   18   19 1    
    36   18   43 1    
    37   18   44 1    
    38   19   20 1    
    39   19   45 1    
    40   19   46 1    
    41   20   21 1    
    42   20   47 1    
    43   20   48 1    
    44   21   49 1    
    45   21   50 1    
    46   21   51 1    
    47   22   23 1    
    48   23   24 1    
    49   22   52 1    
    50   23   53 1    
    51   23   54 1    
    52   24   25 ar   
    53   24   26 ar   
@<TRIPOS>SUBSTRUCTURE
     1 GTX301      1 GROUP   
@<TRIPOS>SET

