#    Name: 6f4k_2_GTX_CAVITY_N1_4
#    Modification time : Fri May 22 19:25:05 2020

@<TRIPOS>MOLECULE
6f4k_2_GTX_CAVITY_N1_4
   69     0     5     0     0
SMALL
NO_CHARGES


@<TRIPOS>ATOM
      1 OG         -6.6200   -9.1700   28.5900 O.3       1 SER1        0.0000 
      2 N         -13.6200  -13.5600   31.4500 N.am      2 ALA2        0.0000 
      3 N         -15.4200  -12.7400   32.2300 N.am      2 ALA2        0.0000 
      4 N         -14.5000  -12.3900   31.1000 N.am      2 ALA2        0.0000 
      5 N          -8.3400  -10.4000   28.7900 N.am      2 ALA2        0.0000 
      6 N         -10.1300   -9.5800   29.5700 N.am      2 ALA2        0.0000 
      7 N          -9.2100   -9.2300   28.4400 N.am      2 ALA2        0.0000 
      8 CZ        -12.7000  -13.2000   30.3200 C.ar      3 PHE5        0.0000 
      9 CZ        -11.9500  -13.8600   32.7200 C.ar      3 PHE5        0.0000 
     10 CZ        -10.1100  -13.1500   30.4600 C.ar      3 PHE5        0.0000 
     11 CZ        -13.7500  -13.0500   33.5000 C.ar      3 PHE5        0.0000 
     12 CZ        -12.8200  -12.6900   32.3700 C.ar      3 PHE5        0.0000 
     13 CZ        -11.9000  -12.3300   31.2500 C.ar      3 PHE5        0.0000 
     14 CZ        -14.6200  -11.8700   33.1600 C.ar      3 PHE5        0.0000 
     15 CZ        -13.7000  -11.5200   32.0300 C.ar      3 PHE5        0.0000 
     16 CZ        -11.8500  -10.8100   29.7700 C.ar      3 PHE5        0.0000 
     17 CZ        -11.1500  -12.9900   33.6400 C.ar      3 PHE5        0.0000 
     18 CZ         -8.3900  -11.9200   30.2600 C.ar      3 PHE5        0.0000 
     19 CZ         -7.4600  -11.5700   29.1300 C.ar      3 PHE5        0.0000 
     20 CZ        -12.0200  -11.8200   33.3000 C.ar      3 PHE5        0.0000 
     21 CZ        -10.1800  -11.1100   31.0400 C.ar      3 PHE5        0.0000 
     22 CZ         -9.2600  -10.7500   29.9200 C.ar      3 PHE5        0.0000 
     23 CZ        -12.9000  -10.6500   32.9600 C.ar      3 PHE5        0.0000 
     24 CZ         -3.1200  -13.8500   29.9600 C.ar      3 PHE5        0.0000 
     25 CZ         -4.9200  -13.0400   30.7500 C.ar      3 PHE5        0.0000 
     26 CZ         -4.0000  -12.6800   29.6200 C.ar      3 PHE5        0.0000 
     27 CZ         -5.7900  -11.8700   30.4000 C.ar      3 PHE5        0.0000 
     28 CZ        -10.3500  -12.1200   34.5700 C.ar      3 PHE5        0.0000 
     29 CZ         -9.4300  -11.7700   33.4400 C.ar      3 PHE5        0.0000 
     30 CZ         -8.5100  -11.4100   32.3200 C.ar      3 PHE5        0.0000 
     31 CZ         -7.5900  -11.0500   31.1900 C.ar      3 PHE5        0.0000 
     32 CZ         -6.6700  -10.7000   30.0600 C.ar      3 PHE5        0.0000 
     33 CZ         -5.7400  -10.3400   28.9300 C.ar      3 PHE5        0.0000 
     34 CZ        -11.2300  -10.9500   34.2300 C.ar      3 PHE5        0.0000 
     35 CZ        -10.3000  -10.6000   33.1000 C.ar      3 PHE5        0.0000 
     36 CZ         -9.3800  -10.2400   31.9700 C.ar      3 PHE5        0.0000 
     37 CZ         -8.4600   -9.8800   30.8400 C.ar      3 PHE5        0.0000 
     38 CZ        -10.2500   -9.0700   31.6300 C.ar      3 PHE5        0.0000 
     39 CZ         -6.8400  -11.7100   33.5900 C.ar      3 PHE5        0.0000 
     40 CZ         -5.9200  -11.3600   32.4600 C.ar      3 PHE5        0.0000 
     41 CZ         -6.7900  -10.1900   32.1100 C.ar      3 PHE5        0.0000 
     42 CZ         -5.8700   -9.8300   30.9900 C.ar      3 PHE5        0.0000 
     43 CZ         -6.7400   -8.6600   30.6400 C.ar      3 PHE5        0.0000 
     44 CZ         -5.1200  -10.4900   33.3800 C.ar      3 PHE5        0.0000 
     45 CZ         -4.1900  -10.1300   32.2600 C.ar      3 PHE5        0.0000 
     46 CZ         -5.0700   -8.9600   31.9100 C.ar      3 PHE5        0.0000 
     47 CA        -11.0300  -13.5000   31.5900 C.3       4 GLY6        0.0000 
     48 CA        -12.7700  -11.1600   30.9000 C.3       4 GLY6        0.0000 
     49 CA         -9.3600  -13.8100   32.8600 C.3       4 GLY6        0.0000 
     50 CA         -8.4400  -13.4500   31.7300 C.3       4 GLY6        0.0000 
     51 CA         -7.5100  -13.0900   30.6000 C.3       4 GLY6        0.0000 
     52 CA        -10.2300  -12.6400   32.5200 C.3       4 GLY6        0.0000 
     53 CA         -9.3100  -12.2800   31.3900 C.3       4 GLY6        0.0000 
     54 CA        -11.9800  -10.2900   31.8300 C.3       4 GLY6        0.0000 
     55 CA        -11.0500   -9.9400   30.7000 C.3       4 GLY6        0.0000 
     56 CA         -5.8400  -13.4000   31.8700 C.3       4 GLY6        0.0000 
     57 CA         -7.6400  -12.5800   32.6600 C.3       4 GLY6        0.0000 
     58 CA        -11.1800   -9.4300   32.7600 C.3       4 GLY6        0.0000 
     59 CA         -9.3300   -8.7100   30.5000 C.3       4 GLY6        0.0000 
     60 CA         -8.4100   -8.3600   29.3700 C.3       4 GLY6        0.0000 
     61 CA         -7.4900   -8.0000   28.2400 C.3       4 GLY6        0.0000 
     62 DU        -11.1000  -11.4600   32.1700 H         5 CUB7        0.0000 
     63 DU         -8.5600  -12.9400   33.7900 H         5 CUB7        0.0000 
     64 DU         -6.7100  -12.2300   31.5300 H         5 CUB7        0.0000 
     65 DU         -7.5400   -9.5300   29.7100 H         5 CUB7        0.0000 
     66 DU         -2.3300  -12.9900   30.8900 H         5 CUB7        0.0000 
     67 DU         -5.0400  -12.5300   32.8000 H         5 CUB7        0.0000 
     68 DU         -4.1200  -12.1700   31.6700 H         5 CUB7        0.0000 
     69 DU         -4.9900  -11.0000   31.3300 H         5 CUB7        0.0000 
@<TRIPOS>BOND
@<TRIPOS>SUBSTRUCTURE
     1 SER1        1 GROUP   
     2 ALA2        2 GROUP   
     3 PHE5        8 GROUP   
     4 GLY6       47 GROUP   
     5 CUB7       62 GROUP   
@<TRIPOS>SET

