#    Name: 6f4k_1_GTX
#    Modification time : Fri May 22 19:24:56 2020

@<TRIPOS>MOLECULE
6f4k_1_GTX
   54    53     1     0     0
SMALL
NO_CHARGES


@<TRIPOS>ATOM
      1 N1         -2.3540  -12.2000   23.2740 N.4       1 GTX300      0.0000 
      2 CA1        -1.9230  -13.3050   24.1250 C.3       1 GTX300      0.0000 
      3 C1         -2.6060  -14.5610   23.6200 C.2       1 GTX300      0.0000 
      4 O11        -3.6140  -14.4370   22.8760 O.co2     1 GTX300      0.0000 
      5 O12        -2.1320  -15.6890   23.9310 O.co2     1 GTX300      0.0000 
      6 CB1        -2.3480  -13.0180   25.5640 C.3       1 GTX300      0.0000 
      7 CG1        -1.6720  -13.9570   26.5410 C.3       1 GTX300      0.0000 
      8 CD1        -1.7120  -13.3830   27.9520 C.2       1 GTX300      0.0000 
      9 OE1        -1.7580  -12.1970   28.1800 O.2       1 GTX300      0.0000 
     10 N2         -1.5650  -14.3440   28.9930 N.am      1 GTX300      0.0000 
     11 CA2        -1.4800  -13.8870   30.3690 C.3       1 GTX300      0.0000 
     12 C2         -0.0080  -13.8070   30.7150 C.2       1 GTX300      0.0000 
     13 O2          0.7470  -14.7250   30.5770 O.2       1 GTX300      0.0000 
     14 CB2        -2.0630  -14.8500   31.4010 C.3       1 GTX300      0.0000 
     15 SG2        -3.8470  -14.9920   31.1360 S.3       1 GTX300      0.0000 
     16 C1S        -4.4830  -13.2890   31.0570 C.3       1 GTX300      0.0000 
     17 C2S        -4.3800  -12.6490   32.4340 C.3       1 GTX300      0.0000 
     18 C3S        -5.3770  -13.2700   33.4280 C.3       1 GTX300      0.0000 
     19 C4S        -6.8300  -12.9340   33.0950 C.3       1 GTX300      0.0000 
     20 C5S        -7.7330  -13.4280   34.2230 C.3       1 GTX300      0.0000 
     21 C6S        -9.1620  -12.9320   34.0280 C.3       1 GTX300      0.0000 
     22 N3          0.4710  -12.5510   31.2120 N.am      1 GTX300      0.0000 
     23 CA3         1.8700  -12.3890   31.5820 C.3       1 GTX300      0.0000 
     24 C3          2.3630  -11.1050   30.9500 C.2       1 GTX300      0.0000 
     25 O31         3.5200  -10.6850   31.1890 O.co2     1 GTX300      0.0000 
     26 O32         1.6030  -10.4790   30.1740 O.co2     1 GTX300      0.0000 
     27 HN11       -1.9050  -12.2250   22.5060 H         1 GTX300      0.0000 
     28 HN12       -2.1930  -11.4280   23.6870 H         1 GTX300      0.0000 
     29 HN13       -3.2250  -12.2740   23.1110 H         1 GTX300      0.0000 
     30 HA1        -0.9600  -13.4070   24.0760 H         1 GTX300      0.0000 
     31 HB11       -2.1110  -12.1040   25.7880 H         1 GTX300      0.0000 
     32 HB12       -3.3090  -13.1230   25.6380 H         1 GTX300      0.0000 
     33 HG11       -2.1290  -14.8120   26.5300 H         1 GTX300      0.0000 
     34 HG12       -0.7480  -14.0840   26.2740 H         1 GTX300      0.0000 
     35 HN2        -1.4790  -15.1790   28.8060 H         1 GTX300      0.0000 
     36 HA2        -1.8910  -13.0130   30.4580 H         1 GTX300      0.0000 
     37 HB21       -1.8940  -14.5070   32.2920 H         1 GTX300      0.0000 
     38 HB22       -1.6480  -15.7220   31.3030 H         1 GTX300      0.0000 
     39 HS11       -5.4110  -13.3020   30.7750 H         1 GTX300      0.0000 
     40 HS12       -3.9590  -12.7760   30.4220 H         1 GTX300      0.0000 
     41 HS21       -4.5630  -11.7000   32.3560 H         1 GTX300      0.0000 
     42 HS22       -3.4790  -12.7710   32.7730 H         1 GTX300      0.0000 
     43 HS31       -5.1760  -12.9420   34.3190 H         1 GTX300      0.0000 
     44 HS32       -5.2690  -14.2340   33.4180 H         1 GTX300      0.0000 
     45 HS41       -6.9260  -11.9730   33.0000 H         1 GTX300      0.0000 
     46 HS42       -7.0810  -13.3680   32.2650 H         1 GTX300      0.0000 
     47 HS51       -7.7310  -14.3980   34.2320 H         1 GTX300      0.0000 
     48 HS52       -7.3940  -13.1000   35.0700 H         1 GTX300      0.0000 
     49 HS61       -9.5010  -13.2480   33.1760 H         1 GTX300      0.0000 
     50 HS62       -9.1720  -11.9620   34.0390 H         1 GTX300      0.0000 
     51 HS63       -9.7220  -13.2690   34.7440 H         1 GTX300      0.0000 
     52 HN3        -0.0760  -11.8950   31.3130 H         1 GTX300      0.0000 
     53 HA31        1.9510  -12.3330   32.5470 H         1 GTX300      0.0000 
     54 HA32        2.3870  -13.1390   31.2510 H         1 GTX300      0.0000 
@<TRIPOS>BOND
     1    1    2 1    
     2    2    3 1    
     3    1   27 1    
     4    1   28 1    
     5    1   29 1    
     6    2    6 1    
     7    2   30 1    
     8    3    4 ar   
     9    3    5 ar   
    10    6    7 1    
    11    6   31 1    
    12    6   32 1    
    13    7    8 1    
    14    7   33 1    
    15    7   34 1    
    16    8    9 2    
    17    8   10 am   
    18   10   11 1    
    19   11   12 1    
    20   10   35 1    
    21   11   14 1    
    22   11   36 1    
    23   12   13 2    
    24   12   22 am   
    25   14   15 1    
    26   14   37 1    
    27   14   38 1    
    28   15   16 1    
    29   16   17 1    
    30   16   39 1    
    31   16   40 1    
    32   17   18 1    
    33   17   41 1    
    34   17   42 1    
    35   18   19 1    
    36   18   43 1    
    37   18   44 1    
    38   19   20 1    
    39   19   45 1    
    40   19   46 1    
    41   20   21 1    
    42   20   47 1    
    43   20   48 1    
    44   21   49 1    
    45   21   50 1    
    46   21   51 1    
    47   22   23 1    
    48   23   24 1    
    49   22   52 1    
    50   23   53 1    
    51   23   54 1    
    52   24   25 ar   
    53   24   26 ar   
@<TRIPOS>SUBSTRUCTURE
     1 GTX300      1 GROUP   
@<TRIPOS>SET

