#    Name: 5wyd_1_PTD_CAVITY_N1_4
#    Modification time : Fri May 22 19:16:23 2020

@<TRIPOS>MOLECULE
5wyd_1_PTD_CAVITY_N1_4
   12     0     4     0     0
SMALL
NO_CHARGES


@<TRIPOS>ATOM
      1 OD1       -55.8200   31.6000   -0.4200 O.co2     1 ASP3        0.0000 
      2 CZ        -57.0000   27.2900    0.1700 C.ar      2 PHE5        0.0000 
      3 CZ        -57.0600   28.1900   -1.0300 C.ar      2 PHE5        0.0000 
      4 CZ        -56.7600   28.0900    2.6300 C.ar      2 PHE5        0.0000 
      5 CZ        -56.6600   30.6800    2.6900 C.ar      2 PHE5        0.0000 
      6 CZ        -56.7200   31.5800    1.5000 C.ar      2 PHE5        0.0000 
      7 CZ        -55.7500   30.7000    0.7800 C.ar      2 PHE5        0.0000 
      8 CA        -55.8500   28.1000    0.7100 C.3       3 GLY6        0.0000 
      9 CA        -55.9200   29.0000   -0.4900 C.3       3 GLY6        0.0000 
     10 CA        -54.7800   29.8100    0.0600 C.3       3 GLY6        0.0000 
     11 DU        -56.8300   28.9900    1.4300 H         4 CUB7        0.0000 
     12 DU        -55.6900   29.8000    1.9700 H         4 CUB7        0.0000 
@<TRIPOS>BOND
@<TRIPOS>SUBSTRUCTURE
     1 ASP3        1 GROUP   
     2 PHE5        2 GROUP   
     3 GLY6        8 GROUP   
     4 CUB7       11 GROUP   
@<TRIPOS>SET

