#    Name: 5wyd_1_PTD
#    Modification time : Fri May 22 19:16:22 2020

@<TRIPOS>MOLECULE
5wyd_1_PTD
    7     6     1     0     0
SMALL
NO_CHARGES


@<TRIPOS>ATOM
      1 C1        -58.5320   29.8040   -0.9890 C.2       1 PTD301      0.0000 
      2 C2        -58.6360   29.3430    0.4690 C.3       1 PTD301      0.0000 
      3 C3        -59.8640   28.4320    0.5470 C.3       1 PTD301      0.0000 
      4 C4        -60.1910   28.1250    1.9950 C.3       1 PTD301      0.0000 
      5 C5        -60.9060   26.7680    2.1310 C.2       1 PTD301      0.0000 
      6 O1        -59.4530   30.4060   -1.4430 O.2       1 PTD301      0.0000 
      7 O5        -60.3010   25.7760    2.4570 O.2       1 PTD301      0.0000 
@<TRIPOS>BOND
     1    1    2 1    
     2    1    6 2    
     3    2    3 1    
     4    3    4 1    
     5    4    5 1    
     6    5    7 2    
@<TRIPOS>SUBSTRUCTURE
     1 PTD301      1 GROUP   
@<TRIPOS>SET

