#    Name: 5wyd_1_PTD_CAVITY_N1_6
#    Modification time : Fri May 22 19:16:23 2020

@<TRIPOS>MOLECULE
5wyd_1_PTD_CAVITY_N1_6
   32     0     4     0     0
SMALL
NO_CHARGES


@<TRIPOS>ATOM
      1 OD1       -55.8200   31.6000   -0.4200 O.co2     1 ASP3        0.0000 
      2 CZ        -57.0000   27.2900    0.1700 C.ar      2 PHE5        0.0000 
      3 CZ        -57.0600   28.1900   -1.0300 C.ar      2 PHE5        0.0000 
      4 CZ        -56.7600   28.0900    2.6300 C.ar      2 PHE5        0.0000 
      5 CZ        -54.8200   26.3100    1.1900 C.ar      2 PHE5        0.0000 
      6 CZ        -54.8800   27.2100   -0.0100 C.ar      2 PHE5        0.0000 
      7 CZ        -55.5500   28.0000    4.3700 C.ar      2 PHE5        0.0000 
      8 CZ        -54.5800   27.1100    3.6500 C.ar      2 PHE5        0.0000 
      9 CZ        -55.6200   28.9000    3.1700 C.ar      2 PHE5        0.0000 
     10 CZ        -54.6500   28.0100    2.4500 C.ar      2 PHE5        0.0000 
     11 CZ        -53.6800   27.1200    1.7300 C.ar      2 PHE5        0.0000 
     12 CZ        -56.6600   30.6800    2.6900 C.ar      2 PHE5        0.0000 
     13 CZ        -56.7200   31.5800    1.5000 C.ar      2 PHE5        0.0000 
     14 CZ        -55.7500   30.7000    0.7800 C.ar      2 PHE5        0.0000 
     15 CZ        -55.4500   30.5900    4.4400 C.ar      2 PHE5        0.0000 
     16 CZ        -55.5200   31.4900    3.2400 C.ar      2 PHE5        0.0000 
     17 CZ        -54.5400   30.6000    2.5200 C.ar      2 PHE5        0.0000 
     18 CZ        -54.6100   31.5000    1.3200 C.ar      2 PHE5        0.0000 
     19 CZ        -54.6800   32.4000    0.1200 C.ar      2 PHE5        0.0000 
     20 CZ        -54.7400   33.3000   -1.0800 C.ar      2 PHE5        0.0000 
     21 CA        -55.8500   28.1000    0.7100 C.3       3 GLY6        0.0000 
     22 CA        -55.9200   29.0000   -0.4900 C.3       3 GLY6        0.0000 
     23 CA        -54.7100   28.9100    1.2500 C.3       3 GLY6        0.0000 
     24 CA        -53.7400   28.0200    0.5300 C.3       3 GLY6        0.0000 
     25 CA        -54.7800   29.8100    0.0600 C.3       3 GLY6        0.0000 
     26 CA        -53.5100   28.8200    3.0000 C.3       3 GLY6        0.0000 
     27 CA        -53.6400   30.6200    0.6000 C.3       3 GLY6        0.0000 
     28 CA        -53.7000   31.5200   -0.6000 C.3       3 GLY6        0.0000 
     29 DU        -56.8300   28.9900    1.4300 H         4 CUB7        0.0000 
     30 DU        -55.6900   29.8000    1.9700 H         4 CUB7        0.0000 
     31 DU        -54.4800   29.7100    3.7200 H         4 CUB7        0.0000 
     32 DU        -53.5700   29.7200    1.8000 H         4 CUB7        0.0000 
@<TRIPOS>BOND
@<TRIPOS>SUBSTRUCTURE
     1 ASP3        1 GROUP   
     2 PHE5        2 GROUP   
     3 GLY6       21 GROUP   
     4 CUB7       29 GROUP   
@<TRIPOS>SET

