#    Name: 5wyd_1_PTD_CAVITY_N1_8
#    Modification time : Fri May 22 19:16:23 2020

@<TRIPOS>MOLECULE
5wyd_1_PTD_CAVITY_N1_8
   60     0     5     0     0
SMALL
NO_CHARGES


@<TRIPOS>ATOM
      1 N         -53.3400   30.5100    4.2600 N.am      1 ALA2        0.0000 
      2 N         -52.3700   29.6300    3.5400 N.am      1 ALA2        0.0000 
      3 N         -52.4300   30.5300    2.3400 N.am      1 ALA2        0.0000 
      4 N         -51.4600   29.6400    1.6200 N.am      1 ALA2        0.0000 
      5 N         -51.2900   31.3300    2.8900 N.am      1 ALA2        0.0000 
      6 OD1       -55.8200   31.6000   -0.4200 O.co2     2 ASP3        0.0000 
      7 CZ        -57.0000   27.2900    0.1700 C.ar      3 PHE5        0.0000 
      8 CZ        -57.0600   28.1900   -1.0300 C.ar      3 PHE5        0.0000 
      9 CZ        -56.7600   28.0900    2.6300 C.ar      3 PHE5        0.0000 
     10 CZ        -54.8200   26.3100    1.1900 C.ar      3 PHE5        0.0000 
     11 CZ        -54.8800   27.2100   -0.0100 C.ar      3 PHE5        0.0000 
     12 CZ        -55.5500   28.0000    4.3700 C.ar      3 PHE5        0.0000 
     13 CZ        -54.5800   27.1100    3.6500 C.ar      3 PHE5        0.0000 
     14 CZ        -55.6200   28.9000    3.1700 C.ar      3 PHE5        0.0000 
     15 CZ        -54.6500   28.0100    2.4500 C.ar      3 PHE5        0.0000 
     16 CZ        -53.6800   27.1200    1.7300 C.ar      3 PHE5        0.0000 
     17 CZ        -56.6600   30.6800    2.6900 C.ar      3 PHE5        0.0000 
     18 CZ        -56.7200   31.5800    1.5000 C.ar      3 PHE5        0.0000 
     19 CZ        -55.7500   30.7000    0.7800 C.ar      3 PHE5        0.0000 
     20 CZ        -55.4500   30.5900    4.4400 C.ar      3 PHE5        0.0000 
     21 CZ        -55.5200   31.4900    3.2400 C.ar      3 PHE5        0.0000 
     22 CZ        -54.5400   30.6000    2.5200 C.ar      3 PHE5        0.0000 
     23 CZ        -54.6100   31.5000    1.3200 C.ar      3 PHE5        0.0000 
     24 CZ        -54.6800   32.4000    0.1200 C.ar      3 PHE5        0.0000 
     25 CZ        -54.7400   33.3000   -1.0800 C.ar      3 PHE5        0.0000 
     26 CZ        -55.2800   32.2900    5.7000 C.ar      3 PHE5        0.0000 
     27 CZ        -54.3100   31.4000    4.9800 C.ar      3 PHE5        0.0000 
     28 CZ        -53.4000   31.4100    3.0600 C.ar      3 PHE5        0.0000 
     29 CZ        -53.4700   32.3100    1.8600 C.ar      3 PHE5        0.0000 
     30 CZ        -53.5400   33.2100    0.6600 C.ar      3 PHE5        0.0000 
     31 CZ        -53.1700   32.2100    5.5200 C.ar      3 PHE5        0.0000 
     32 CZ        -53.2300   33.1100    4.3300 C.ar      3 PHE5        0.0000 
     33 CZ        -52.2600   32.2200    3.6100 C.ar      3 PHE5        0.0000 
     34 CZ        -52.3300   33.1200    2.4100 C.ar      3 PHE5        0.0000 
     35 CZ        -52.3900   34.0200    1.2100 C.ar      3 PHE5        0.0000 
     36 CA        -55.8500   28.1000    0.7100 C.3       4 GLY6        0.0000 
     37 CA        -55.9200   29.0000   -0.4900 C.3       4 GLY6        0.0000 
     38 CA        -54.7100   28.9100    1.2500 C.3       4 GLY6        0.0000 
     39 CA        -53.7400   28.0200    0.5300 C.3       4 GLY6        0.0000 
     40 CA        -54.7800   29.8100    0.0600 C.3       4 GLY6        0.0000 
     41 CA        -55.2500   27.8900    8.0300 C.3       4 GLY6        0.0000 
     42 CA        -55.3200   28.7900    6.8300 C.3       4 GLY6        0.0000 
     43 CA        -54.4100   28.8100    4.9100 C.3       4 GLY6        0.0000 
     44 CA        -53.5100   28.8200    3.0000 C.3       4 GLY6        0.0000 
     45 CA        -52.5300   27.9300    2.2800 C.3       4 GLY6        0.0000 
     46 CA        -52.6000   28.8300    1.0800 C.3       4 GLY6        0.0000 
     47 CA        -53.6400   30.6200    0.6000 C.3       4 GLY6        0.0000 
     48 CA        -53.7000   31.5200   -0.6000 C.3       4 GLY6        0.0000 
     49 CA        -53.2700   29.6100    5.4600 C.3       4 GLY6        0.0000 
     50 CA        -52.5000   31.4200    1.1400 C.3       4 GLY6        0.0000 
     51 CA        -51.5300   30.5400    0.4200 C.3       4 GLY6        0.0000 
     52 CA        -53.6000   34.1100   -0.5300 C.3       4 GLY6        0.0000 
     53 CA        -51.3600   32.2300    1.6900 C.3       4 GLY6        0.0000 
     54 DU        -56.8300   28.9900    1.4300 H         5 CUB7        0.0000 
     55 DU        -55.6900   29.8000    1.9700 H         5 CUB7        0.0000 
     56 DU        -55.3800   29.6900    5.6300 H         5 CUB7        0.0000 
     57 DU        -54.4800   29.7100    3.7200 H         5 CUB7        0.0000 
     58 DU        -53.5700   29.7200    1.8000 H         5 CUB7        0.0000 
     59 DU        -55.2100   31.3900    6.9000 H         5 CUB7        0.0000 
     60 DU        -54.2400   30.5000    6.1800 H         5 CUB7        0.0000 
@<TRIPOS>BOND
@<TRIPOS>SUBSTRUCTURE
     1 ALA2        1 GROUP   
     2 ASP3        6 GROUP   
     3 PHE5        7 GROUP   
     4 GLY6       36 GROUP   
     5 CUB7       54 GROUP   
@<TRIPOS>SET

