#    Name: 6cdf_1_NAI
#    Modification time : Fri May 22 19:32:33 2020

@<TRIPOS>MOLECULE
6cdf_1_NAI
   71    75     1     0     1
SMALL
NO_CHARGES


@<TRIPOS>ATOM
      1 PA         68.0950   67.3240    0.7930 P.3       1 NAI401      0.0000 
      2 O1A        68.9420   68.2400    1.6410 O.co2     1 NAI401      0.0000 
      3 O2A        66.5890   67.3550    0.9340 O.co2     1 NAI401      0.0000 
      4 O5B        68.4740   67.5860   -0.7460 O.3       1 NAI401      0.0000 
      5 C5B        67.8560   66.8580   -1.7990 C.3       1 NAI401      0.0000 
      6 C4B        68.0000   67.6510   -3.0880 C.3       1 NAI401      0.0000 
      7 O4B        67.7790   66.8140   -4.2240 O.3       1 NAI401      0.0000 
      8 C3B        66.9990   68.7950   -3.1760 C.3       1 NAI401      0.0000 
      9 O3B        67.6880   70.0380   -3.3340 O.3       1 NAI401      0.0000 
     10 C2B        66.1510   68.5000   -4.3970 C.3       1 NAI401      0.0000 
     11 O2B        65.8580   69.6860   -5.1410 O.3       1 NAI401      0.0000 
     12 C1B        67.0320   67.5530   -5.1940 C.3       1 NAI401      0.0000 
     13 N9A        66.2790   66.6660   -6.1170 N.pl3     1 NAI401      0.0000 
     14 C8A        65.1280   66.0110   -5.8720 C.2       1 NAI401      0.0000 
     15 N7A        64.7520   65.2990   -6.9660 N.2       1 NAI401      0.0000 
     16 C5A        65.6690   65.5020   -7.9290 C.ar      1 NAI401      0.0000 
     17 C6A        65.8840   65.0590   -9.3240 C.ar      1 NAI401      0.0000 
     18 N6A        65.0100   64.2250   -9.9330 N.pl3     1 NAI401      0.0000 
     19 N1A        66.9830   65.5100   -9.9710 N.ar      1 NAI401      0.0000 
     20 C2A        67.8670   66.3410   -9.3880 C.ar      1 NAI401      0.0000 
     21 N3A        67.7280   66.7820   -8.1260 N.ar      1 NAI401      0.0000 
     22 C4A        66.6710   66.4090   -7.3640 C.ar      1 NAI401      0.0000 
     23 O3         68.6040   65.8050    0.9980 O.3       1 NAI401      0.0000 
     24 PN         70.0330   65.4070    1.6300 P.3       1 NAI401      0.0000 
     25 O1N        69.9450   65.4940    3.1330 O.co2     1 NAI401      0.0000 
     26 O2N        71.1420   66.1270    0.9000 O.co2     1 NAI401      0.0000 
     27 O5D        70.0770   63.8650    1.2050 O.3       1 NAI401      0.0000 
     28 C5D        70.2810   63.5130   -0.1620 C.3       1 NAI401      0.0000 
     29 C4D        69.9870   62.0290   -0.3650 C.3       1 NAI401      0.0000 
     30 O4D        70.9770   61.2420    0.2960 O.3       1 NAI401      0.0000 
     31 C3D        68.6420   61.6470    0.2300 C.3       1 NAI401      0.0000 
     32 O3D        67.8990   60.8530   -0.6940 O.3       1 NAI401      0.0000 
     33 C2D        68.9520   60.8100    1.4460 C.3       1 NAI401      0.0000 
     34 O2D        68.0280   59.7320    1.5800 O.3       1 NAI401      0.0000 
     35 C1D        70.3390   60.2790    1.1400 C.3       1 NAI401      0.0000 
     36 N1N        71.1440   60.0230    2.3340 N.pl3     1 NAI401      0.0000 
     37 C2N        71.6120   58.7870    2.5000 C.2       1 NAI401      0.0000 
     38 C3N        72.3890   58.4620    3.5930 C.2       1 NAI401      0.0000 
     39 C7N        72.9120   57.0700    3.7480 C.2       1 NAI401      0.0000 
     40 O7N        73.0570   56.6190    4.8650 O.2       1 NAI401      0.0000 
     41 N7N        73.2250   56.3510    2.6710 N.am      1 NAI401      0.0000 
     42 C4N        72.7300   59.4840    4.6420 C.3       1 NAI401      0.0000 
     43 C5N        72.1790   60.7940    4.3320 C.2       1 NAI401      0.0000 
     44 C6N        71.4010   61.0060    3.2030 C.2       1 NAI401      0.0000 
     45 H51A       66.7990   66.7010   -1.5740 H         1 NAI401      0.0000 
     46 H52A       68.3330   65.8810   -1.9070 H         1 NAI401      0.0000 
     47 H4B        69.0150   68.0710   -3.1300 H         1 NAI401      0.0000 
     48 H3B        66.3670   68.8060   -2.2770 H         1 NAI401      0.0000 
     49 HO3A       67.0440   70.7500   -3.4500 H         1 NAI401      0.0000 
     50 H2B        65.2290   67.9850   -4.0940 H         1 NAI401      0.0000 
     51 HO2A       65.2770   70.2570   -4.6210 H         1 NAI401      0.0000 
     52 H1B        67.7280   68.1640   -5.7850 H         1 NAI401      0.0000 
     53 H8A        64.5830   66.0440   -4.9360 H         1 NAI401      0.0000 
     54 H61A       65.1730   63.9310  -10.8860 H         1 NAI401      0.0000 
     55 H62A       64.1960   63.8950   -9.4350 H         1 NAI401      0.0000 
     56 H2A        68.7260   66.6690   -9.9600 H         1 NAI401      0.0000 
     57 H51N       69.6230   64.1090   -0.7970 H         1 NAI401      0.0000 
     58 H52N       71.3130   63.7260   -0.4470 H         1 NAI401      0.0000 
     59 H4D        69.9800   61.8070   -1.4410 H         1 NAI401      0.0000 
     60 H3D        68.0860   62.5490    0.5220 H         1 NAI401      0.0000 
     61 HO3N       67.0400   60.6300   -0.3090 H         1 NAI401      0.0000 
     62 H2D        68.9750   61.4400    2.3460 H         1 NAI401      0.0000 
     63 HO2N       67.1380   60.0860    1.7140 H         1 NAI401      0.0000 
     64 H1D        70.2220   59.3390    0.5820 H         1 NAI401      0.0000 
     65 H2N        71.3840   58.0270    1.7630 H         1 NAI401      0.0000 
     66 H71N       73.5820   55.4120    2.7780 H         1 NAI401      0.0000 
     67 H72N       73.1030   56.7430    1.7490 H         1 NAI401      0.0000 
     68 H4N        73.8160   59.5620    4.7290 H         1 NAI401      0.0000 
     69 H42N       72.3440   59.1510    5.6080 H         1 NAI401      0.0000 
     70 H5N        72.3490   61.6140    5.0170 H         1 NAI401      0.0000 
     71 H6N        70.9960   61.9930    3.0190 H         1 NAI401      0.0000 
@<TRIPOS>BOND
     1    1    2 ar   
     2    1    3 ar   
     3    1    4 1    
     4    1   23 1    
     5    4    5 1    
     6    5    6 1    
     7    5   45 1    
     8    5   46 1    
     9    6    7 1    
    10    6    8 1    
    11    6   47 1    
    12    7   12 1    
    13    8    9 1    
    14    8   10 1    
    15    8   48 1    
    16    9   49 1    
    17   10   11 1    
    18   10   12 1    
    19   10   50 1    
    20   11   51 1    
    21   12   13 1    
    22   12   52 1    
    23   13   14 1    
    24   13   22 1    
    25   14   15 2    
    26   14   53 1    
    27   15   16 1    
    28   16   17 ar   
    29   16   22 ar   
    30   17   18 1    
    31   17   19 ar   
    32   18   54 1    
    33   18   55 1    
    34   19   20 ar   
    35   20   21 ar   
    36   20   56 1    
    37   21   22 ar   
    38   23   24 1    
    39   24   25 ar   
    40   24   26 ar   
    41   24   27 1    
    42   27   28 1    
    43   28   29 1    
    44   28   57 1    
    45   28   58 1    
    46   29   30 1    
    47   29   31 1    
    48   29   59 1    
    49   30   35 1    
    50   31   32 1    
    51   31   33 1    
    52   31   60 1    
    53   32   61 1    
    54   33   34 1    
    55   33   35 1    
    56   33   62 1    
    57   34   63 1    
    58   35   36 1    
    59   35   64 1    
    60   36   37 1    
    61   36   44 1    
    62   37   38 2    
    63   37   65 1    
    64   38   39 1    
    65   38   42 1    
    66   39   40 2    
    67   39   41 am   
    68   41   66 1    
    69   41   67 1    
    70   42   43 1    
    71   42   68 1    
    72   42   69 1    
    73   43   44 2    
    74   43   70 1    
    75   44   71 1    
@<TRIPOS>SUBSTRUCTURE
     1 NAI401      1 GROUP   
@<TRIPOS>SET
ATOM$ORANGE STATIC     ATOMS   COLORGROUP SYSTEM 
42 5 5 6 6 8 8 10 10 12 12 14 14 16 16 17 17 20 \
20 22 22 28 28 29 29 31 31 33 33 35 35 37 37 38 38 39 \
39 42 42 43 43 44 44 

