#    Name: 6bu7_1_FAD_CAVITY_N1_4
#    Modification time : Fri May 22 19:26:14 2020

@<TRIPOS>MOLECULE
6bu7_1_FAD_CAVITY_N1_4
   71     0     7     0     0
SMALL
NO_CHARGES


@<TRIPOS>ATOM
      1 OG         38.6700  -31.3800   -7.3800 O.3       1 SER1        0.0000 
      2 OG         39.7800  -30.2800    0.1100 O.3       1 SER1        0.0000 
      3 N          37.1800  -31.7900   -1.3900 N.am      2 ALA2        0.0000 
      4 N          38.8100  -30.6000   -5.4100 N.am      2 ALA2        0.0000 
      5 N          39.3600  -30.2000   -6.7600 N.am      2 ALA2        0.0000 
      6 N          35.4200  -31.3500   -0.3000 N.am      2 ALA2        0.0000 
      7 N          38.5400  -31.8500    0.8200 N.am      2 ALA2        0.0000 
      8 N          39.0900  -31.4600   -0.5200 N.am      2 ALA2        0.0000 
      9 N          37.3300  -31.0100    0.5700 N.am      2 ALA2        0.0000 
     10 N          37.8700  -30.6100   -0.7700 N.am      2 ALA2        0.0000 
     11 N          36.1100  -30.1700    0.3300 N.am      2 ALA2        0.0000 
     12 O          39.2300  -30.6800    1.4500 O.2       2 ALA2        0.0000 
     13 N          40.3200  -29.8800   -1.2300 N.am      2 ALA2        0.0000 
     14 O          38.0100  -29.8400    1.2000 O.2       2 ALA2        0.0000 
     15 N          38.5600  -29.4400   -0.1400 N.am      2 ALA2        0.0000 
     16 N          39.1000  -29.0400   -1.4800 N.am      2 ALA2        0.0000 
     17 O          39.6500  -28.6500   -2.8200 O.2       2 ALA2        0.0000 
     18 O          38.4300  -27.8000   -3.0600 O.2       2 ALA2        0.0000 
     19 N          34.3600  -27.3100    0.4700 N.am      2 ALA2        0.0000 
     20 O          38.7000  -28.6600    1.8300 O.2       2 ALA2        0.0000 
     21 N          37.4900  -27.8200    1.5800 N.am      2 ALA2        0.0000 
     22 N          38.0300  -27.4200    0.2400 N.am      2 ALA2        0.0000 
     23 N          36.2700  -26.9700    1.3400 N.am      2 ALA2        0.0000 
     24 OD1        38.2600  -33.4100   -3.1200 O.co2     3 ASP3        0.0000 
     25 OD1        38.8000  -33.0200   -4.4600 O.co2     3 ASP3        0.0000 
     26 OD1        39.3400  -32.6200   -5.8000 O.co2     3 ASP3        0.0000 
     27 OD1        37.8900  -28.2000   -1.7200 O.co2     3 ASP3        0.0000 
     28 OD1        36.1200  -27.7500   -0.6300 O.co2     3 ASP3        0.0000 
     29 OD1        36.8100  -26.5800    0.0000 O.co2     3 ASP3        0.0000 
     30 NZ         37.7100  -33.8100   -1.7800 N.4       4 LYS4        0.0000 
     31 NZ         38.4000  -32.6300   -1.1500 N.4       4 LYS4        0.0000 
     32 NZ         39.7600  -32.7000    1.0600 N.4       4 LYS4        0.0000 
     33 NZ         40.3000  -32.3000   -0.2800 N.4       4 LYS4        0.0000 
     34 CZ         36.4900  -32.9700   -2.0200 C.ar      5 PHE5        0.0000 
     35 CZ         37.7300  -31.3900   -2.7300 C.ar      5 PHE5        0.0000 
     36 CZ         36.6500  -29.7700   -1.0100 C.ar      5 PHE5        0.0000 
     37 CZ         37.2000  -29.3800   -2.3500 C.ar      5 PHE5        0.0000 
     38 CZ         37.7400  -28.9800   -3.6900 C.ar      5 PHE5        0.0000 
     39 CZ         34.8900  -29.3300    0.0900 C.ar      5 PHE5        0.0000 
     40 CZ         36.5200  -28.1400   -3.9400 C.ar      5 PHE5        0.0000 
     41 CA         37.0400  -32.5700   -3.3600 C.3       6 GLY6        0.0000 
     42 CA         37.5800  -32.1700   -4.7000 C.3       6 GLY6        0.0000 
     43 CA         37.4500  -30.5400   -7.6300 C.3       6 GLY6        0.0000 
     44 CA         39.4900  -31.8400   -3.8300 C.3       6 GLY6        0.0000 
     45 CA         40.0300  -31.4400   -5.1700 C.3       6 GLY6        0.0000 
     46 CA         38.2700  -31.0000   -4.0700 C.3       6 GLY6        0.0000 
     47 CA         37.0500  -30.1600   -4.3200 C.3       6 GLY6        0.0000 
     48 CA         37.6000  -29.7600   -5.6600 C.3       6 GLY6        0.0000 
     49 CA         38.1400  -29.3600   -7.0000 C.3       6 GLY6        0.0000 
     50 CA         36.3800  -28.9200   -5.9000 C.3       6 GLY6        0.0000 
     51 CA         36.9200  -28.5200   -7.2400 C.3       6 GLY6        0.0000 
     52 CA         40.8500  -31.9000   -1.6200 C.3       6 GLY6        0.0000 
     53 CA         39.6300  -31.0600   -1.8600 C.3       6 GLY6        0.0000 
     54 CA         40.1800  -30.6600   -3.2000 C.3       6 GLY6        0.0000 
     55 CA         38.9600  -29.8200   -3.4500 C.3       6 GLY6        0.0000 
     56 CA         39.5000  -29.4300   -4.7900 C.3       6 GLY6        0.0000 
     57 CA         38.2900  -28.5800   -5.0300 C.3       6 GLY6        0.0000 
     58 CA         38.8300  -28.1900   -6.3700 C.3       6 GLY6        0.0000 
     59 CA         37.0700  -27.7400   -5.2800 C.3       6 GLY6        0.0000 
     60 CA         37.6100  -27.3400   -6.6200 C.3       6 GLY6        0.0000 
     61 CA         41.5400  -30.7300   -0.9900 C.3       6 GLY6        0.0000 
     62 CA         40.8600  -29.4900   -2.5800 C.3       6 GLY6        0.0000 
     63 CA         36.8000  -28.9900    0.9600 C.3       6 GLY6        0.0000 
     64 CA         38.9700  -27.4100   -4.4100 C.3       6 GLY6        0.0000 
     65 CA         35.5800  -28.1500    0.7100 C.3       6 GLY6        0.0000 
     66 CA         36.9400  -28.2100    2.9200 C.3       6 GLY6        0.0000 
     67 CA         38.5700  -27.0200   -1.1000 C.3       6 GLY6        0.0000 
     68 CA         35.7200  -27.3700    2.6800 C.3       6 GLY6        0.0000 
     69 DU         38.9400  -32.2400   -2.4900 H         7 CUB7        0.0000 
     70 DU         38.4100  -30.2200   -2.1100 H         7 CUB7        0.0000 
     71 DU         37.3400  -28.6000   -0.3800 H         7 CUB7        0.0000 
@<TRIPOS>BOND
@<TRIPOS>SUBSTRUCTURE
     1 SER1        1 GROUP   
     2 ALA2        3 GROUP   
     3 ASP3       24 GROUP   
     4 LYS4       30 GROUP   
     5 PHE5       34 GROUP   
     6 GLY6       41 GROUP   
     7 CUB7       69 GROUP   
@<TRIPOS>SET

