#    Name: 6bu7_2_FAD
#    Modification time : Fri May 22 19:26:25 2020

@<TRIPOS>MOLECULE
6bu7_2_FAD
   53    58     1     0     1
SMALL
NO_CHARGES


@<TRIPOS>ATOM
      1 PA         17.7580    7.7160   16.6730 P.3       1 FAD501      0.0000 
      2 O1A        18.6410    8.7410   16.0660 O.co2     1 FAD501      0.0000 
      3 O2A        17.7040    6.4150   15.8870 O.co2     1 FAD501      0.0000 
      4 O5B        16.2780    8.2070   16.8760 O.3       1 FAD501      0.0000 
      5 C5B        15.9860    9.5440   17.3340 C.3       1 FAD501      0.0000 
      6 C4B        14.8150   10.0850   16.5520 C.3       1 FAD501      0.0000 
      7 O4B        14.1010   11.0430   17.3590 O.3       1 FAD501      0.0000 
      8 C3B        15.1590   10.7870   15.2350 C.3       1 FAD501      0.0000 
      9 O3B        14.4180   10.2230   14.1600 O.3       1 FAD501      0.0000 
     10 C2B        14.7660   12.2520   15.4800 C.3       1 FAD501      0.0000 
     11 O2B        14.1870   12.8240   14.3130 O.3       1 FAD501      0.0000 
     12 C1B        13.6860   12.1100   16.5430 C.3       1 FAD501      0.0000 
     13 N9A        13.5020   13.2760   17.3970 N.pl3     1 FAD501      0.0000 
     14 C8A        14.4720   14.0910   17.9140 C.2       1 FAD501      0.0000 
     15 N7A        14.0120   15.0530   18.6790 N.2       1 FAD501      0.0000 
     16 C5A        12.6400   14.8450   18.6770 C.ar      1 FAD501      0.0000 
     17 C6A        11.5750   15.5200   19.3030 C.ar      1 FAD501      0.0000 
     18 N6A        11.7300   16.5880   20.0890 N.pl3     1 FAD501      0.0000 
     19 N1A        10.3270   15.0530   19.0950 N.ar      1 FAD501      0.0000 
     20 C2A        10.1610   13.9830   18.3130 C.ar      1 FAD501      0.0000 
     21 N3A        11.0830   13.2660   17.6700 N.ar      1 FAD501      0.0000 
     22 C4A        12.3120   13.7490   17.8970 C.ar      1 FAD501      0.0000 
     23 N1         25.3080    2.3170   14.8280 N.2       1 FAD501      0.0000 
     24 C2         25.5960    1.0140   14.5420 C.2       1 FAD501      0.0000 
     25 O2         25.2720    0.0960   15.3030 O.2       1 FAD501      0.0000 
     26 N3         26.2650    0.7040   13.3720 N.am      1 FAD501      0.0000 
     27 C4         26.7030    1.6040   12.4160 C.2       1 FAD501      0.0000 
     28 O4         27.2930    1.2010   11.4130 O.2       1 FAD501      0.0000 
     29 C4X        26.3930    2.9860   12.7330 C.2       1 FAD501      0.0000 
     30 N5         26.7660    3.9130   11.8870 N.2       1 FAD501      0.0000 
     31 C5X        26.4640    5.2310   12.1940 C.ar      1 FAD501      0.0000 
     32 C6         26.8430    6.2380   11.3050 C.ar      1 FAD501      0.0000 
     33 C7         26.5580    7.5750   11.5710 C.ar      1 FAD501      0.0000 
     34 C7M        26.9850    8.6370   10.5930 C.3       1 FAD501      0.0000 
     35 C8         25.8820    7.9190   12.7520 C.ar      1 FAD501      0.0000 
     36 C8M        25.5700    9.3560   13.0700 C.3       1 FAD501      0.0000 
     37 C9         25.4980    6.9170   13.6400 C.ar      1 FAD501      0.0000 
     38 C9A        25.7850    5.5830   13.3700 C.ar      1 FAD501      0.0000 
     39 N10        25.4130    4.5500   14.2520 N.pl3     1 FAD501      0.0000 
     40 C10        25.6910    3.2420   13.9620 C.2       1 FAD501      0.0000 
     41 C1'        24.7010    4.8500   15.4940 C.3       1 FAD501      0.0000 
     42 C2'        23.1920    4.8850   15.3100 C.3       1 FAD501      0.0000 
     43 O2'        22.8390    5.7360   14.2190 O.3       1 FAD501      0.0000 
     44 C3'        22.5440    5.4090   16.5880 C.3       1 FAD501      0.0000 
     45 O3'        23.3270    5.0120   17.7070 O.3       1 FAD501      0.0000 
     46 C4'        21.1200    4.8920   16.7540 C.3       1 FAD501      0.0000 
     47 O4'        20.3290    5.3890   15.6730 O.3       1 FAD501      0.0000 
     48 C5'        20.5110    5.2760   18.0830 C.3       1 FAD501      0.0000 
     49 O5'        19.0840    5.0930   18.0060 O.3       1 FAD501      0.0000 
     50 P          18.1070    5.9780   18.8540 P.3       1 FAD501      0.0000 
     51 O1P        16.6660    5.4860   18.6740 O.co2     1 FAD501      0.0000 
     52 O2P        18.5930    6.0620   20.2670 O.co2     1 FAD501      0.0000 
     53 O3P        18.2430    7.3910   18.1470 O.3       1 FAD501      0.0000 
@<TRIPOS>BOND
     1    1    2 ar   
     2    1    3 ar   
     3    1    4 1    
     4    1   53 1    
     5    4    5 1    
     6    5    6 1    
     7    6    7 1    
     8    6    8 1    
     9    7   12 1    
    10    8    9 1    
    11    8   10 1    
    12   10   11 1    
    13   10   12 1    
    14   12   13 1    
    15   13   14 1    
    16   13   22 1    
    17   14   15 2    
    18   15   16 1    
    19   16   17 ar   
    20   16   22 ar   
    21   17   18 1    
    22   17   19 ar   
    23   19   20 ar   
    24   20   21 ar   
    25   21   22 ar   
    26   23   24 1    
    27   23   40 2    
    28   24   25 2    
    29   24   26 am   
    30   26   27 am   
    31   27   28 2    
    32   27   29 1    
    33   29   30 2    
    34   29   40 1    
    35   30   31 1    
    36   31   32 ar   
    37   31   38 ar   
    38   32   33 ar   
    39   33   34 1    
    40   33   35 ar   
    41   35   36 1    
    42   35   37 ar   
    43   37   38 ar   
    44   38   39 1    
    45   39   40 1    
    46   39   41 1    
    47   41   42 1    
    48   42   43 1    
    49   42   44 1    
    50   44   45 1    
    51   44   46 1    
    52   46   47 1    
    53   46   48 1    
    54   48   49 1    
    55   49   50 1    
    56   50   51 ar   
    57   50   52 ar   
    58   50   53 1    
@<TRIPOS>SUBSTRUCTURE
     1 FAD501      1 GROUP   
@<TRIPOS>SET
ATOM$ORANGE STATIC     ATOMS   COLORGROUP SYSTEM 
54 5 5 6 6 8 8 10 10 12 12 14 14 16 16 17 17 20 \
20 22 22 24 24 27 27 29 29 31 31 32 32 33 33 34 34 35 \
35 36 36 37 37 38 38 40 40 41 41 42 42 44 44 46 46 48 \
48 

