#    Name: 6bu7_1_FAD
#    Modification time : Fri May 22 19:26:10 2020

@<TRIPOS>MOLECULE
6bu7_1_FAD
   53    58     1     0     1
SMALL
NO_CHARGES


@<TRIPOS>ATOM
      1 PA         45.3590  -35.2930   -0.5160 P.3       1 FAD501      0.0000 
      2 O1A        44.8280  -35.2430   -1.8980 O.co2     1 FAD501      0.0000 
      3 O2A        45.7570  -33.9210    0.0470 O.co2     1 FAD501      0.0000 
      4 O5B        46.5590  -36.3440   -0.4230 O.3       1 FAD501      0.0000 
      5 C5B        46.8380  -37.2630   -1.5010 C.3       1 FAD501      0.0000 
      6 C4B        48.2690  -37.0990   -1.9500 C.3       1 FAD501      0.0000 
      7 O4B        48.9050  -38.3950   -2.0380 O.3       1 FAD501      0.0000 
      8 C3B        48.4530  -36.4400   -3.3170 C.3       1 FAD501      0.0000 
      9 O3B        49.5390  -35.5200   -3.2830 O.3       1 FAD501      0.0000 
     10 C2B        48.7140  -37.6340   -4.2420 C.3       1 FAD501      0.0000 
     11 O2B        49.4860  -37.2790   -5.3850 O.3       1 FAD501      0.0000 
     12 C1B        49.4960  -38.5550   -3.3120 C.3       1 FAD501      0.0000 
     13 N9A        49.4420  -39.9720   -3.6720 N.pl3     1 FAD501      0.0000 
     14 C8A        48.3460  -40.6750   -4.0980 C.2       1 FAD501      0.0000 
     15 N7A        48.5830  -41.9430   -4.3410 N.2       1 FAD501      0.0000 
     16 C5A        49.9310  -42.0850   -4.0540 C.ar      1 FAD501      0.0000 
     17 C6A        50.8020  -43.1910   -4.1090 C.ar      1 FAD501      0.0000 
     18 N6A        50.4260  -44.4150   -4.4890 N.pl3     1 FAD501      0.0000 
     19 N1A        52.0910  -42.9940   -3.7540 N.ar      1 FAD501      0.0000 
     20 C2A        52.4740  -41.7710   -3.3740 C.ar      1 FAD501      0.0000 
     21 N3A        51.7450  -40.6560   -3.2820 N.ar      1 FAD501      0.0000 
     22 C4A        50.4740  -40.8800   -3.6370 C.ar      1 FAD501      0.0000 
     23 N1         38.3210  -29.3900    1.0850 N.2       1 FAD501      0.0000 
     24 C2         38.0340  -28.3720    1.9470 C.2       1 FAD501      0.0000 
     25 O2         38.1170  -28.5140    3.1730 O.2       1 FAD501      0.0000 
     26 N3         37.6410  -27.1440    1.4460 N.am      1 FAD501      0.0000 
     27 C4         37.4980  -26.8150    0.1130 C.2       1 FAD501      0.0000 
     28 O4         37.1390  -25.6830   -0.2100 O.2       1 FAD501      0.0000 
     29 C4X        37.8050  -27.9050   -0.7930 C.2       1 FAD501      0.0000 
     30 N5         37.7000  -27.6880   -2.0810 N.2       1 FAD501      0.0000 
     31 C5X        37.9990  -28.7340   -2.9420 C.ar      1 FAD501      0.0000 
     32 C6         37.8980  -28.5280   -4.3180 C.ar      1 FAD501      0.0000 
     33 C7         38.1880  -29.5490   -5.2190 C.ar      1 FAD501      0.0000 
     34 C7M        38.0640  -29.2920   -6.6980 C.3       1 FAD501      0.0000 
     35 C8         38.5920  -30.8050   -4.7370 C.ar      1 FAD501      0.0000 
     36 C8M        38.9140  -31.9330   -5.6830 C.3       1 FAD501      0.0000 
     37 C9         38.6930  -31.0130   -3.3650 C.ar      1 FAD501      0.0000 
     38 C9A        38.4010  -29.9910   -2.4700 C.ar      1 FAD501      0.0000 
     39 N10        38.5050  -30.1730   -1.0780 N.pl3     1 FAD501      0.0000 
     40 C10        38.2110  -29.1560   -0.2100 C.2       1 FAD501      0.0000 
     41 C1'        38.9060  -31.4660   -0.5260 C.3       1 FAD501      0.0000 
     42 C2'        40.3200  -31.4710    0.0330 C.3       1 FAD501      0.0000 
     43 O2'        41.2300  -30.8950   -0.9060 O.3       1 FAD501      0.0000 
     44 C3'        40.7220  -32.9140    0.3240 C.3       1 FAD501      0.0000 
     45 O3'        39.6800  -33.5070    1.0900 O.3       1 FAD501      0.0000 
     46 C4'        42.0360  -33.0680    1.0850 C.3       1 FAD501      0.0000 
     47 O4'        43.1310  -32.9420    0.1760 O.3       1 FAD501      0.0000 
     48 C5'        42.1080  -34.3860    1.8240 C.3       1 FAD501      0.0000 
     49 O5'        43.4340  -34.5440    2.3670 O.3       1 FAD501      0.0000 
     50 P          44.2940  -35.8190    2.0540 P.3       1 FAD501      0.0000 
     51 O1P        45.7320  -35.5720    2.5190 O.co2     1 FAD501      0.0000 
     52 O2P        43.6130  -36.9980    2.6250 O.co2     1 FAD501      0.0000 
     53 O3P        44.2690  -35.8980    0.4640 O.3       1 FAD501      0.0000 
@<TRIPOS>BOND
     1    1    2 ar   
     2    1    3 ar   
     3    1    4 1    
     4    1   53 1    
     5    4    5 1    
     6    5    6 1    
     7    6    7 1    
     8    6    8 1    
     9    7   12 1    
    10    8    9 1    
    11    8   10 1    
    12   10   11 1    
    13   10   12 1    
    14   12   13 1    
    15   13   14 1    
    16   13   22 1    
    17   14   15 2    
    18   15   16 1    
    19   16   17 ar   
    20   16   22 ar   
    21   17   18 1    
    22   17   19 ar   
    23   19   20 ar   
    24   20   21 ar   
    25   21   22 ar   
    26   23   24 1    
    27   23   40 2    
    28   24   25 2    
    29   24   26 am   
    30   26   27 am   
    31   27   28 2    
    32   27   29 1    
    33   29   30 2    
    34   29   40 1    
    35   30   31 1    
    36   31   32 ar   
    37   31   38 ar   
    38   32   33 ar   
    39   33   34 1    
    40   33   35 ar   
    41   35   36 1    
    42   35   37 ar   
    43   37   38 ar   
    44   38   39 1    
    45   39   40 1    
    46   39   41 1    
    47   41   42 1    
    48   42   43 1    
    49   42   44 1    
    50   44   45 1    
    51   44   46 1    
    52   46   47 1    
    53   46   48 1    
    54   48   49 1    
    55   49   50 1    
    56   50   51 ar   
    57   50   52 ar   
    58   50   53 1    
@<TRIPOS>SUBSTRUCTURE
     1 FAD501      1 GROUP   
@<TRIPOS>SET
ATOM$ORANGE STATIC     ATOMS   COLORGROUP SYSTEM 
54 5 5 6 6 8 8 10 10 12 12 14 14 16 16 17 17 20 \
20 22 22 24 24 27 27 29 29 31 31 32 32 33 33 34 34 35 \
35 36 36 37 37 38 38 40 40 41 41 42 42 44 44 46 46 48 \
48 

