#    Name: 6kyk_1_GNP
#    Modification time : Fri May 22 19:28:49 2020

@<TRIPOS>MOLECULE
6kyk_1_GNP
   32    34     1     0     1
SMALL
NO_CHARGES


@<TRIPOS>ATOM
      1 PG        -32.1730  -48.6770   56.9830 P.3       1 GNP201      0.0000 
      2 O1G       -30.6710  -48.9550   56.9600 O.co2     1 GNP201      0.0000 
      3 O2G       -32.8180  -49.9710   57.4430 O.co2     1 GNP201      0.0000 
      4 O3G       -32.4320  -47.5360   57.9370 O.co2     1 GNP201      0.0000 
      5 N3B       -32.7260  -48.2060   55.5220 N.3       1 GNP201      0.0000 
      6 PB        -33.9060  -47.1070   55.3200 P.3       1 GNP201      0.0000 
      7 O1B       -35.2280  -47.8040   55.2150 O.co2     1 GNP201      0.0000 
      8 O2B       -33.7420  -46.0440   56.3640 O.co2     1 GNP201      0.0000 
      9 O3A       -33.6610  -46.2500   53.9930 O.3       1 GNP201      0.0000 
     10 PA        -33.4920  -44.6520   53.9520 P.3       1 GNP201      0.0000 
     11 O1A       -32.3030  -44.3300   54.7960 O.co2     1 GNP201      0.0000 
     12 O2A       -34.8150  -44.0410   54.2760 O.co2     1 GNP201      0.0000 
     13 O5'       -33.1660  -44.3080   52.4190 O.3       1 GNP201      0.0000 
     14 C5'       -32.4310  -45.2070   51.5500 C.3       1 GNP201      0.0000 
     15 C4'       -32.1780  -44.4760   50.2610 C.3       1 GNP201      0.0000 
     16 O4'       -33.4000  -44.5060   49.4810 O.3       1 GNP201      0.0000 
     17 C3'       -31.8040  -42.9960   50.4360 C.3       1 GNP201      0.0000 
     18 O3'       -30.7500  -42.5810   49.5760 O.3       1 GNP201      0.0000 
     19 C2'       -33.1140  -42.2600   50.1380 C.3       1 GNP201      0.0000 
     20 O2'       -32.8830  -40.9560   49.6380 O.3       1 GNP201      0.0000 
     21 C1'       -33.7820  -43.1960   49.1260 C.3       1 GNP201      0.0000 
     22 N9        -35.2440  -43.0900   49.1220 N.pl3     1 GNP201      0.0000 
     23 C8        -36.0790  -43.4080   50.1670 C.2       1 GNP201      0.0000 
     24 N7        -37.3440  -43.1780   49.9170 N.2       1 GNP201      0.0000 
     25 C5        -37.3470  -42.6620   48.6280 C.2       1 GNP201      0.0000 
     26 C6        -38.4370  -42.2250   47.8320 C.2       1 GNP201      0.0000 
     27 O6        -39.6350  -42.1720   48.1500 O.2       1 GNP201      0.0000 
     28 N1        -38.0030  -41.7710   46.5790 N.am      1 GNP201      0.0000 
     29 C2        -36.6950  -41.7490   46.1490 C.2       1 GNP201      0.0000 
     30 N2        -36.4640  -41.2940   44.9090 N.pl3     1 GNP201      0.0000 
     31 N3        -35.6710  -42.1580   46.8980 N.2       1 GNP201      0.0000 
     32 C4        -36.0630  -42.5980   48.1230 C.2       1 GNP201      0.0000 
@<TRIPOS>BOND
     1    1    2 ar   
     2    1    3 ar   
     3    1    4 ar   
     4    1    5 1    
     5    5    6 1    
     6    6    7 ar   
     7    6    8 ar   
     8    6    9 1    
     9    9   10 1    
    10   10   11 ar   
    11   10   12 ar   
    12   10   13 1    
    13   13   14 1    
    14   14   15 1    
    15   15   16 1    
    16   15   17 1    
    17   16   21 1    
    18   17   18 1    
    19   17   19 1    
    20   19   20 1    
    21   19   21 1    
    22   21   22 1    
    23   22   23 1    
    24   22   32 1    
    25   23   24 2    
    26   24   25 1    
    27   25   26 1    
    28   25   32 2    
    29   26   27 2    
    30   26   28 am   
    31   28   29 1    
    32   29   30 1    
    33   29   31 2    
    34   31   32 1    
@<TRIPOS>SUBSTRUCTURE
     1 GNP201      1 GROUP   
@<TRIPOS>SET
ATOM$ORANGE STATIC     ATOMS   COLORGROUP SYSTEM 
20 14 14 15 15 17 17 19 19 21 21 23 23 25 25 26 26 29 \
29 32 32 

