#    Name: 6kyk_3_GNP
#    Modification time : Fri May 22 19:29:06 2020

@<TRIPOS>MOLECULE
6kyk_3_GNP
   32    34     1     0     1
SMALL
NO_CHARGES


@<TRIPOS>ATOM
      1 PG        -23.2300  -17.1270   31.2780 P.3       1 GNP201      0.0000 
      2 O1G       -22.2010  -16.8050   32.3320 O.co2     1 GNP201      0.0000 
      3 O2G       -23.1960  -15.9390   30.3510 O.co2     1 GNP201      0.0000 
      4 O3G       -22.7750  -18.3560   30.5360 O.co2     1 GNP201      0.0000 
      5 N3B       -24.6950  -17.4110   31.9520 N.3       1 GNP201      0.0000 
      6 PB        -25.6450  -18.6800   31.5910 P.3       1 GNP201      0.0000 
      7 O1B       -26.8790  -18.2930   30.8470 O.co2     1 GNP201      0.0000 
      8 O2B       -24.7280  -19.6940   30.9660 O.co2     1 GNP201      0.0000 
      9 O3A       -26.1980  -19.4970   32.8450 O.3       1 GNP201      0.0000 
     10 PA        -26.1040  -21.1030   32.8910 P.3       1 GNP201      0.0000 
     11 O1A       -24.6580  -21.5010   32.9290 O.co2     1 GNP201      0.0000 
     12 O2A       -26.9190  -21.6270   31.7570 O.co2     1 GNP201      0.0000 
     13 O5'       -26.8370  -21.5140   34.2630 O.3       1 GNP201      0.0000 
     14 C5'       -26.7220  -20.7280   35.4790 C.3       1 GNP201      0.0000 
     15 C4'       -27.3640  -21.5030   36.5980 C.3       1 GNP201      0.0000 
     16 O4'       -28.8000  -21.4800   36.4020 O.3       1 GNP201      0.0000 
     17 C3'       -26.9590  -22.9840   36.6730 C.3       1 GNP201      0.0000 
     18 O3'       -26.6230  -23.3720   37.9970 O.3       1 GNP201      0.0000 
     19 C2'       -28.1900  -23.7410   36.1600 C.3       1 GNP201      0.0000 
     20 O2'       -28.3380  -24.9860   36.8110 O.3       1 GNP201      0.0000 
     21 C1'       -29.3330  -22.7840   36.4920 C.3       1 GNP201      0.0000 
     22 N9        -30.4760  -22.8780   35.5830 N.pl3     1 GNP201      0.0000 
     23 C8        -30.4830  -22.4440   34.2810 C.2       1 GNP201      0.0000 
     24 N7        -31.6310  -22.6240   33.6750 N.2       1 GNP201      0.0000 
     25 C5        -32.4390  -23.2090   34.6410 C.2       1 GNP201      0.0000 
     26 C6        -33.7890  -23.6220   34.5520 C.2       1 GNP201      0.0000 
     27 O6        -34.5410  -23.5430   33.5710 O.2       1 GNP201      0.0000 
     28 N1        -34.2380  -24.1570   35.7600 N.am      1 GNP201      0.0000 
     29 C2        -33.4840  -24.2880   36.9000 C.2       1 GNP201      0.0000 
     30 N2        -34.0860  -24.8300   37.9680 N.pl3     1 GNP201      0.0000 
     31 N3        -32.2100  -23.9020   36.9820 N.2       1 GNP201      0.0000 
     32 C4        -31.7470  -23.3720   35.8220 C.2       1 GNP201      0.0000 
@<TRIPOS>BOND
     1    1    2 ar   
     2    1    3 ar   
     3    1    4 ar   
     4    1    5 1    
     5    5    6 1    
     6    6    7 ar   
     7    6    8 ar   
     8    6    9 1    
     9    9   10 1    
    10   10   11 ar   
    11   10   12 ar   
    12   10   13 1    
    13   13   14 1    
    14   14   15 1    
    15   15   16 1    
    16   15   17 1    
    17   16   21 1    
    18   17   18 1    
    19   17   19 1    
    20   19   20 1    
    21   19   21 1    
    22   21   22 1    
    23   22   23 1    
    24   22   32 1    
    25   23   24 2    
    26   24   25 1    
    27   25   26 1    
    28   25   32 2    
    29   26   27 2    
    30   26   28 am   
    31   28   29 1    
    32   29   30 1    
    33   29   31 2    
    34   31   32 1    
@<TRIPOS>SUBSTRUCTURE
     1 GNP201      1 GROUP   
@<TRIPOS>SET
ATOM$ORANGE STATIC     ATOMS   COLORGROUP SYSTEM 
20 14 14 15 15 17 17 19 19 21 21 23 23 25 25 26 26 29 \
29 32 32 

