#    Name: 6kyk_2_GNP
#    Modification time : Fri May 22 19:29:01 2020

@<TRIPOS>MOLECULE
6kyk_2_GNP
   32    34     1     0     1
SMALL
NO_CHARGES


@<TRIPOS>ATOM
      1 PG         -7.5340  -38.9970   90.2570 P.3       1 GNP201      0.0000 
      2 O1G        -7.0870  -39.3380   88.8310 O.co2     1 GNP201      0.0000 
      3 O2G        -6.8820  -37.7320   90.7980 O.co2     1 GNP201      0.0000 
      4 O3G        -9.0370  -38.8260   90.1620 O.co2     1 GNP201      0.0000 
      5 N3B        -7.3290  -40.2380   91.3050 N.3       1 GNP201      0.0000 
      6 PB         -8.3020  -40.6050   92.5930 P.3       1 GNP201      0.0000 
      7 O1B        -7.8300  -39.7720   93.7320 O.co2     1 GNP201      0.0000 
      8 O2B        -9.7390  -40.4790   92.1790 O.co2     1 GNP201      0.0000 
      9 O3A        -8.1180  -42.1850   92.9000 O.3       1 GNP201      0.0000 
     10 PA         -9.1890  -43.3040   92.4650 P.3       1 GNP201      0.0000 
     11 O1A        -9.5530  -43.2380   91.0160 O.co2     1 GNP201      0.0000 
     12 O2A       -10.3090  -43.0390   93.4190 O.co2     1 GNP201      0.0000 
     13 O5'        -8.5490  -44.7510   92.7590 O.3       1 GNP201      0.0000 
     14 C5'        -7.2600  -45.0710   92.2250 C.3       1 GNP201      0.0000 
     15 C4'        -7.0790  -46.5690   92.1910 C.3       1 GNP201      0.0000 
     16 O4'        -6.7410  -47.0240   93.5230 O.3       1 GNP201      0.0000 
     17 C3'        -8.2750  -47.4210   91.7510 C.3       1 GNP201      0.0000 
     18 O3'        -7.8060  -48.4840   90.9330 O.3       1 GNP201      0.0000 
     19 C2'        -8.8620  -47.9770   93.0570 C.3       1 GNP201      0.0000 
     20 O2'        -9.2890  -49.3240   92.9870 O.3       1 GNP201      0.0000 
     21 C1'        -7.6840  -47.9460   94.0200 C.3       1 GNP201      0.0000 
     22 N9         -8.0370  -47.5290   95.3720 N.pl3     1 GNP201      0.0000 
     23 C8         -8.4850  -46.2930   95.7680 C.2       1 GNP201      0.0000 
     24 N7         -8.6970  -46.1970   97.0610 N.2       1 GNP201      0.0000 
     25 C5         -8.3400  -47.4450   97.5510 C.2       1 GNP201      0.0000 
     26 C6         -8.3440  -47.9360   98.8770 C.2       1 GNP201      0.0000 
     27 O6         -8.6650  -47.3370   99.9110 O.2       1 GNP201      0.0000 
     28 N1         -7.8920  -49.2570   98.9350 N.am      1 GNP201      0.0000 
     29 C2         -7.4970  -50.0120   97.8560 C.2       1 GNP201      0.0000 
     30 N2         -7.0990  -51.2700   98.1020 N.pl3     1 GNP201      0.0000 
     31 N3         -7.5010  -49.5550   96.6040 N.2       1 GNP201      0.0000 
     32 C4         -7.9300  -48.2720   96.5250 C.2       1 GNP201      0.0000 
@<TRIPOS>BOND
     1    1    2 ar   
     2    1    3 ar   
     3    1    4 ar   
     4    1    5 1    
     5    5    6 1    
     6    6    7 ar   
     7    6    8 ar   
     8    6    9 1    
     9    9   10 1    
    10   10   11 ar   
    11   10   12 ar   
    12   10   13 1    
    13   13   14 1    
    14   14   15 1    
    15   15   16 1    
    16   15   17 1    
    17   16   21 1    
    18   17   18 1    
    19   17   19 1    
    20   19   20 1    
    21   19   21 1    
    22   21   22 1    
    23   22   23 1    
    24   22   32 1    
    25   23   24 2    
    26   24   25 1    
    27   25   26 1    
    28   25   32 2    
    29   26   27 2    
    30   26   28 am   
    31   28   29 1    
    32   29   30 1    
    33   29   31 2    
    34   31   32 1    
@<TRIPOS>SUBSTRUCTURE
     1 GNP201      1 GROUP   
@<TRIPOS>SET
ATOM$ORANGE STATIC     ATOMS   COLORGROUP SYSTEM 
20 14 14 15 15 17 17 19 19 21 21 23 23 25 25 26 26 29 \
29 32 32 

