#    Name: 6kyk_4_GNP
#    Modification time : Fri May 22 19:29:20 2020

@<TRIPOS>MOLECULE
6kyk_4_GNP
   32    34     1     0     1
SMALL
NO_CHARGES


@<TRIPOS>ATOM
      1 PG         16.9000  -26.7360   20.8770 P.3       1 GNP201      0.0000 
      2 O1G        16.7030  -25.9910   22.1790 O.co2     1 GNP201      0.0000 
      3 O2G        17.1730  -28.2190   21.1280 O.co2     1 GNP201      0.0000 
      4 O3G        15.6330  -26.6130   20.0550 O.co2     1 GNP201      0.0000 
      5 N3B        18.0520  -26.0650   19.9540 N.3       1 GNP201      0.0000 
      6 PB         17.7280  -25.1800   18.6240 P.3       1 GNP201      0.0000 
      7 O1B        18.7250  -25.4890   17.5670 O.co2     1 GNP201      0.0000 
      8 O2B        16.2630  -25.3160   18.3050 O.co2     1 GNP201      0.0000 
      9 O3A        17.8950  -23.6140   18.9090 O.3       1 GNP201      0.0000 
     10 PA         17.0560  -22.5050   18.1160 P.3       1 GNP201      0.0000 
     11 O1A        15.6900  -22.2870   18.6940 O.co2     1 GNP201      0.0000 
     12 O2A        17.1030  -22.9850   16.7090 O.co2     1 GNP201      0.0000 
     13 O5'        17.9450  -21.1850   18.3120 O.3       1 GNP201      0.0000 
     14 C5'        17.8800  -20.5920   19.6340 C.3       1 GNP201      0.0000 
     15 C4'        18.2900  -19.1450   19.5810 C.3       1 GNP201      0.0000 
     16 O4'        19.3720  -18.9960   18.6300 O.3       1 GNP201      0.0000 
     17 C3'        17.2010  -18.1600   19.1430 C.3       1 GNP201      0.0000 
     18 O3'        17.2290  -17.0220   19.9920 O.3       1 GNP201      0.0000 
     19 C2'        17.5910  -17.7920   17.7070 C.3       1 GNP201      0.0000 
     20 O2'        17.2610  -16.4640   17.3600 O.3       1 GNP201      0.0000 
     21 C1'        19.1040  -17.9310   17.7510 C.3       1 GNP201      0.0000 
     22 N9         19.7180  -18.2540   16.4700 N.pl3     1 GNP201      0.0000 
     23 C8         19.6430  -19.4470   15.7930 C.2       1 GNP201      0.0000 
     24 N7         20.3280  -19.4580   14.6720 N.2       1 GNP201      0.0000 
     25 C5         20.8930  -18.1920   14.6190 C.2       1 GNP201      0.0000 
     26 C6         21.7310  -17.6180   13.6420 C.2       1 GNP201      0.0000 
     27 O6         22.1460  -18.1480   12.6060 O.2       1 GNP201      0.0000 
     28 N1         22.0780  -16.3020   13.9730 N.am      1 GNP201      0.0000 
     29 C2         21.6660  -15.6240   15.0990 C.2       1 GNP201      0.0000 
     30 N2         22.0920  -14.3600   15.2700 N.pl3     1 GNP201      0.0000 
     31 N3         20.8720  -16.1710   16.0130 N.2       1 GNP201      0.0000 
     32 C4         20.5270  -17.4430   15.7130 C.2       1 GNP201      0.0000 
@<TRIPOS>BOND
     1    1    2 ar   
     2    1    3 ar   
     3    1    4 ar   
     4    1    5 1    
     5    5    6 1    
     6    6    7 ar   
     7    6    8 ar   
     8    6    9 1    
     9    9   10 1    
    10   10   11 ar   
    11   10   12 ar   
    12   10   13 1    
    13   13   14 1    
    14   14   15 1    
    15   15   16 1    
    16   15   17 1    
    17   16   21 1    
    18   17   18 1    
    19   17   19 1    
    20   19   20 1    
    21   19   21 1    
    22   21   22 1    
    23   22   23 1    
    24   22   32 1    
    25   23   24 2    
    26   24   25 1    
    27   25   26 1    
    28   25   32 2    
    29   26   27 2    
    30   26   28 am   
    31   28   29 1    
    32   29   30 1    
    33   29   31 2    
    34   31   32 1    
@<TRIPOS>SUBSTRUCTURE
     1 GNP201      1 GROUP   
@<TRIPOS>SET
ATOM$ORANGE STATIC     ATOMS   COLORGROUP SYSTEM 
20 14 14 15 15 17 17 19 19 21 21 23 23 25 25 26 26 29 \
29 32 32 

