#    Name: 6naz_1_GDP
#    Modification time : Fri May 22 19:40:16 2020

@<TRIPOS>MOLECULE
6naz_1_GDP
   28    30     1     0     1
SMALL
NO_CHARGES


@<TRIPOS>ATOM
      1 PB         49.6300   53.5500    9.1490 P.3       1 GDP201      0.0000 
      2 O1B        50.5250   52.6820    8.2970 O.co2     1 GDP201      0.0000 
      3 O2B        48.2300   53.5110    8.5880 O.co2     1 GDP201      0.0000 
      4 O3B        49.6230   53.0430   10.5710 O.co2     1 GDP201      0.0000 
      5 O3A        50.1590   55.0680    9.1100 O.3       1 GDP201      0.0000 
      6 PA         49.9940   56.0380   10.3840 P.3       1 GDP201      0.0000 
      7 O1A        48.6550   55.8280   11.0490 O.co2     1 GDP201      0.0000 
      8 O2A        51.1170   55.8200   11.3700 O.co2     1 GDP201      0.0000 
      9 O5'        50.0910   57.5070    9.7340 O.3       1 GDP201      0.0000 
     10 C5'        51.3500   58.1720    9.7010 C.3       1 GDP201      0.0000 
     11 C4'        51.1750   59.6850    9.6560 C.3       1 GDP201      0.0000 
     12 O4'        50.1080   60.0900    8.7950 O.3       1 GDP201      0.0000 
     13 C3'        50.8430   60.2550   11.0230 C.3       1 GDP201      0.0000 
     14 O3'        52.0340   60.6910   11.6790 O.3       1 GDP201      0.0000 
     15 C2'        49.9300   61.4300   10.7390 C.3       1 GDP201      0.0000 
     16 O2'        50.6060   62.6550   11.0360 O.3       1 GDP201      0.0000 
     17 C1'        49.6190   61.3560    9.2520 C.3       1 GDP201      0.0000 
     18 N9         48.1550   61.4990    9.0500 N.pl3     1 GDP201      0.0000 
     19 C8         47.2220   60.5650    9.3140 C.2       1 GDP201      0.0000 
     20 N7         45.9770   61.0220    9.0190 N.2       1 GDP201      0.0000 
     21 C5         46.1060   62.2780    8.5530 C.2       1 GDP201      0.0000 
     22 C6         45.1930   63.3360    8.0600 C.2       1 GDP201      0.0000 
     23 O6         43.9580   63.1490    8.0100 O.2       1 GDP201      0.0000 
     24 N1         45.7300   64.4990    7.6700 N.am      1 GDP201      0.0000 
     25 C2         47.0560   64.7300    7.7120 C.2       1 GDP201      0.0000 
     26 N2         47.5190   65.9340    7.2980 N.pl3     1 GDP201      0.0000 
     27 N3         47.9500   63.8060    8.1520 N.2       1 GDP201      0.0000 
     28 C4         47.5430   62.5870    8.5780 C.2       1 GDP201      0.0000 
@<TRIPOS>BOND
     1    1    2 ar   
     2    1    3 ar   
     3    1    4 ar   
     4    1    5 1    
     5    5    6 1    
     6    6    7 ar   
     7    6    8 ar   
     8    6    9 1    
     9    9   10 1    
    10   10   11 1    
    11   11   12 1    
    12   11   13 1    
    13   12   17 1    
    14   13   14 1    
    15   13   15 1    
    16   15   16 1    
    17   15   17 1    
    18   17   18 1    
    19   18   19 1    
    20   18   28 1    
    21   19   20 2    
    22   20   21 1    
    23   21   22 1    
    24   21   28 2    
    25   22   23 2    
    26   22   24 am   
    27   24   25 1    
    28   25   26 1    
    29   25   27 2    
    30   27   28 1    
@<TRIPOS>SUBSTRUCTURE
     1 GDP201      1 GROUP   
@<TRIPOS>SET
ATOM$ORANGE STATIC     ATOMS   COLORGROUP SYSTEM 
20 10 10 11 11 13 13 15 15 17 17 19 19 21 21 22 22 25 \
25 28 28 

