#    Name: 6j76_1_NAP
#    Modification time : Fri May 22 19:33:31 2020

@<TRIPOS>MOLECULE
6j76_1_NAP
   48    52     1     0     1
SMALL
NO_CHARGES


@<TRIPOS>ATOM
      1 PA         64.7590   24.1990   96.7490 P.3       1 NAP501      0.0000 
      2 O1A        63.3340   24.4240   96.3910 O.co2     1 NAP501      0.0000 
      3 O2A        65.2550   25.0860   97.8890 O.co2     1 NAP501      0.0000 
      4 O5B        65.6120   24.4280   95.4530 O.3       1 NAP501      0.0000 
      5 C5B        65.2590   23.7730   94.2580 C.3       1 NAP501      0.0000 
      6 C4B        65.7470   24.2870   92.9890 C.3       1 NAP501      0.0000 
      7 O4B        64.7850   25.2060   92.4180 O.3       1 NAP501      0.0000 
      8 C3B        66.9860   25.0230   93.1480 C.3       1 NAP501      0.0000 
      9 O3B        67.8370   24.8000   92.0460 O.3       1 NAP501      0.0000 
     10 C2B        66.5800   26.3990   93.2610 C.3       1 NAP501      0.0000 
     11 O2B        67.5460   27.3110   92.9630 O.3       1 NAP501      0.0000 
     12 C1B        65.2920   26.5070   92.4670 C.3       1 NAP501      0.0000 
     13 N9A        64.4150   27.4640   93.1680 N.pl3     1 NAP501      0.0000 
     14 C8A        64.0700   28.0120   94.3220 C.2       1 NAP501      0.0000 
     15 N7A        63.0810   28.8340   93.9220 N.2       1 NAP501      0.0000 
     16 C5A        62.8720   28.7420   92.5820 C.ar      1 NAP501      0.0000 
     17 C6A        61.9750   29.3910   91.7300 C.ar      1 NAP501      0.0000 
     18 N6A        61.0360   30.3600   92.2940 N.pl3     1 NAP501      0.0000 
     19 N1A        62.0010   29.0890   90.4110 N.ar      1 NAP501      0.0000 
     20 C2A        62.8770   28.1820   89.9110 C.ar      1 NAP501      0.0000 
     21 N3A        63.7500   27.5550   90.7280 N.ar      1 NAP501      0.0000 
     22 C4A        63.7680   27.8070   92.0530 C.ar      1 NAP501      0.0000 
     23 O3         64.8780   22.6960   97.1290 O.3       1 NAP501      0.0000 
     24 PN         66.2000   22.0880   97.7690 P.3       1 NAP501      0.0000 
     25 O1N        66.4380   22.7560   99.0850 O.co2     1 NAP501      0.0000 
     26 O2N        67.3620   22.2510   96.8230 O.co2     1 NAP501      0.0000 
     27 O5D        65.9600   20.5740   98.0450 O.3       1 NAP501      0.0000 
     28 C5D        65.1450   20.1160   99.1150 C.3       1 NAP501      0.0000 
     29 C4D        63.7370   19.8030   98.7670 C.3       1 NAP501      0.0000 
     30 O4D        63.6980   19.1250   97.5210 O.3       1 NAP501      0.0000 
     31 C3D        63.1350   18.9190   99.7800 C.3       1 NAP501      0.0000 
     32 O3D        61.8260   19.4260  100.1040 O.3       1 NAP501      0.0000 
     33 C2D        63.0110   17.6790   99.1240 C.3       1 NAP501      0.0000 
     34 O2D        61.8810   16.9810   99.5630 O.3       1 NAP501      0.0000 
     35 C1D        62.8480   18.0630   97.7140 C.3       1 NAP501      0.0000 
     36 N1N        63.0760   16.9620   96.7880 N.pl3     1 NAP501      0.0000 
     37 C2N        62.0620   16.3580   95.9940 C.ar      1 NAP501      0.0000 
     38 C3N        62.3490   15.1590   95.1730 C.ar      1 NAP501      0.0000 
     39 C7N        61.2940   14.4600   94.5690 C.2       1 NAP501      0.0000 
     40 O7N        61.5400   13.6300   93.7140 O.2       1 NAP501      0.0000 
     41 N7N        59.9590   14.6810   94.9510 N.am      1 NAP501      0.0000 
     42 C4N        63.7020   14.5360   95.1840 C.ar      1 NAP501      0.0000 
     43 C5N        64.7580   15.3050   95.9100 C.ar      1 NAP501      0.0000 
     44 C6N        64.4280   16.5210   96.7320 C.ar      1 NAP501      0.0000 
     45 P2B        68.5520   27.8200   94.0330 P.3       1 NAP501      0.0000 
     46 O1X        69.9170   27.7110   93.4560 O.co2     1 NAP501      0.0000 
     47 O2X        68.5380   26.9180   95.2160 O.co2     1 NAP501      0.0000 
     48 O3X        68.3290   29.2980   94.4370 O.co2     1 NAP501      0.0000 
@<TRIPOS>BOND
     1    1    2 ar   
     2    1    3 ar   
     3    1    4 1    
     4    1   23 1    
     5    4    5 1    
     6    5    6 1    
     7    6    7 1    
     8    6    8 1    
     9    7   12 1    
    10    8    9 1    
    11    8   10 1    
    12   10   11 1    
    13   10   12 1    
    14   11   45 1    
    15   12   13 1    
    16   13   14 1    
    17   13   22 1    
    18   14   15 2    
    19   15   16 1    
    20   16   17 ar   
    21   16   22 ar   
    22   17   18 1    
    23   17   19 ar   
    24   19   20 ar   
    25   20   21 ar   
    26   21   22 ar   
    27   23   24 1    
    28   24   25 ar   
    29   24   26 ar   
    30   24   27 1    
    31   27   28 1    
    32   28   29 1    
    33   29   30 1    
    34   29   31 1    
    35   30   35 1    
    36   31   32 1    
    37   31   33 1    
    38   33   34 1    
    39   33   35 1    
    40   35   36 1    
    41   36   37 ar   
    42   36   44 ar   
    43   37   38 ar   
    44   38   39 1    
    45   38   42 ar   
    46   39   40 2    
    47   39   41 am   
    48   42   43 ar   
    49   43   44 ar   
    50   45   46 ar   
    51   45   47 ar   
    52   45   48 ar   
@<TRIPOS>SUBSTRUCTURE
     1 NAP501      1 GROUP   
@<TRIPOS>SET
ATOM$ORANGE STATIC     ATOMS   COLORGROUP SYSTEM 
42 5 5 6 6 8 8 10 10 12 12 14 14 16 16 17 17 20 \
20 22 22 28 28 29 29 31 31 33 33 35 35 37 37 38 38 39 \
39 42 42 43 43 44 44 

