#    Name: 6j76_2_NAP
#    Modification time : Fri May 22 19:33:35 2020

@<TRIPOS>MOLECULE
6j76_2_NAP
   48    52     1     0     1
SMALL
NO_CHARGES


@<TRIPOS>ATOM
      1 PA         35.6110   32.2950   79.2240 P.3       1 NAP501      0.0000 
      2 O1A        35.0670   33.6810   79.3440 O.co2     1 NAP501      0.0000 
      3 O2A        37.0600   32.2210   79.6570 O.co2     1 NAP501      0.0000 
      4 O5B        34.7100   31.4210   80.1510 O.3       1 NAP501      0.0000 
      5 C5B        35.0100   30.0690   80.3650 C.3       1 NAP501      0.0000 
      6 C4B        34.5480   29.4530   81.5970 C.3       1 NAP501      0.0000 
      7 O4B        35.5310   29.5950   82.6540 O.3       1 NAP501      0.0000 
      8 C3B        33.3200   30.0450   82.0880 C.3       1 NAP501      0.0000 
      9 O3B        32.4880   29.0500   82.6580 O.3       1 NAP501      0.0000 
     10 C2B        33.7590   31.0000   83.0660 C.3       1 NAP501      0.0000 
     11 O2B        32.7890   31.3760   83.9380 O.3       1 NAP501      0.0000 
     12 C1B        35.0150   30.4000   83.6720 C.3       1 NAP501      0.0000 
     13 N9A        35.9230   31.4920   84.0880 N.pl3     1 NAP501      0.0000 
     14 C8A        36.3060   32.7330   83.8610 C.2       1 NAP501      0.0000 
     15 N7A        37.2450   32.8730   84.8170 N.2       1 NAP501      0.0000 
     16 C5A        37.3970   31.7600   85.5670 C.ar      1 NAP501      0.0000 
     17 C6A        38.2280   31.4590   86.6490 C.ar      1 NAP501      0.0000 
     18 N6A        39.1660   32.4700   87.1460 N.pl3     1 NAP501      0.0000 
     19 N1A        38.1570   30.2300   87.2100 N.ar      1 NAP501      0.0000 
     20 C2A        37.2850   29.3100   86.7520 C.ar      1 NAP501      0.0000 
     21 N3A        36.4850   29.5950   85.7100 N.ar      1 NAP501      0.0000 
     22 C4A        36.5120   30.7980   85.0850 C.ar      1 NAP501      0.0000 
     23 O3         35.4170   31.7350   77.7830 O.3       1 NAP501      0.0000 
     24 PN         34.1090   32.1010   76.9740 P.3       1 NAP501      0.0000 
     25 O1N        33.0730   31.1570   77.4860 O.co2     1 NAP501      0.0000 
     26 O2N        33.7850   33.6060   77.1780 O.co2     1 NAP501      0.0000 
     27 O5D        34.3040   31.9470   75.4440 O.3       1 NAP501      0.0000 
     28 C5D        35.0100   30.9250   74.7840 C.3       1 NAP501      0.0000 
     29 C4D        36.4850   30.9310   74.7700 C.3       1 NAP501      0.0000 
     30 O4D        36.7870   29.5680   74.9320 O.3       1 NAP501      0.0000 
     31 C3D        37.0880   31.3290   73.4800 C.3       1 NAP501      0.0000 
     32 O3D        38.3770   31.9330   73.7370 O.3       1 NAP501      0.0000 
     33 C2D        37.2430   30.0970   72.7940 C.3       1 NAP501      0.0000 
     34 O2D        38.2940   30.0660   71.8580 O.3       1 NAP501      0.0000 
     35 C1D        37.5510   29.1620   73.8780 C.3       1 NAP501      0.0000 
     36 N1N        37.3070   27.7540   73.5700 N.pl3     1 NAP501      0.0000 
     37 C2N        38.3050   26.7500   73.5990 C.ar      1 NAP501      0.0000 
     38 C3N        38.0060   25.3810   73.1510 C.ar      1 NAP501      0.0000 
     39 C7N        39.0880   24.4980   73.0340 C.2       1 NAP501      0.0000 
     40 O7N        38.8950   23.2800   73.0010 O.2       1 NAP501      0.0000 
     41 N7N        40.3930   25.0400   72.9530 N.am      1 NAP501      0.0000 
     42 C4N        36.6410   25.0020   72.6730 C.ar      1 NAP501      0.0000 
     43 C5N        35.5940   26.0640   72.8080 C.ar      1 NAP501      0.0000 
     44 C6N        35.9520   27.4520   73.2360 C.ar      1 NAP501      0.0000 
     45 P2B        31.9270   32.6500   83.6840 P.3       1 NAP501      0.0000 
     46 O1X        31.1120   32.5120   82.4460 O.co2     1 NAP501      0.0000 
     47 O2X        30.9850   32.7820   84.8060 O.co2     1 NAP501      0.0000 
     48 O3X        32.8120   33.9100   83.5620 O.co2     1 NAP501      0.0000 
@<TRIPOS>BOND
     1    1    2 ar   
     2    1    3 ar   
     3    1    4 1    
     4    1   23 1    
     5    4    5 1    
     6    5    6 1    
     7    6    7 1    
     8    6    8 1    
     9    7   12 1    
    10    8    9 1    
    11    8   10 1    
    12   10   11 1    
    13   10   12 1    
    14   11   45 1    
    15   12   13 1    
    16   13   14 1    
    17   13   22 1    
    18   14   15 2    
    19   15   16 1    
    20   16   17 ar   
    21   16   22 ar   
    22   17   18 1    
    23   17   19 ar   
    24   19   20 ar   
    25   20   21 ar   
    26   21   22 ar   
    27   23   24 1    
    28   24   25 ar   
    29   24   26 ar   
    30   24   27 1    
    31   27   28 1    
    32   28   29 1    
    33   29   30 1    
    34   29   31 1    
    35   30   35 1    
    36   31   32 1    
    37   31   33 1    
    38   33   34 1    
    39   33   35 1    
    40   35   36 1    
    41   36   37 ar   
    42   36   44 ar   
    43   37   38 ar   
    44   38   39 1    
    45   38   42 ar   
    46   39   40 2    
    47   39   41 am   
    48   42   43 ar   
    49   43   44 ar   
    50   45   46 ar   
    51   45   47 ar   
    52   45   48 ar   
@<TRIPOS>SUBSTRUCTURE
     1 NAP501      1 GROUP   
@<TRIPOS>SET
ATOM$ORANGE STATIC     ATOMS   COLORGROUP SYSTEM 
42 5 5 6 6 8 8 10 10 12 12 14 14 16 16 17 17 20 \
20 22 22 28 28 29 29 31 31 33 33 35 35 37 37 38 38 39 \
39 42 42 43 43 44 44 

