#    Name: 6s6s_6_FAD
#    Modification time : Fri May 22 19:31:36 2020

@<TRIPOS>MOLECULE
6s6s_6_FAD
   53    58     1     0     1
SMALL
NO_CHARGES


@<TRIPOS>ATOM
      1 PA        262.3790  181.3350  153.2220 P.3       1 FAD503      0.0000 
      2 O1A       263.3960  180.3970  153.7480 O.co2     1 FAD503      0.0000 
      3 O2A       262.4950  182.7780  153.7090 O.co2     1 FAD503      0.0000 
      4 O5B       262.3600  181.3100  151.6650 O.3       1 FAD503      0.0000 
      5 C5B       261.1160  181.3180  150.9350 C.3       1 FAD503      0.0000 
      6 C4B       261.2420  180.4410  149.7160 C.3       1 FAD503      0.0000 
      7 O4B       260.8510  181.1870  148.5400 O.3       1 FAD503      0.0000 
      8 C3B       262.6410  179.8930  149.4370 C.3       1 FAD503      0.0000 
      9 O3B       262.5720  178.5320  149.0280 O.3       1 FAD503      0.0000 
     10 C2B       263.1400  180.7790  148.2940 C.3       1 FAD503      0.0000 
     11 O2B       264.0540  180.0790  147.4600 O.3       1 FAD503      0.0000 
     12 C1B       261.8390  181.0420  147.5460 C.3       1 FAD503      0.0000 
     13 N9A       261.8470  182.2470  146.7250 N.pl3     1 FAD503      0.0000 
     14 C8A       262.6410  183.3510  146.8790 C.2       1 FAD503      0.0000 
     15 N7A       262.4300  184.2910  145.9900 N.2       1 FAD503      0.0000 
     16 C5A       261.4280  183.7640  145.1890 C.ar      1 FAD503      0.0000 
     17 C6A       260.7540  184.2650  144.0610 C.ar      1 FAD503      0.0000 
     18 N6A       260.9980  185.4610  143.5190 N.pl3     1 FAD503      0.0000 
     19 N1A       259.8070  183.4850  143.4990 N.ar      1 FAD503      0.0000 
     20 C2A       259.5560  182.2890  144.0350 C.ar      1 FAD503      0.0000 
     21 N3A       260.1250  181.7120  145.0950 N.ar      1 FAD503      0.0000 
     22 C4A       261.0580  182.5060  145.6310 C.ar      1 FAD503      0.0000 
     23 N1        268.2800  182.7880  157.7740 N.2       1 FAD503      0.0000 
     24 C2        269.1960  183.1610  156.8340 C.2       1 FAD503      0.0000 
     25 O2        268.8840  183.8600  155.8650 O.2       1 FAD503      0.0000 
     26 N3        270.5110  182.7540  156.9590 N.am      1 FAD503      0.0000 
     27 C4        271.0270  181.9780  157.9700 C.2       1 FAD503      0.0000 
     28 O4        272.2190  181.6790  157.9730 O.2       1 FAD503      0.0000 
     29 C4X       270.0460  181.5850  158.9620 C.2       1 FAD503      0.0000 
     30 N5        270.4450  180.8510  159.9550 N.2       1 FAD503      0.0000 
     31 C5X       269.5110  180.4760  160.9020 C.ar      1 FAD503      0.0000 
     32 C6        269.9230  179.6870  161.9720 C.ar      1 FAD503      0.0000 
     33 C7        269.0230  179.2840  162.9510 C.ar      1 FAD503      0.0000 
     34 C7M       269.5070  178.4330  164.0960 C.3       1 FAD503      0.0000 
     35 C8        267.6780  179.6770  162.8600 C.ar      1 FAD503      0.0000 
     36 C8M       266.6770  179.2580  163.9020 C.3       1 FAD503      0.0000 
     37 C9        267.2630  180.4640  161.7930 C.ar      1 FAD503      0.0000 
     38 C9A       268.1660  180.8640  160.8180 C.ar      1 FAD503      0.0000 
     39 N10       267.7780  181.6590  159.7220 N.pl3     1 FAD503      0.0000 
     40 C10       268.6940  182.0410  158.7770 C.2       1 FAD503      0.0000 
     41 C1'       266.3870  182.1070  159.5740 C.3       1 FAD503      0.0000 
     42 C2'       265.4860  181.0640  158.9220 C.3       1 FAD503      0.0000 
     43 O2'       266.2340  180.2680  158.0030 O.3       1 FAD503      0.0000 
     44 C3'       264.3510  181.7720  158.1820 C.3       1 FAD503      0.0000 
     45 O3'       263.8030  182.7720  159.0320 O.3       1 FAD503      0.0000 
     46 C4'       263.2260  180.8400  157.7310 C.3       1 FAD503      0.0000 
     47 O4'       263.7930  179.6690  157.1440 O.3       1 FAD503      0.0000 
     48 C5'       262.2700  181.5000  156.7610 C.3       1 FAD503      0.0000 
     49 O5'       261.6800  180.4870  155.9200 O.3       1 FAD503      0.0000 
     50 P         260.3850  180.7800  155.0730 P.3       1 FAD503      0.0000 
     51 O1P       259.8580  182.1780  155.4110 O.co2     1 FAD503      0.0000 
     52 O2P       259.4040  179.6810  155.2210 O.co2     1 FAD503      0.0000 
     53 O3P       260.9280  180.8200  153.5940 O.3       1 FAD503      0.0000 
@<TRIPOS>BOND
     1    1    2 ar   
     2    1    3 ar   
     3    1    4 1    
     4    1   53 1    
     5    4    5 1    
     6    5    6 1    
     7    6    7 1    
     8    6    8 1    
     9    7   12 1    
    10    8    9 1    
    11    8   10 1    
    12   10   11 1    
    13   10   12 1    
    14   12   13 1    
    15   13   14 1    
    16   13   22 1    
    17   14   15 2    
    18   15   16 1    
    19   16   17 ar   
    20   16   22 ar   
    21   17   18 1    
    22   17   19 ar   
    23   19   20 ar   
    24   20   21 ar   
    25   21   22 ar   
    26   23   24 1    
    27   23   40 2    
    28   24   25 2    
    29   24   26 am   
    30   26   27 am   
    31   27   28 2    
    32   27   29 1    
    33   29   30 2    
    34   29   40 1    
    35   30   31 1    
    36   31   32 ar   
    37   31   38 ar   
    38   32   33 ar   
    39   33   34 1    
    40   33   35 ar   
    41   35   36 1    
    42   35   37 ar   
    43   37   38 ar   
    44   38   39 1    
    45   39   40 1    
    46   39   41 1    
    47   41   42 1    
    48   42   43 1    
    49   42   44 1    
    50   44   45 1    
    51   44   46 1    
    52   46   47 1    
    53   46   48 1    
    54   48   49 1    
    55   49   50 1    
    56   50   51 ar   
    57   50   52 ar   
    58   50   53 1    
@<TRIPOS>SUBSTRUCTURE
     1 FAD503      1 GROUP   
@<TRIPOS>SET
ATOM$ORANGE STATIC     ATOMS   COLORGROUP SYSTEM 
54 5 5 6 6 8 8 10 10 12 12 14 14 16 16 17 17 20 \
20 22 22 24 24 27 27 29 29 31 31 32 32 33 33 34 34 35 \
35 36 36 37 37 38 38 40 40 41 41 42 42 44 44 46 46 48 \
48 

