#    Name: 6s6s_2_FMN
#    Modification time : Fri May 22 19:30:42 2020

@<TRIPOS>MOLECULE
6s6s_2_FMN
   31    33     1     0     1
SMALL
NO_CHARGES


@<TRIPOS>ATOM
      1 N1        194.7520  263.7470  207.7560 N.2       1 FMN1501     0.0000 
      2 C2        194.8260  264.2320  209.0440 C.2       1 FMN1501     0.0000 
      3 O2        195.8420  264.0510  209.7090 O.2       1 FMN1501     0.0000 
      4 N3        193.7680  264.9210  209.5930 N.am      1 FMN1501     0.0000 
      5 C4        192.6290  265.1260  208.8490 C.2       1 FMN1501     0.0000 
      6 O4        191.6820  265.7370  209.3310 O.2       1 FMN1501     0.0000 
      7 C4A       192.5470  264.6420  207.5550 C.2       1 FMN1501     0.0000 
      8 N5        191.4060  264.8500  206.8180 N.2       1 FMN1501     0.0000 
      9 C5A       191.3260  264.3680  205.5320 C.ar      1 FMN1501     0.0000 
     10 C6        190.1730  264.5830  204.7920 C.ar      1 FMN1501     0.0000 
     11 C7        190.0850  264.1000  203.4960 C.ar      1 FMN1501     0.0000 
     12 C7M       188.8410  264.3290  202.6940 C.3       1 FMN1501     0.0000 
     13 C8        191.1500  263.4070  202.9410 C.ar      1 FMN1501     0.0000 
     14 C8M       191.0510  262.8900  201.5390 C.3       1 FMN1501     0.0000 
     15 C9        192.3060  263.1940  203.6810 C.ar      1 FMN1501     0.0000 
     16 C9A       192.3950  263.6750  204.9800 C.ar      1 FMN1501     0.0000 
     17 N10       193.5380  263.4650  205.7230 N.pl3     1 FMN1501     0.0000 
     18 C10       193.6150  263.9520  207.0070 C.2       1 FMN1501     0.0000 
     19 C1'       194.7030  262.7240  205.1370 C.3       1 FMN1501     0.0000 
     20 C2'       194.6440  261.2590  205.5370 C.3       1 FMN1501     0.0000 
     21 O2'       194.7120  261.1750  206.9420 O.3       1 FMN1501     0.0000 
     22 C3'       195.8000  260.4620  204.9450 C.3       1 FMN1501     0.0000 
     23 O3'       197.0240  260.9830  205.4060 O.3       1 FMN1501     0.0000 
     24 C4'       195.7880  260.4880  203.4240 C.3       1 FMN1501     0.0000 
     25 O4'       194.4570  260.4510  202.9690 O.3       1 FMN1501     0.0000 
     26 C5'       196.5270  259.2830  202.8640 C.3       1 FMN1501     0.0000 
     27 O5'       196.7910  259.4930  201.4980 O.3       1 FMN1501     0.0000 
     28 P         195.7160  259.0360  200.3960 P.3       1 FMN1501     0.0000 
     29 O1P       195.1640  260.2850  199.7620 O.co2     1 FMN1501     0.0000 
     30 O2P       196.3550  258.1620  199.3470 O.co2     1 FMN1501     0.0000 
     31 O3P       194.5960  258.2830  201.0660 O.co2     1 FMN1501     0.0000 
@<TRIPOS>BOND
     1    1    2 1    
     2    1   18 2    
     3    2    3 2    
     4    2    4 am   
     5    4    5 am   
     6    5    6 2    
     7    5    7 1    
     8    7    8 2    
     9    7   18 1    
    10    8    9 1    
    11    9   10 ar   
    12    9   16 ar   
    13   10   11 ar   
    14   11   12 1    
    15   11   13 ar   
    16   13   14 1    
    17   13   15 ar   
    18   15   16 ar   
    19   16   17 1    
    20   17   18 1    
    21   17   19 1    
    22   19   20 1    
    23   20   21 1    
    24   20   22 1    
    25   22   23 1    
    26   22   24 1    
    27   24   25 1    
    28   24   26 1    
    29   26   27 1    
    30   27   28 1    
    31   28   29 ar   
    32   28   30 ar   
    33   28   31 ar   
@<TRIPOS>SUBSTRUCTURE
     1 FMN1501     1 GROUP   
@<TRIPOS>SET
ATOM$ORANGE STATIC     ATOMS   COLORGROUP SYSTEM 
34 2 2 5 5 7 7 9 9 10 10 11 11 12 12 13 13 14 \
14 15 15 16 16 18 18 19 19 20 20 22 22 24 24 26 26 

