#    Name: 6s6s_3_FMN
#    Modification time : Fri May 22 19:31:00 2020

@<TRIPOS>MOLECULE
6s6s_3_FMN
   31    33     1     0     1
SMALL
NO_CHARGES


@<TRIPOS>ATOM
      1 N1        243.9310  175.5570  205.9800 N.2       1 FMN1501     0.0000 
      2 C2        243.8250  175.1140  207.2800 C.2       1 FMN1501     0.0000 
      3 O2        242.7960  175.3230  207.9180 O.2       1 FMN1501     0.0000 
      4 N3        244.8680  174.4350  207.8700 N.am      1 FMN1501     0.0000 
      5 C4        246.0230  174.1980  207.1600 C.2       1 FMN1501     0.0000 
      6 O4        246.9580  173.5960  207.6790 O.2       1 FMN1501     0.0000 
      7 C4A       246.1340  174.6410  205.8550 C.2       1 FMN1501     0.0000 
      8 N5        247.2890  174.4030  205.1500 N.2       1 FMN1501     0.0000 
      9 C5A       247.3970  174.8460  203.8530 C.ar      1 FMN1501     0.0000 
     10 C6        248.5620  174.6030  203.1470 C.ar      1 FMN1501     0.0000 
     11 C7        248.6840  175.0420  201.8400 C.ar      1 FMN1501     0.0000 
     12 C7M       249.9440  174.7820  201.0740 C.3       1 FMN1501     0.0000 
     13 C8        247.6420  175.7220  201.2390 C.ar      1 FMN1501     0.0000 
     14 C8M       247.7860  176.1920  199.8250 C.3       1 FMN1501     0.0000 
     15 C9        246.4740  175.9660  201.9450 C.ar      1 FMN1501     0.0000 
     16 C9A       246.3470  175.5280  203.2570 C.ar      1 FMN1501     0.0000 
     17 N10       245.1890  175.7660  203.9710 N.pl3     1 FMN1501     0.0000 
     18 C10       245.0830  175.3210  205.2670 C.2       1 FMN1501     0.0000 
     19 C1'       244.0320  176.4970  203.3580 C.3       1 FMN1501     0.0000 
     20 C2'       244.2140  177.9920  203.5690 C.3       1 FMN1501     0.0000 
     21 O2'       244.3520  178.2300  204.9490 O.3       1 FMN1501     0.0000 
     22 C3'       243.0300  178.7980  203.0530 C.3       1 FMN1501     0.0000 
     23 O3'       241.8390  178.2500  203.5650 O.3       1 FMN1501     0.0000 
     24 C4'       242.9520  178.8230  201.5340 C.3       1 FMN1501     0.0000 
     25 O4'       244.1530  178.3610  200.9620 O.3       1 FMN1501     0.0000 
     26 C5'       242.7170  180.2420  201.0490 C.3       1 FMN1501     0.0000 
     27 O5'       242.3100  180.1960  199.7040 O.3       1 FMN1501     0.0000 
     28 P         243.3400  180.6000  198.5420 P.3       1 FMN1501     0.0000 
     29 O1P       243.8100  179.3280  197.8800 O.co2     1 FMN1501     0.0000 
     30 O2P       242.6660  181.4990  197.5380 O.co2     1 FMN1501     0.0000 
     31 O3P       244.5230  181.3120  199.1460 O.co2     1 FMN1501     0.0000 
@<TRIPOS>BOND
     1    1    2 1    
     2    1   18 2    
     3    2    3 2    
     4    2    4 am   
     5    4    5 am   
     6    5    6 2    
     7    5    7 1    
     8    7    8 2    
     9    7   18 1    
    10    8    9 1    
    11    9   10 ar   
    12    9   16 ar   
    13   10   11 ar   
    14   11   12 1    
    15   11   13 ar   
    16   13   14 1    
    17   13   15 ar   
    18   15   16 ar   
    19   16   17 1    
    20   17   18 1    
    21   17   19 1    
    22   19   20 1    
    23   20   21 1    
    24   20   22 1    
    25   22   23 1    
    26   22   24 1    
    27   24   25 1    
    28   24   26 1    
    29   26   27 1    
    30   27   28 1    
    31   28   29 ar   
    32   28   30 ar   
    33   28   31 ar   
@<TRIPOS>SUBSTRUCTURE
     1 FMN1501     1 GROUP   
@<TRIPOS>SET
ATOM$ORANGE STATIC     ATOMS   COLORGROUP SYSTEM 
34 2 2 5 5 7 7 9 9 10 10 11 11 12 12 13 13 14 \
14 15 15 16 16 18 18 19 19 20 20 22 22 24 24 26 26 

