#    Name: 6s6s_7_FAD
#    Modification time : Fri May 22 19:31:46 2020

@<TRIPOS>MOLECULE
6s6s_7_FAD
   53    58     1     0     1
SMALL
NO_CHARGES


@<TRIPOS>ATOM
      1 PA        131.2840  168.6550  256.9190 P.3       1 FAD503      0.0000 
      2 O1A       129.8340  168.8590  256.6820 O.co2     1 FAD503      0.0000 
      3 O2A       131.8810  169.4490  258.0840 O.co2     1 FAD503      0.0000 
      4 O5B       131.5970  167.1360  257.1350 O.3       1 FAD503      0.0000 
      5 C5B       130.7970  166.3280  258.0220 C.3       1 FAD503      0.0000 
      6 C4B       130.2730  165.1400  257.2590 C.3       1 FAD503      0.0000 
      7 O4B       130.7120  163.9240  257.8980 O.3       1 FAD503      0.0000 
      8 C3B       128.7560  165.0270  257.1880 C.3       1 FAD503      0.0000 
      9 O3B       128.3510  164.3330  256.0150 O.3       1 FAD503      0.0000 
     10 C2B       128.4260  164.2460  258.4610 C.3       1 FAD503      0.0000 
     11 O2B       127.2320  163.4860  258.3140 O.3       1 FAD503      0.0000 
     12 C1B       129.6360  163.3160  258.5910 C.3       1 FAD503      0.0000 
     13 N9A       130.0590  163.0890  259.9690 N.pl3     1 FAD503      0.0000 
     14 C8A       130.0670  164.0070  260.9850 C.2       1 FAD503      0.0000 
     15 N7A       130.5010  163.5370  262.1290 N.2       1 FAD503      0.0000 
     16 C5A       130.8010  162.2130  261.8460 C.ar      1 FAD503      0.0000 
     17 C6A       131.3050  161.1650  262.6390 C.ar      1 FAD503      0.0000 
     18 N6A       131.6080  161.2930  263.9330 N.pl3     1 FAD503      0.0000 
     19 N1A       131.4910  159.9650  262.0470 N.ar      1 FAD503      0.0000 
     20 C2A       131.1900  159.8320  260.7530 C.ar      1 FAD503      0.0000 
     21 N3A       130.7090  160.7450  259.9070 N.ar      1 FAD503      0.0000 
     22 C4A       130.5360  161.9230  260.5180 C.ar      1 FAD503      0.0000 
     23 N1        131.4310  175.7050  259.0170 N.2       1 FAD503      0.0000 
     24 C2        130.5980  175.3210  260.0270 C.2       1 FAD503      0.0000 
     25 O2        130.8270  174.3150  260.7090 O.2       1 FAD503      0.0000 
     26 N3        129.4670  176.0720  260.3040 N.am      1 FAD503      0.0000 
     27 C4        129.0680  177.2160  259.6430 C.2       1 FAD503      0.0000 
     28 O4        128.0390  177.7990  259.9800 O.2       1 FAD503      0.0000 
     29 C4X       129.9600  177.6130  258.5710 C.2       1 FAD503      0.0000 
     30 N5        129.6620  178.6850  257.8900 N.2       1 FAD503      0.0000 
     31 C5X       130.5160  179.0620  256.8670 C.ar      1 FAD503      0.0000 
     32 C6        130.2160  180.2040  256.1270 C.ar      1 FAD503      0.0000 
     33 C7        131.0430  180.6240  255.0900 C.ar      1 FAD503      0.0000 
     34 C7M       130.6870  181.8630  254.3120 C.3       1 FAD503      0.0000 
     35 C8        132.1970  179.8860  254.7830 C.ar      1 FAD503      0.0000 
     36 C8M       133.1150  180.3100  253.6670 C.3       1 FAD503      0.0000 
     37 C9        132.5000  178.7460  255.5190 C.ar      1 FAD503      0.0000 
     38 C9A       131.6710  178.3320  256.5540 C.ar      1 FAD503      0.0000 
     39 N10       131.9490  177.1780  257.3140 N.pl3     1 FAD503      0.0000 
     40 C10       131.1190  176.7930  258.3340 C.2       1 FAD503      0.0000 
     41 C1'       133.1470  176.3730  257.0440 C.3       1 FAD503      0.0000 
     42 C2'       132.8950  175.2150  256.0850 C.3       1 FAD503      0.0000 
     43 O2'       131.5220  174.8260  256.1200 O.3       1 FAD503      0.0000 
     44 C3'       133.7660  174.0280  256.4940 C.3       1 FAD503      0.0000 
     45 O3'       135.1090  174.4740  256.6430 O.3       1 FAD503      0.0000 
     46 C4'       133.7330  172.8610  255.5070 C.3       1 FAD503      0.0000 
     47 O4'       132.6190  173.0180  254.6290 O.3       1 FAD503      0.0000 
     48 C5'       133.6660  171.5180  256.2010 C.3       1 FAD503      0.0000 
     49 O5'       134.0580  170.4870  255.2720 O.3       1 FAD503      0.0000 
     50 P         133.6800  168.9790  255.5210 P.3       1 FAD503      0.0000 
     51 O1P       134.0540  168.1430  254.2940 O.co2     1 FAD503      0.0000 
     52 O2P       134.2460  168.5010  256.7970 O.co2     1 FAD503      0.0000 
     53 O3P       132.1020  169.0240  255.6130 O.3       1 FAD503      0.0000 
@<TRIPOS>BOND
     1    1    2 ar   
     2    1    3 ar   
     3    1    4 1    
     4    1   53 1    
     5    4    5 1    
     6    5    6 1    
     7    6    7 1    
     8    6    8 1    
     9    7   12 1    
    10    8    9 1    
    11    8   10 1    
    12   10   11 1    
    13   10   12 1    
    14   12   13 1    
    15   13   14 1    
    16   13   22 1    
    17   14   15 2    
    18   15   16 1    
    19   16   17 ar   
    20   16   22 ar   
    21   17   18 1    
    22   17   19 ar   
    23   19   20 ar   
    24   20   21 ar   
    25   21   22 ar   
    26   23   24 1    
    27   23   40 2    
    28   24   25 2    
    29   24   26 am   
    30   26   27 am   
    31   27   28 2    
    32   27   29 1    
    33   29   30 2    
    34   29   40 1    
    35   30   31 1    
    36   31   32 ar   
    37   31   38 ar   
    38   32   33 ar   
    39   33   34 1    
    40   33   35 ar   
    41   35   36 1    
    42   35   37 ar   
    43   37   38 ar   
    44   38   39 1    
    45   39   40 1    
    46   39   41 1    
    47   41   42 1    
    48   42   43 1    
    49   42   44 1    
    50   44   45 1    
    51   44   46 1    
    52   46   47 1    
    53   46   48 1    
    54   48   49 1    
    55   49   50 1    
    56   50   51 ar   
    57   50   52 ar   
    58   50   53 1    
@<TRIPOS>SUBSTRUCTURE
     1 FAD503      1 GROUP   
@<TRIPOS>SET
ATOM$ORANGE STATIC     ATOMS   COLORGROUP SYSTEM 
54 5 5 6 6 8 8 10 10 12 12 14 14 16 16 17 17 20 \
20 22 22 24 24 27 27 29 29 31 31 32 32 33 33 34 34 35 \
35 36 36 37 37 38 38 40 40 41 41 42 42 44 44 46 46 48 \
48 

