#    Name: 6s6s_5_FAD
#    Modification time : Fri May 22 19:31:27 2020

@<TRIPOS>MOLECULE
6s6s_5_FAD
   53    58     1     0     1
SMALL
NO_CHARGES


@<TRIPOS>ATOM
      1 PA        175.7310  261.1870  154.5720 P.3       1 FAD503      0.0000 
      2 O1A       174.7370  262.2810  154.4730 O.co2     1 FAD503      0.0000 
      3 O2A       175.1360  259.8040  154.8220 O.co2     1 FAD503      0.0000 
      4 O5B       176.6020  261.1460  153.2720 O.3       1 FAD503      0.0000 
      5 C5B       176.1170  260.5150  152.0680 C.3       1 FAD503      0.0000 
      6 C4B       176.1020  261.5070  150.9350 C.3       1 FAD503      0.0000 
      7 O4B       176.8580  260.9770  149.8230 O.3       1 FAD503      0.0000 
      8 C3B       174.7180  261.8250  150.3780 C.3       1 FAD503      0.0000 
      9 O3B       174.6480  263.1650  149.9050 O.3       1 FAD503      0.0000 
     10 C2B       174.5820  260.8120  149.2420 C.3       1 FAD503      0.0000 
     11 O2B       173.6810  261.2520  148.2320 O.3       1 FAD503      0.0000 
     12 C1B       176.0110  260.7780  148.7080 C.3       1 FAD503      0.0000 
     13 N9A       176.3780  259.5190  148.0730 N.pl3     1 FAD503      0.0000 
     14 C8A       175.9200  258.2690  148.3940 C.2       1 FAD503      0.0000 
     15 N7A       176.4190  257.3100  147.6530 N.2       1 FAD503      0.0000 
     16 C5A       177.2700  257.9760  146.7840 C.ar      1 FAD503      0.0000 
     17 C6A       178.1050  257.5280  145.7440 C.ar      1 FAD503      0.0000 
     18 N6A       178.2270  256.2470  145.3880 N.pl3     1 FAD503      0.0000 
     19 N1A       178.8190  258.4550  145.0710 N.ar      1 FAD503      0.0000 
     20 C2A       178.7010  259.7380  145.4210 C.ar      1 FAD503      0.0000 
     21 N3A       177.9490  260.2780  146.3810 N.ar      1 FAD503      0.0000 
     22 C4A       177.2530  259.3380  147.0300 C.ar      1 FAD503      0.0000 
     23 N1        170.1870  258.7260  160.0500 N.2       1 FAD503      0.0000 
     24 C2        169.3960  258.3040  159.0210 C.2       1 FAD503      0.0000 
     25 O2        169.8440  257.6120  158.1010 O.2       1 FAD503      0.0000 
     26 N3        168.0580  258.6530  158.9990 N.am      1 FAD503      0.0000 
     27 C4        167.4030  259.4160  159.9380 C.2       1 FAD503      0.0000 
     28 O4        166.2050  259.6610  159.8090 O.2       1 FAD503      0.0000 
     29 C4X       168.2520  259.8590  161.0250 C.2       1 FAD503      0.0000 
     30 N5        167.7160  260.5850  161.9610 N.2       1 FAD503      0.0000 
     31 C5X       168.5280  261.0070  162.9990 C.ar      1 FAD503      0.0000 
     32 C6        167.9700  261.7860  164.0100 C.ar      1 FAD503      0.0000 
     33 C7        168.7440  262.2360  165.0740 C.ar      1 FAD503      0.0000 
     34 C7M       168.1070  263.0740  166.1500 C.3       1 FAD503      0.0000 
     35 C8        170.1070  261.9020  165.1300 C.ar      1 FAD503      0.0000 
     36 C8M       170.9740  262.3720  166.2670 C.3       1 FAD503      0.0000 
     37 C9        170.6670  261.1240  164.1220 C.ar      1 FAD503      0.0000 
     38 C9A       169.8890  260.6780  163.0620 C.ar      1 FAD503      0.0000 
     39 N10       170.4250  259.8900  162.0250 N.pl3     1 FAD503      0.0000 
     40 C10       169.6340  259.4610  160.9920 C.2       1 FAD503      0.0000 
     41 C1'       171.8410  259.5050  162.0300 C.3       1 FAD503      0.0000 
     42 C2'       172.7430  260.5350  161.3610 C.3       1 FAD503      0.0000 
     43 O2'       171.9610  261.6120  160.8430 O.3       1 FAD503      0.0000 
     44 C3'       173.5130  259.8670  160.2220 C.3       1 FAD503      0.0000 
     45 O3'       174.0920  258.6620  160.7070 O.3       1 FAD503      0.0000 
     46 C4'       174.6170  260.7410  159.6270 C.3       1 FAD503      0.0000 
     47 O4'       174.0550  261.9910  159.2280 O.3       1 FAD503      0.0000 
     48 C5'       175.3190  260.0860  158.4570 C.3       1 FAD503      0.0000 
     49 O5'       176.4650  260.8820  158.0910 O.3       1 FAD503      0.0000 
     50 P         177.3380  260.5260  156.8300 P.3       1 FAD503      0.0000 
     51 O1P       177.0880  259.0820  156.3870 O.co2     1 FAD503      0.0000 
     52 O2P       178.7580  260.8220  157.0950 O.co2     1 FAD503      0.0000 
     53 O3P       176.7790  261.5120  155.7170 O.3       1 FAD503      0.0000 
@<TRIPOS>BOND
     1    1    2 ar   
     2    1    3 ar   
     3    1    4 1    
     4    1   53 1    
     5    4    5 1    
     6    5    6 1    
     7    6    7 1    
     8    6    8 1    
     9    7   12 1    
    10    8    9 1    
    11    8   10 1    
    12   10   11 1    
    13   10   12 1    
    14   12   13 1    
    15   13   14 1    
    16   13   22 1    
    17   14   15 2    
    18   15   16 1    
    19   16   17 ar   
    20   16   22 ar   
    21   17   18 1    
    22   17   19 ar   
    23   19   20 ar   
    24   20   21 ar   
    25   21   22 ar   
    26   23   24 1    
    27   23   40 2    
    28   24   25 2    
    29   24   26 am   
    30   26   27 am   
    31   27   28 2    
    32   27   29 1    
    33   29   30 2    
    34   29   40 1    
    35   30   31 1    
    36   31   32 ar   
    37   31   38 ar   
    38   32   33 ar   
    39   33   34 1    
    40   33   35 ar   
    41   35   36 1    
    42   35   37 ar   
    43   37   38 ar   
    44   38   39 1    
    45   39   40 1    
    46   39   41 1    
    47   41   42 1    
    48   42   43 1    
    49   42   44 1    
    50   44   45 1    
    51   44   46 1    
    52   46   47 1    
    53   46   48 1    
    54   48   49 1    
    55   49   50 1    
    56   50   51 ar   
    57   50   52 ar   
    58   50   53 1    
@<TRIPOS>SUBSTRUCTURE
     1 FAD503      1 GROUP   
@<TRIPOS>SET
ATOM$ORANGE STATIC     ATOMS   COLORGROUP SYSTEM 
54 5 5 6 6 8 8 10 10 12 12 14 14 16 16 17 17 20 \
20 22 22 24 24 27 27 29 29 31 31 32 32 33 33 34 34 35 \
35 36 36 37 37 38 38 40 40 41 41 42 42 44 44 46 46 48 \
48 

