#    Name: 6s6s_1_FMN
#    Modification time : Fri May 22 19:30:24 2020

@<TRIPOS>MOLECULE
6s6s_1_FMN
   31    33     1     0     1
SMALL
NO_CHARGES


@<TRIPOS>ATOM
      1 N1        165.2150  202.4270  225.3650 N.2       1 FMN1501     0.0000 
      2 C2        165.5010  203.3840  224.4130 C.2       1 FMN1501     0.0000 
      3 O2        166.6250  203.4470  223.9230 O.2       1 FMN1501     0.0000 
      4 N3        164.5320  204.2740  224.0050 N.am      1 FMN1501     0.0000 
      5 C4        163.2700  204.2100  224.5510 C.2       1 FMN1501     0.0000 
      6 O4        162.3990  204.9980  224.1950 O.2       1 FMN1501     0.0000 
      7 C4A       162.9780  203.2540  225.5050 C.2       1 FMN1501     0.0000 
      8 N5        161.7160  203.2000  226.0430 N.2       1 FMN1501     0.0000 
      9 C5A       161.4220  202.2510  226.9930 C.ar      1 FMN1501     0.0000 
     10 C6        160.1440  202.2030  227.5280 C.ar      1 FMN1501     0.0000 
     11 C7        159.8330  201.2520  228.4860 C.ar      1 FMN1501     0.0000 
     12 C7M       158.4510  201.2060  229.0640 C.3       1 FMN1501     0.0000 
     13 C8        160.7980  200.3490  228.9060 C.ar      1 FMN1501     0.0000 
     14 C8M       160.4540  199.3250  229.9440 C.3       1 FMN1501     0.0000 
     15 C9        162.0770  200.3960  228.3680 C.ar      1 FMN1501     0.0000 
     16 C9A       162.3930  201.3490  227.4080 C.ar      1 FMN1501     0.0000 
     17 N10       163.6630  201.4090  226.8670 N.pl3     1 FMN1501     0.0000 
     18 C10       163.9540  202.3590  225.9130 C.2       1 FMN1501     0.0000 
     19 C1'       164.7240  200.4400  227.2910 C.3       1 FMN1501     0.0000 
     20 C2'       165.4820  200.9610  228.5000 C.3       1 FMN1501     0.0000 
     21 O2'       166.2490  202.0740  228.1070 O.3       1 FMN1501     0.0000 
     22 C3'       166.4130  199.8930  229.0530 C.3       1 FMN1501     0.0000 
     23 O3'       167.3560  199.5510  228.0660 O.3       1 FMN1501     0.0000 
     24 C4'       165.6590  198.6450  229.4840 C.3       1 FMN1501     0.0000 
     25 O4'       164.3970  198.9970  229.9970 O.3       1 FMN1501     0.0000 
     26 C5'       166.4260  197.9130  230.5730 C.3       1 FMN1501     0.0000 
     27 O5'       165.9040  196.6130  230.7060 O.3       1 FMN1501     0.0000 
     28 P         165.1240  196.2030  232.0470 P.3       1 FMN1501     0.0000 
     29 O1P       163.6500  196.3350  231.7630 O.co2     1 FMN1501     0.0000 
     30 O2P       165.4510  194.7830  232.4330 O.co2     1 FMN1501     0.0000 
     31 O3P       165.5060  197.1410  233.1640 O.co2     1 FMN1501     0.0000 
@<TRIPOS>BOND
     1    1    2 1    
     2    1   18 2    
     3    2    3 2    
     4    2    4 am   
     5    4    5 am   
     6    5    6 2    
     7    5    7 1    
     8    7    8 2    
     9    7   18 1    
    10    8    9 1    
    11    9   10 ar   
    12    9   16 ar   
    13   10   11 ar   
    14   11   12 1    
    15   11   13 ar   
    16   13   14 1    
    17   13   15 ar   
    18   15   16 ar   
    19   16   17 1    
    20   17   18 1    
    21   17   19 1    
    22   19   20 1    
    23   20   21 1    
    24   20   22 1    
    25   22   23 1    
    26   22   24 1    
    27   24   25 1    
    28   24   26 1    
    29   26   27 1    
    30   27   28 1    
    31   28   29 ar   
    32   28   30 ar   
    33   28   31 ar   
@<TRIPOS>SUBSTRUCTURE
     1 FMN1501     1 GROUP   
@<TRIPOS>SET
ATOM$ORANGE STATIC     ATOMS   COLORGROUP SYSTEM 
34 2 2 5 5 7 7 9 9 10 10 11 11 12 12 13 13 14 \
14 15 15 16 16 18 18 19 19 20 20 22 22 24 24 26 26 

