#    Name: 6s6s_4_FMN
#    Modification time : Fri May 22 19:31:19 2020

@<TRIPOS>MOLECULE
6s6s_4_FMN
   31    33     1     0     1
SMALL
NO_CHARGES


@<TRIPOS>ATOM
      1 N1        273.4930  236.3830  226.0710 N.2       1 FMN1501     0.0000 
      2 C2        273.1250  235.4430  225.1310 C.2       1 FMN1501     0.0000 
      3 O2        271.9810  235.4360  224.6820 O.2       1 FMN1501     0.0000 
      4 N3        274.0340  234.5080  224.6890 N.am      1 FMN1501     0.0000 
      5 C4        275.3160  234.5100  225.1880 C.2       1 FMN1501     0.0000 
      6 O4        276.1320  233.6790  224.7990 O.2       1 FMN1501     0.0000 
      7 C4A       275.6890  235.4510  226.1310 C.2       1 FMN1501     0.0000 
      8 N5        276.9710  235.4470  226.6240 N.2       1 FMN1501     0.0000 
      9 C5A       277.3430  236.3820  227.5600 C.ar      1 FMN1501     0.0000 
     10 C6        278.6390  236.3700  228.0520 C.ar      1 FMN1501     0.0000 
     11 C7        279.0280  237.3040  228.9960 C.ar      1 FMN1501     0.0000 
     12 C7M       280.4280  237.2880  229.5270 C.3       1 FMN1501     0.0000 
     13 C8        278.1230  238.2500  229.4480 C.ar      1 FMN1501     0.0000 
     14 C8M       278.5530  239.2550  230.4710 C.3       1 FMN1501     0.0000 
     15 C9        276.8240  238.2650  228.9550 C.ar      1 FMN1501     0.0000 
     16 C9A       276.4300  237.3270  228.0090 C.ar      1 FMN1501     0.0000 
     17 N10       275.1420  237.3260  227.5130 N.pl3     1 FMN1501     0.0000 
     18 C10       274.7750  236.3910  226.5720 C.2       1 FMN1501     0.0000 
     19 C1'       274.1390  238.3420  227.9720 C.3       1 FMN1501     0.0000 
     20 C2'       273.3890  237.8450  229.1970 C.3       1 FMN1501     0.0000 
     21 O2'       272.7470  236.6370  228.8690 O.3       1 FMN1501     0.0000 
     22 C3'       272.3410  238.8500  229.6510 C.3       1 FMN1501     0.0000 
     23 O3'       271.4250  239.0570  228.6030 O.3       1 FMN1501     0.0000 
     24 C4'       272.9690  240.1800  230.0450 C.3       1 FMN1501     0.0000 
     25 O4'       274.2410  239.9580  230.6060 O.3       1 FMN1501     0.0000 
     26 C5'       272.1210  240.9010  231.0800 C.3       1 FMN1501     0.0000 
     27 O5'       272.6050  242.2140  231.2320 O.3       1 FMN1501     0.0000 
     28 P         273.6300  242.5550  232.4220 P.3       1 FMN1501     0.0000 
     29 O1P       274.9640  242.8980  231.8070 O.co2     1 FMN1501     0.0000 
     30 O2P       273.1170  243.7080  233.2470 O.co2     1 FMN1501     0.0000 
     31 O3P       273.7920  241.3430  233.3000 O.co2     1 FMN1501     0.0000 
@<TRIPOS>BOND
     1    1    2 1    
     2    1   18 2    
     3    2    3 2    
     4    2    4 am   
     5    4    5 am   
     6    5    6 2    
     7    5    7 1    
     8    7    8 2    
     9    7   18 1    
    10    8    9 1    
    11    9   10 ar   
    12    9   16 ar   
    13   10   11 ar   
    14   11   12 1    
    15   11   13 ar   
    16   13   14 1    
    17   13   15 ar   
    18   15   16 ar   
    19   16   17 1    
    20   17   18 1    
    21   17   19 1    
    22   19   20 1    
    23   20   21 1    
    24   20   22 1    
    25   22   23 1    
    26   22   24 1    
    27   24   25 1    
    28   24   26 1    
    29   26   27 1    
    30   27   28 1    
    31   28   29 ar   
    32   28   30 ar   
    33   28   31 ar   
@<TRIPOS>SUBSTRUCTURE
     1 FMN1501     1 GROUP   
@<TRIPOS>SET
ATOM$ORANGE STATIC     ATOMS   COLORGROUP SYSTEM 
34 2 2 5 5 7 7 9 9 10 10 11 11 12 12 13 13 14 \
14 15 15 16 16 18 18 19 19 20 20 22 22 24 24 26 26 

