#    Name: 5z2l_8_NDP
#    Modification time : Fri May 22 19:28:19 2020

@<TRIPOS>MOLECULE
5z2l_8_NDP
   74    78     1     0     1
SMALL
NO_CHARGES


@<TRIPOS>ATOM
      1 PA        -10.8160 -139.5830  -88.5560 P.3       1 NDP301      0.0000 
      2 O1A       -11.6050 -140.5440  -89.4210 O.co2     1 NDP301      0.0000 
      3 O2A       -11.4730 -138.6670  -87.5510 O.co2     1 NDP301      0.0000 
      4 O5B        -9.6500 -140.3790  -87.8140 O.3       1 NDP301      0.0000 
      5 C5B        -8.7770 -139.6760  -86.9440 C.3       1 NDP301      0.0000 
      6 C4B        -7.6480 -140.6140  -86.5450 C.3       1 NDP301      0.0000 
      7 O4B        -6.6450 -139.8450  -85.8820 O.3       1 NDP301      0.0000 
      8 C3B        -8.1410 -141.6800  -85.5770 C.3       1 NDP301      0.0000 
      9 O3B        -7.4470 -142.9170  -85.7800 O.3       1 NDP301      0.0000 
     10 C2B        -7.7900 -141.0910  -84.2290 C.3       1 NDP301      0.0000 
     11 O2B        -7.5790 -142.0500  -83.1970 O.3       1 NDP301      0.0000 
     12 C1B        -6.5010 -140.3530  -84.5470 C.3       1 NDP301      0.0000 
     13 N9A        -6.3300 -139.2890  -83.5460 N.pl3     1 NDP301      0.0000 
     14 C8A        -7.0280 -138.1410  -83.4670 C.2       1 NDP301      0.0000 
     15 N7A        -6.6180 -137.4140  -82.4000 N.2       1 NDP301      0.0000 
     16 C5A        -5.6480 -138.1220  -81.7880 C.ar      1 NDP301      0.0000 
     17 C6A        -4.7910 -137.9370  -80.6080 C.ar      1 NDP301      0.0000 
     18 N6A        -4.9170 -136.8150  -79.8810 N.pl3     1 NDP301      0.0000 
     19 N1A        -3.9020 -138.9070  -80.2990 N.ar      1 NDP301      0.0000 
     20 C2A        -3.7940 -140.0240  -81.0420 C.ar      1 NDP301      0.0000 
     21 N3A        -4.5460 -140.2610  -82.1320 N.ar      1 NDP301      0.0000 
     22 C4A        -5.4680 -139.3580  -82.5430 C.ar      1 NDP301      0.0000 
     23 O3         -9.8640 -138.6400  -89.4460 O.3       1 NDP301      0.0000 
     24 PN         -9.4400 -138.9250  -90.9650 P.3       1 NDP301      0.0000 
     25 O1N       -10.5350 -138.3330  -91.8180 O.co2     1 NDP301      0.0000 
     26 O2N        -9.0090 -140.3630  -91.1620 O.co2     1 NDP301      0.0000 
     27 O5D        -8.1600 -137.9550  -90.9370 O.3       1 NDP301      0.0000 
     28 C5D        -6.8280 -138.4520  -90.9310 C.3       1 NDP301      0.0000 
     29 C4D        -5.8950 -137.3050  -91.2830 C.3       1 NDP301      0.0000 
     30 O4D        -6.1860 -136.8770  -92.6240 O.3       1 NDP301      0.0000 
     31 C3D        -6.0630 -136.0900  -90.3850 C.3       1 NDP301      0.0000 
     32 O3D        -4.7660 -135.5630  -90.0900 O.3       1 NDP301      0.0000 
     33 C2D        -6.8470 -135.0970  -91.2270 C.3       1 NDP301      0.0000 
     34 O2D        -6.5490 -133.7310  -90.9020 O.3       1 NDP301      0.0000 
     35 C1D        -6.3710 -135.4610  -92.6250 C.3       1 NDP301      0.0000 
     36 N1N        -7.3040 -135.0950  -93.6900 N.pl3     1 NDP301      0.0000 
     37 C2N        -8.4530 -135.7540  -93.8570 C.2       1 NDP301      0.0000 
     38 C3N        -9.3310 -135.4240  -94.8910 C.2       1 NDP301      0.0000 
     39 C7N       -10.6400 -136.1180  -95.1250 C.2       1 NDP301      0.0000 
     40 O7N       -11.4220 -135.6100  -95.8990 O.2       1 NDP301      0.0000 
     41 N7N       -10.9540 -137.2610  -94.5160 N.am      1 NDP301      0.0000 
     42 C4N        -9.0000 -134.3160  -95.8430 C.3       1 NDP301      0.0000 
     43 C5N        -7.7220 -133.6900  -95.5570 C.2       1 NDP301      0.0000 
     44 C6N        -6.9300 -134.1070  -94.5100 C.2       1 NDP301      0.0000 
     45 P2B        -8.4970 -142.0780  -81.8640 P.3       1 NDP301      0.0000 
     46 O1X        -8.0620 -143.4040  -81.2680 O.co2     1 NDP301      0.0000 
     47 O2X        -8.0560 -140.8810  -81.0620 O.co2     1 NDP301      0.0000 
     48 O3X        -9.9100 -142.0190  -82.3820 O.co2     1 NDP301      0.0000 
     49 H51A       -8.3730 -138.7970  -87.4500 H         1 NDP301      0.0000 
     50 H52A       -9.3210 -139.3460  -86.0560 H         1 NDP301      0.0000 
     51 H4B        -7.2360 -141.0950  -87.4430 H         1 NDP301      0.0000 
     52 H3B        -9.2290 -141.8040  -85.6670 H         1 NDP301      0.0000 
     53 HO3A       -7.6830 -143.2810  -86.6450 H         1 NDP301      0.0000 
     54 H2B        -8.5620 -140.3660  -83.9340 H         1 NDP301      0.0000 
     55 H1B        -5.6620 -141.0600  -84.4970 H         1 NDP301      0.0000 
     56 H8A        -7.8010 -137.8380  -84.1620 H         1 NDP301      0.0000 
     57 H61A       -4.3350 -136.6720  -79.0680 H         1 NDP301      0.0000 
     58 H62A       -5.5930 -136.1140  -80.1480 H         1 NDP301      0.0000 
     59 H2A        -3.0660 -140.7690  -80.7470 H         1 NDP301      0.0000 
     60 H51N       -6.5800 -138.8470  -89.9430 H         1 NDP301      0.0000 
     61 H52N       -6.7250 -139.2570  -91.6620 H         1 NDP301      0.0000 
     62 H4D        -4.8560 -137.6560  -91.2170 H         1 NDP301      0.0000 
     63 H3D        -6.6190 -136.3540  -89.4750 H         1 NDP301      0.0000 
     64 HO3N       -4.8560 -134.7880  -89.5180 H         1 NDP301      0.0000 
     65 H2D        -7.9230 -135.3000  -91.1370 H         1 NDP301      0.0000 
     66 HO2N       -6.7880 -133.5600  -89.9810 H         1 NDP301      0.0000 
     67 H1D        -5.4050 -134.9670  -92.7990 H         1 NDP301      0.0000 
     68 H2N        -8.7080 -136.5600  -93.1800 H         1 NDP301      0.0000 
     69 H71N      -11.8440 -137.7020  -94.6970 H         1 NDP301      0.0000 
     70 H72N      -10.3020 -137.6850  -93.8720 H         1 NDP301      0.0000 
     71 H41N       -8.9840 -134.7130  -96.8600 H         1 NDP301      0.0000 
     72 H42N       -9.7870 -133.5600  -95.7970 H         1 NDP301      0.0000 
     73 H5N        -7.3820 -132.8760  -96.1850 H         1 NDP301      0.0000 
     74 H6N        -5.9850 -133.6070  -94.3350 H         1 NDP301      0.0000 
@<TRIPOS>BOND
     1    1    2 ar   
     2    1    3 ar   
     3    1    4 1    
     4    1   23 1    
     5    4    5 1    
     6    5    6 1    
     7    5   49 1    
     8    5   50 1    
     9    6    7 1    
    10    6    8 1    
    11    6   51 1    
    12    7   12 1    
    13    8    9 1    
    14    8   10 1    
    15    8   52 1    
    16    9   53 1    
    17   10   11 1    
    18   10   12 1    
    19   10   54 1    
    20   11   45 1    
    21   12   13 1    
    22   12   55 1    
    23   13   14 1    
    24   13   22 1    
    25   14   15 2    
    26   14   56 1    
    27   15   16 1    
    28   16   17 ar   
    29   16   22 ar   
    30   17   18 1    
    31   17   19 ar   
    32   18   57 1    
    33   18   58 1    
    34   19   20 ar   
    35   20   21 ar   
    36   20   59 1    
    37   21   22 ar   
    38   23   24 1    
    39   24   25 ar   
    40   24   26 ar   
    41   24   27 1    
    42   27   28 1    
    43   28   29 1    
    44   28   60 1    
    45   28   61 1    
    46   29   30 1    
    47   29   31 1    
    48   29   62 1    
    49   30   35 1    
    50   31   32 1    
    51   31   33 1    
    52   31   63 1    
    53   32   64 1    
    54   33   34 1    
    55   33   35 1    
    56   33   65 1    
    57   34   66 1    
    58   35   36 1    
    59   35   67 1    
    60   36   37 1    
    61   36   44 1    
    62   37   38 2    
    63   37   68 1    
    64   38   39 1    
    65   38   42 1    
    66   39   40 2    
    67   39   41 am   
    68   41   69 1    
    69   41   70 1    
    70   42   43 1    
    71   42   71 1    
    72   42   72 1    
    73   43   44 2    
    74   43   73 1    
    75   44   74 1    
    76   45   46 ar   
    77   45   47 ar   
    78   45   48 ar   
@<TRIPOS>SUBSTRUCTURE
     1 NDP301      1 GROUP   
@<TRIPOS>SET
ATOM$ORANGE STATIC     ATOMS   COLORGROUP SYSTEM 
42 5 5 6 6 8 8 10 10 12 12 14 14 16 16 17 17 20 \
20 22 22 28 28 29 29 31 31 33 33 35 35 37 37 38 38 39 \
39 42 42 43 43 44 44 

