#    Name: 5z2l_11_NDP
#    Modification time : Fri May 22 19:28:32 2020

@<TRIPOS>MOLECULE
5z2l_11_NDP
   74    78     1     0     1
SMALL
NO_CHARGES


@<TRIPOS>ATOM
      1 PA         -3.1730  -95.4090    1.8350 P.3       1 NDP302      0.0000 
      2 O1A        -1.7300  -95.4600    2.2280 O.co2     1 NDP302      0.0000 
      3 O2A        -4.1380  -94.3680    2.3450 O.co2     1 NDP302      0.0000 
      4 O5B        -3.2400  -95.4360    0.2420 O.3       1 NDP302      0.0000 
      5 C5B        -4.5390  -95.2460   -0.3270 C.3       1 NDP302      0.0000 
      6 C4B        -4.4770  -95.3310   -1.8410 C.3       1 NDP302      0.0000 
      7 O4B        -5.8130  -95.3690   -2.3370 O.3       1 NDP302      0.0000 
      8 C3B        -3.7990  -94.1290   -2.4480 C.3       1 NDP302      0.0000 
      9 O3B        -3.0780  -94.5520   -3.5900 O.3       1 NDP302      0.0000 
     10 C2B        -4.9370  -93.2180   -2.8480 C.3       1 NDP302      0.0000 
     11 O2B        -4.6080  -92.3770   -3.9630 O.3       1 NDP302      0.0000 
     12 C1B        -6.0190  -94.2690   -3.2040 C.3       1 NDP302      0.0000 
     13 N9A        -7.3240  -93.6500   -3.0520 N.pl3     1 NDP302      0.0000 
     14 C8A        -7.9770  -93.3150   -1.9270 C.2       1 NDP302      0.0000 
     15 N7A        -9.1200  -92.6600   -2.2290 N.2       1 NDP302      0.0000 
     16 C5A        -9.1950  -92.5730   -3.5560 C.ar      1 NDP302      0.0000 
     17 C6A       -10.1160  -92.0000   -4.5160 C.ar      1 NDP302      0.0000 
     18 N6A       -11.2370  -91.4090   -4.0320 N.pl3     1 NDP302      0.0000 
     19 N1A        -9.8250  -92.1060   -5.8320 N.ar      1 NDP302      0.0000 
     20 C2A        -8.6930  -92.7250   -6.2640 C.ar      1 NDP302      0.0000 
     21 N3A        -7.8010  -93.2630   -5.4170 N.ar      1 NDP302      0.0000 
     22 C4A        -8.0050  -93.2110   -4.0980 C.ar      1 NDP302      0.0000 
     23 O3         -3.9630  -96.7800    2.1040 O.3       1 NDP302      0.0000 
     24 PN         -3.4220  -98.2720    2.2390 P.3       1 NDP302      0.0000 
     25 O1N        -3.2450  -98.4840    3.7030 O.co2     1 NDP302      0.0000 
     26 O2N        -2.3360  -98.5080    1.2390 O.co2     1 NDP302      0.0000 
     27 O5D        -4.7780  -99.0330    1.8560 O.3       1 NDP302      0.0000 
     28 C5D        -5.0420  -99.5170    0.5560 C.3       1 NDP302      0.0000 
     29 C4D        -6.2360 -100.4580    0.6940 C.3       1 NDP302      0.0000 
     30 O4D        -5.9470 -101.4430    1.6770 O.3       1 NDP302      0.0000 
     31 C3D        -7.5230  -99.7850    1.1820 C.3       1 NDP302      0.0000 
     32 O3D        -8.6130 -100.3920    0.4790 O.3       1 NDP302      0.0000 
     33 C2D        -7.5990 -100.1510    2.6470 C.3       1 NDP302      0.0000 
     34 O2D        -8.9160 -100.1500    3.2020 O.3       1 NDP302      0.0000 
     35 C1D        -6.9840 -101.5450    2.6400 C.3       1 NDP302      0.0000 
     36 N1N        -6.4150 -101.9650    3.9160 N.pl3     1 NDP302      0.0000 
     37 C2N        -5.3510 -101.3660    4.4640 C.2       1 NDP302      0.0000 
     38 C3N        -4.8300 -101.8180    5.6810 C.2       1 NDP302      0.0000 
     39 C7N        -3.6280 -101.2420    6.3690 C.2       1 NDP302      0.0000 
     40 O7N        -3.3740 -101.6350    7.5170 O.2       1 NDP302      0.0000 
     41 N7N        -2.8350 -100.4060    5.6960 N.am      1 NDP302      0.0000 
     42 C4N        -5.4140 -102.9980    6.3930 C.3       1 NDP302      0.0000 
     43 C5N        -6.5330 -103.5830    5.6920 C.2       1 NDP302      0.0000 
     44 C6N        -6.9810 -103.0510    4.5000 C.2       1 NDP302      0.0000 
     45 P2B        -4.5660  -90.7610   -3.7470 P.3       1 NDP302      0.0000 
     46 O1X        -3.9170  -90.3720   -5.0520 O.co2     1 NDP302      0.0000 
     47 O2X        -5.9890  -90.3210   -3.6510 O.co2     1 NDP302      0.0000 
     48 O3X        -3.8050  -90.4560   -2.4990 O.co2     1 NDP302      0.0000 
     49 H51A       -5.2200  -96.0100    0.0540 H         1 NDP302      0.0000 
     50 H52A       -4.9270  -94.2690   -0.0310 H         1 NDP302      0.0000 
     51 H4B        -3.9340  -96.2400   -2.1330 H         1 NDP302      0.0000 
     52 H3B        -3.1490  -93.6370   -1.7110 H         1 NDP302      0.0000 
     53 HO3A       -2.3540  -95.1320   -3.3180 H         1 NDP302      0.0000 
     54 H2B        -5.2620  -92.6240   -1.9830 H         1 NDP302      0.0000 
     55 H1B        -5.8740  -94.5840   -4.2470 H         1 NDP302      0.0000 
     56 H8A        -7.6360  -93.5360   -0.9230 H         1 NDP302      0.0000 
     57 H61A      -11.9160  -91.0160   -4.6680 H         1 NDP302      0.0000 
     58 H62A      -11.3990  -91.3730   -3.0350 H         1 NDP302      0.0000 
     59 H2A        -8.5000  -92.7780   -7.3280 H         1 NDP302      0.0000 
     60 H51N       -5.2820  -98.6920   -0.1170 H         1 NDP302      0.0000 
     61 H52N       -4.1760 -100.0540    0.1650 H         1 NDP302      0.0000 
     62 H4D        -6.4280 -100.9370   -0.2760 H         1 NDP302      0.0000 
     63 H3D        -7.4830  -98.6960    1.0410 H         1 NDP302      0.0000 
     64 HO3N       -9.4450  -99.9890    0.7630 H         1 NDP302      0.0000 
     65 H2D        -6.9460  -99.4760    3.2180 H         1 NDP302      0.0000 
     66 HO2N       -9.2920  -99.2610    3.1380 H         1 NDP302      0.0000 
     67 H1D        -7.7410 -102.2690    2.3050 H         1 NDP302      0.0000 
     68 H2N        -4.8970 -100.5170    3.9680 H         1 NDP302      0.0000 
     69 H71N       -2.0110 -100.0250    6.1390 H         1 NDP302      0.0000 
     70 H72N       -3.0720 -100.1360    4.7520 H         1 NDP302      0.0000 
     71 H41N       -4.6380 -103.7560    6.5210 H         1 NDP302      0.0000 
     72 H42N       -5.7390 -102.6880    7.3880 H         1 NDP302      0.0000 
     73 H5N        -7.0480 -104.4330    6.1240 H         1 NDP302      0.0000 
     74 H6N        -7.8390 -103.5070    4.0200 H         1 NDP302      0.0000 
@<TRIPOS>BOND
     1    1    2 ar   
     2    1    3 ar   
     3    1    4 1    
     4    1   23 1    
     5    4    5 1    
     6    5    6 1    
     7    5   49 1    
     8    5   50 1    
     9    6    7 1    
    10    6    8 1    
    11    6   51 1    
    12    7   12 1    
    13    8    9 1    
    14    8   10 1    
    15    8   52 1    
    16    9   53 1    
    17   10   11 1    
    18   10   12 1    
    19   10   54 1    
    20   11   45 1    
    21   12   13 1    
    22   12   55 1    
    23   13   14 1    
    24   13   22 1    
    25   14   15 2    
    26   14   56 1    
    27   15   16 1    
    28   16   17 ar   
    29   16   22 ar   
    30   17   18 1    
    31   17   19 ar   
    32   18   57 1    
    33   18   58 1    
    34   19   20 ar   
    35   20   21 ar   
    36   20   59 1    
    37   21   22 ar   
    38   23   24 1    
    39   24   25 ar   
    40   24   26 ar   
    41   24   27 1    
    42   27   28 1    
    43   28   29 1    
    44   28   60 1    
    45   28   61 1    
    46   29   30 1    
    47   29   31 1    
    48   29   62 1    
    49   30   35 1    
    50   31   32 1    
    51   31   33 1    
    52   31   63 1    
    53   32   64 1    
    54   33   34 1    
    55   33   35 1    
    56   33   65 1    
    57   34   66 1    
    58   35   36 1    
    59   35   67 1    
    60   36   37 1    
    61   36   44 1    
    62   37   38 2    
    63   37   68 1    
    64   38   39 1    
    65   38   42 1    
    66   39   40 2    
    67   39   41 am   
    68   41   69 1    
    69   41   70 1    
    70   42   43 1    
    71   42   71 1    
    72   42   72 1    
    73   43   44 2    
    74   43   73 1    
    75   44   74 1    
    76   45   46 ar   
    77   45   47 ar   
    78   45   48 ar   
@<TRIPOS>SUBSTRUCTURE
     1 NDP302      1 GROUP   
@<TRIPOS>SET
ATOM$ORANGE STATIC     ATOMS   COLORGROUP SYSTEM 
42 5 5 6 6 8 8 10 10 12 12 14 14 16 16 17 17 20 \
20 22 22 28 28 29 29 31 31 33 33 35 35 37 37 38 38 39 \
39 42 42 43 43 44 44 

