#    Name: 5z2l_2_NDP_CAVITY_N1_6
#    Modification time : Fri May 22 19:27:45 2020

@<TRIPOS>MOLECULE
5z2l_2_NDP_CAVITY_N1_6
   73     0     6     0     0
SMALL
NO_CHARGES


@<TRIPOS>ATOM
      1 OG        -21.5900 -132.3300  -38.1100 O.3       1 SER1        0.0000 
      2 OG        -26.0200 -131.4300  -36.0300 O.3       1 SER1        0.0000 
      3 OG        -24.5800 -131.1500  -36.3200 O.3       1 SER1        0.0000 
      4 OG        -23.9200 -134.0300  -35.8200 O.3       1 SER1        0.0000 
      5 OG        -23.5900 -135.4700  -35.5700 O.3       1 SER1        0.0000 
      6 OG        -23.1400 -130.8700  -36.6200 O.3       1 SER1        0.0000 
      7 OG        -22.8000 -132.3100  -36.3700 O.3       1 SER1        0.0000 
      8 OG        -22.4700 -133.7500  -36.1200 O.3       1 SER1        0.0000 
      9 OG        -21.3600 -132.0300  -36.6600 O.3       1 SER1        0.0000 
     10 OG        -24.0200 -132.2800  -34.6200 O.3       1 SER1        0.0000 
     11 OG        -23.6800 -133.7300  -34.3700 O.3       1 SER1        0.0000 
     12 OG        -22.3400 -131.7000  -33.4700 O.3       1 SER1        0.0000 
     13 OG        -21.7700 -132.8300  -31.7700 O.3       1 SER1        0.0000 
     14 N         -22.1400 -135.1900  -35.8700 N.am      2 ALA2        0.0000 
     15 N         -21.6900 -130.5900  -36.9100 N.am      2 ALA2        0.0000 
     16 N         -20.7000 -134.9100  -36.1600 N.am      2 ALA2        0.0000 
     17 N         -20.2500 -130.3100  -37.2000 N.am      2 ALA2        0.0000 
     18 N         -19.9200 -131.7500  -36.9500 N.am      2 ALA2        0.0000 
     19 N         -18.8000 -130.0200  -37.4900 N.am      2 ALA2        0.0000 
     20 N         -18.4700 -131.4700  -37.2400 N.am      2 ALA2        0.0000 
     21 N         -18.1400 -132.9100  -36.9900 N.am      2 ALA2        0.0000 
     22 O         -26.9000 -132.8500  -34.0400 O.2       2 ALA2        0.0000 
     23 N         -24.8000 -135.4500  -33.8300 N.am      2 ALA2        0.0000 
     24 N         -23.3500 -135.1700  -34.1200 N.am      2 ALA2        0.0000 
     25 N         -23.0200 -136.6100  -33.8700 N.am      2 ALA2        0.0000 
     26 N         -20.0100 -130.0000  -35.7500 N.am      2 ALA2        0.0000 
     27 O         -18.5700 -129.7200  -36.0400 O.2       2 ALA2        0.0000 
     28 O         -18.2400 -131.1600  -35.7900 O.2       2 ALA2        0.0000 
     29 O         -28.4500 -131.3800  -32.5500 O.2       2 ALA2        0.0000 
     30 N         -27.3300 -129.6600  -33.0900 N.am      2 ALA2        0.0000 
     31 N         -25.5600 -130.8200  -33.1300 N.am      2 ALA2        0.0000 
     32 N         -23.1200 -134.8600  -32.6700 N.am      2 ALA2        0.0000 
     33 OD1       -21.2600 -133.7700  -37.8600 O.co2     3 ASP3        0.0000 
     34 OD1       -19.8200 -133.4900  -38.1500 O.co2     3 ASP3        0.0000 
     35 CZ        -23.3700 -131.1700  -38.0700 C.ar      4 PHE5        0.0000 
     36 CZ        -27.4700 -131.7100  -35.7400 C.ar      4 PHE5        0.0000 
     37 CZ        -26.3500 -129.9900  -36.2800 C.ar      4 PHE5        0.0000 
     38 CZ        -24.9100 -129.7100  -36.5700 C.ar      4 PHE5        0.0000 
     39 CZ        -26.1200 -129.6800  -34.8300 C.ar      4 PHE5        0.0000 
     40 CA        -21.9200 -130.8900  -38.3600 C.3       5 GLY6        0.0000 
     41 CA        -20.4800 -130.6100  -38.6500 C.3       5 GLY6        0.0000 
     42 CA        -20.1500 -132.0500  -38.4000 C.3       5 GLY6        0.0000 
     43 CA        -21.8100 -136.6300  -35.6200 C.3       5 GLY6        0.0000 
     44 CA        -19.5900 -133.1900  -36.7000 C.3       5 GLY6        0.0000 
     45 CA        -24.6800 -129.4000  -35.1200 C.3       5 GLY6        0.0000 
     46 CA        -24.3500 -130.8400  -34.8700 C.3       5 GLY6        0.0000 
     47 CA        -22.9000 -130.5600  -35.1700 C.3       5 GLY6        0.0000 
     48 CA        -21.9100 -134.8900  -34.4200 C.3       5 GLY6        0.0000 
     49 CA        -21.5800 -136.3300  -34.1700 C.3       5 GLY6        0.0000 
     50 CA        -21.4600 -130.2800  -35.4600 C.3       5 GLY6        0.0000 
     51 CA        -20.8000 -133.1600  -34.9600 C.3       5 GLY6        0.0000 
     52 CA        -20.4700 -134.6100  -34.7100 C.3       5 GLY6        0.0000 
     53 CA        -19.3500 -132.8800  -35.2500 C.3       5 GLY6        0.0000 
     54 CA        -27.0000 -131.1000  -32.8400 C.3       5 GLY6        0.0000 
     55 CA        -25.2300 -132.2600  -32.8800 C.3       5 GLY6        0.0000 
     56 CA        -24.1100 -130.5400  -33.4200 C.3       5 GLY6        0.0000 
     57 CA        -23.7800 -131.9800  -33.1700 C.3       5 GLY6        0.0000 
     58 CA        -22.6700 -130.2600  -33.7200 C.3       5 GLY6        0.0000 
     59 CA        -22.0100 -133.1400  -33.2200 C.3       5 GLY6        0.0000 
     60 CA        -21.6800 -134.5800  -32.9700 C.3       5 GLY6        0.0000 
     61 CA        -20.5600 -132.8600  -33.5100 C.3       5 GLY6        0.0000 
     62 CA        -23.5500 -131.6700  -31.7200 C.3       5 GLY6        0.0000 
     63 DU        -21.0300 -133.4700  -36.4100 H         6 CUB7        0.0000 
     64 DU        -28.6800 -131.6900  -34.0000 H         6 CUB7        0.0000 
     65 DU        -27.2400 -131.4000  -34.2900 H         6 CUB7        0.0000 
     66 DU        -25.7900 -131.1200  -34.5800 H         6 CUB7        0.0000 
     67 DU        -25.4600 -132.5700  -34.3300 H         6 CUB7        0.0000 
     68 DU        -25.1300 -134.0100  -34.0800 H         6 CUB7        0.0000 
     69 DU        -22.5700 -132.0000  -34.9200 H         6 CUB7        0.0000 
     70 DU        -22.2400 -133.4400  -34.6700 H         6 CUB7        0.0000 
     71 DU        -21.1300 -131.7200  -35.2100 H         6 CUB7        0.0000 
     72 DU        -19.6800 -131.4400  -35.5000 H         6 CUB7        0.0000 
     73 DU        -23.4500 -133.4200  -32.9200 H         6 CUB7        0.0000 
@<TRIPOS>BOND
@<TRIPOS>SUBSTRUCTURE
     1 SER1        1 GROUP   
     2 ALA2       14 GROUP   
     3 ASP3       33 GROUP   
     4 PHE5       35 GROUP   
     5 GLY6       40 GROUP   
     6 CUB7       63 GROUP   
@<TRIPOS>SET

