#    Name: 5z2l_4_NDP_CAVITY_N1_4
#    Modification time : Fri May 22 19:27:57 2020

@<TRIPOS>MOLECULE
5z2l_4_NDP_CAVITY_N1_4
   76     0     5     0     0
SMALL
NO_CHARGES


@<TRIPOS>ATOM
      1 OG        -51.9100 -159.3600  -36.8500 O.3       1 SER1        0.0000 
      2 OG        -50.8000 -157.6400  -37.3900 O.3       1 SER1        0.0000 
      3 OG        -49.6900 -155.9200  -37.9300 O.3       1 SER1        0.0000 
      4 OG        -49.3500 -157.3600  -37.6800 O.3       1 SER1        0.0000 
      5 OG        -46.4700 -156.8000  -38.2700 O.3       1 SER1        0.0000 
      6 OG        -46.1400 -158.2400  -38.0200 O.3       1 SER1        0.0000 
      7 OG        -45.8000 -159.6800  -37.7700 O.3       1 SER1        0.0000 
      8 OG        -45.3500 -155.0800  -38.8100 O.3       1 SER1        0.0000 
      9 OG        -45.0200 -156.5200  -38.5600 O.3       1 SER1        0.0000 
     10 OG        -49.4500 -155.6100  -36.4800 O.3       1 SER1        0.0000 
     11 OG        -47.3500 -158.2200  -36.2800 O.3       1 SER1        0.0000 
     12 OG        -46.5600 -155.0500  -37.0700 O.3       1 SER1        0.0000 
     13 OG        -46.2300 -156.4900  -36.8200 O.3       1 SER1        0.0000 
     14 OG        -45.5700 -159.3800  -36.3200 O.3       1 SER1        0.0000 
     15 OG        -47.1100 -157.9100  -34.8300 O.3       1 SER1        0.0000 
     16 OG        -46.3300 -154.7500  -35.6200 O.3       1 SER1        0.0000 
     17 OG        -46.0000 -156.1900  -35.3700 O.3       1 SER1        0.0000 
     18 OG        -45.6700 -157.6300  -35.1200 O.3       1 SER1        0.0000 
     19 O         -50.2700 -162.5800  -39.5400 O.2       2 ALA2        0.0000 
     20 N         -49.4900 -159.4100  -40.3300 N.am      2 ALA2        0.0000 
     21 O         -49.1600 -160.8500  -40.0800 O.2       2 ALA2        0.0000 
     22 N         -48.0500 -159.1300  -40.6300 N.am      2 ALA2        0.0000 
     23 N         -47.7200 -160.5700  -40.3800 N.am      2 ALA2        0.0000 
     24 N         -46.2700 -160.2900  -40.6700 N.am      2 ALA2        0.0000 
     25 N         -50.0400 -162.2700  -38.0900 N.am      2 ALA2        0.0000 
     26 N         -48.6000 -161.9900  -38.3800 N.am      2 ALA2        0.0000 
     27 N         -47.4800 -160.2700  -38.9300 N.am      2 ALA2        0.0000 
     28 O         -47.1500 -161.7100  -38.6800 O.2       2 ALA2        0.0000 
     29 N         -46.3700 -158.5500  -39.4700 N.am      2 ALA2        0.0000 
     30 N         -45.2600 -156.8200  -40.0100 N.am      2 ALA2        0.0000 
     31 N         -44.9200 -158.2600  -39.7600 N.am      2 ALA2        0.0000 
     32 N         -48.6900 -160.2400  -37.1800 N.am      2 ALA2        0.0000 
     33 N         -47.2500 -159.9600  -37.4800 N.am      2 ALA2        0.0000 
     34 N         -48.4600 -159.9400  -35.7300 N.am      2 ALA2        0.0000 
     35 O         -48.3400 -153.8900  -37.0300 O.2       2 ALA2        0.0000 
     36 N         -47.0200 -159.6600  -36.0300 N.am      2 ALA2        0.0000 
     37 N         -46.6800 -161.1000  -35.7800 N.am      2 ALA2        0.0000 
     38 N         -46.8900 -153.6100  -37.3200 N.am      2 ALA2        0.0000 
     39 O         -46.7800 -159.3500  -34.5800 O.2       2 ALA2        0.0000 
     40 O         -46.6600 -153.3100  -35.8700 O.2       2 ALA2        0.0000 
     41 O         -47.5400 -154.7200  -33.8800 O.2       2 ALA2        0.0000 
     42 O         -46.4300 -153.0000  -34.4200 O.2       2 ALA2        0.0000 
     43 OD1       -46.0400 -159.9900  -39.2200 O.co2     3 ASP3        0.0000 
     44 CA        -46.9300 -157.4100  -41.1700 C.3       4 GLY6        0.0000 
     45 CA        -46.6000 -158.8500  -40.9200 C.3       4 GLY6        0.0000 
     46 CA        -52.1500 -159.6700  -38.3000 C.3       4 GLY6        0.0000 
     47 CA        -51.0300 -157.9500  -38.8400 C.3       4 GLY6        0.0000 
     48 CA        -49.5900 -157.6700  -39.1300 C.3       4 GLY6        0.0000 
     49 CA        -49.2600 -159.1100  -38.8800 C.3       4 GLY6        0.0000 
     50 CA        -48.1400 -157.3800  -39.4300 C.3       4 GLY6        0.0000 
     51 CA        -47.0300 -155.6600  -39.9700 C.3       4 GLY6        0.0000 
     52 CA        -46.7000 -157.1000  -39.7200 C.3       4 GLY6        0.0000 
     53 CA        -45.7100 -161.4300  -38.9700 C.3       4 GLY6        0.0000 
     54 CA        -50.4700 -159.0800  -37.1400 C.3       4 GLY6        0.0000 
     55 CA        -48.2400 -155.6400  -38.2300 C.3       4 GLY6        0.0000 
     56 CA        -45.4700 -161.1200  -37.5200 C.3       4 GLY6        0.0000 
     57 CA        -49.9000 -160.2200  -35.4400 C.3       4 GLY6        0.0000 
     58 CA        -49.1200 -157.0600  -36.2300 C.3       4 GLY6        0.0000 
     59 CA        -48.7900 -158.5000  -35.9800 C.3       4 GLY6        0.0000 
     60 CA        -49.2200 -155.3100  -35.0300 C.3       4 GLY6        0.0000 
     61 CA        -48.8900 -156.7500  -34.7800 C.3       4 GLY6        0.0000 
     62 CA        -48.5600 -158.1900  -34.5300 C.3       4 GLY6        0.0000 
     63 CA        -47.7700 -155.0300  -35.3300 C.3       4 GLY6        0.0000 
     64 DU        -50.7000 -159.3900  -38.5900 H         5 CUB7        0.0000 
     65 DU        -50.3700 -160.8300  -38.3400 H         5 CUB7        0.0000 
     66 DU        -48.9300 -160.5500  -38.6300 H         5 CUB7        0.0000 
     67 DU        -47.8100 -158.8300  -39.1800 H         5 CUB7        0.0000 
     68 DU        -51.5800 -160.8100  -36.6000 H         5 CUB7        0.0000 
     69 DU        -50.1400 -160.5200  -36.8900 H         5 CUB7        0.0000 
     70 DU        -49.0200 -158.8000  -37.4300 H         5 CUB7        0.0000 
     71 DU        -47.9100 -157.0800  -37.9800 H         5 CUB7        0.0000 
     72 DU        -47.5800 -158.5200  -37.7300 H         5 CUB7        0.0000 
     73 DU        -46.8000 -155.3600  -38.5200 H         5 CUB7        0.0000 
     74 DU        -48.0100 -155.3300  -36.7800 H         5 CUB7        0.0000 
     75 DU        -47.6800 -156.7700  -36.5300 H         5 CUB7        0.0000 
     76 DU        -47.4400 -156.4700  -35.0800 H         5 CUB7        0.0000 
@<TRIPOS>BOND
@<TRIPOS>SUBSTRUCTURE
     1 SER1        1 GROUP   
     2 ALA2       19 GROUP   
     3 ASP3       43 GROUP   
     4 GLY6       44 GROUP   
     5 CUB7       64 GROUP   
@<TRIPOS>SET

