#    Name: 5z2l_1_NDP
#    Modification time : Fri May 22 19:27:36 2020

@<TRIPOS>MOLECULE
5z2l_1_NDP
   74    78     1     0     1
SMALL
NO_CHARGES


@<TRIPOS>ATOM
      1 PA        -29.2720 -141.3680  -69.8620 P.3       1 NDP302      0.0000 
      2 O1A       -29.6560 -142.4550  -70.8230 O.co2     1 NDP302      0.0000 
      3 O2A       -27.8830 -140.7840  -69.8120 O.co2     1 NDP302      0.0000 
      4 O5B       -30.3760 -140.2220  -69.8750 O.3       1 NDP302      0.0000 
      5 C5B       -30.1060 -139.0700  -69.1120 C.3       1 NDP302      0.0000 
      6 C4B       -31.3510 -138.2260  -69.1100 C.3       1 NDP302      0.0000 
      7 O4B       -31.1850 -137.2350  -68.1060 O.3       1 NDP302      0.0000 
      8 C3B       -31.5080 -137.5250  -70.4610 C.3       1 NDP302      0.0000 
      9 O3B       -32.8880 -137.3900  -70.8130 O.3       1 NDP302      0.0000 
     10 C2B       -30.9060 -136.1700  -70.1870 C.3       1 NDP302      0.0000 
     11 O2B       -31.4220 -135.1390  -71.0350 O.3       1 NDP302      0.0000 
     12 C1B       -31.2490 -135.9530  -68.7130 C.3       1 NDP302      0.0000 
     13 N9A       -30.2570 -135.0190  -68.1750 N.pl3     1 NDP302      0.0000 
     14 C8A       -28.9590 -135.2660  -67.9340 C.2       1 NDP302      0.0000 
     15 N7A       -28.3440 -134.1390  -67.4880 N.2       1 NDP302      0.0000 
     16 C5A       -29.2600 -133.1450  -67.4700 C.ar      1 NDP302      0.0000 
     17 C6A       -29.2910 -131.7100  -67.1130 C.ar      1 NDP302      0.0000 
     18 N6A       -28.1870 -131.0750  -66.6760 N.pl3     1 NDP302      0.0000 
     19 N1A       -30.4600 -131.0520  -67.2250 N.ar      1 NDP302      0.0000 
     20 C2A       -31.5790 -131.6620  -67.6600 C.ar      1 NDP302      0.0000 
     21 N3A       -31.6140 -132.9590  -68.0050 N.ar      1 NDP302      0.0000 
     22 C4A       -30.5170 -133.7330  -67.9300 C.ar      1 NDP302      0.0000 
     23 O3        -29.5350 -141.8340  -68.3270 O.3       1 NDP302      0.0000 
     24 PN        -30.4220 -143.0640  -67.8490 P.3       1 NDP302      0.0000 
     25 O1N       -29.5520 -144.2890  -67.9680 O.co2     1 NDP302      0.0000 
     26 O2N       -31.8350 -143.0300  -68.3880 O.co2     1 NDP302      0.0000 
     27 O5D       -30.4950 -142.6410  -66.2970 O.3       1 NDP302      0.0000 
     28 C5D       -31.5590 -141.8380  -65.7890 C.3       1 NDP302      0.0000 
     29 C4D       -31.4370 -141.7900  -64.2820 C.3       1 NDP302      0.0000 
     30 O4D       -31.3610 -143.1580  -63.8690 O.3       1 NDP302      0.0000 
     31 C3D       -30.1700 -141.1070  -63.7830 C.3       1 NDP302      0.0000 
     32 O3D       -30.4730 -140.3380  -62.6130 O.3       1 NDP302      0.0000 
     33 C2D       -29.2370 -142.2480  -63.4460 C.3       1 NDP302      0.0000 
     34 O2D       -28.2600 -141.9320  -62.4390 O.3       1 NDP302      0.0000 
     35 C1D       -30.2360 -143.2950  -63.0010 C.3       1 NDP302      0.0000 
     36 N1N       -29.7490 -144.6720  -63.0610 N.pl3     1 NDP302      0.0000 
     37 C2N       -29.5520 -145.3030  -64.2270 C.2       1 NDP302      0.0000 
     38 C3N       -29.1100 -146.6220  -64.2710 C.2       1 NDP302      0.0000 
     39 C7N       -28.8620 -147.3860  -65.5340 C.2       1 NDP302      0.0000 
     40 O7N       -28.3230 -148.4670  -65.4520 O.2       1 NDP302      0.0000 
     41 N7N       -29.2150 -146.9160  -66.7420 N.am      1 NDP302      0.0000 
     42 C4N       -28.8500 -147.3720  -62.9980 C.3       1 NDP302      0.0000 
     43 C5N       -29.1090 -146.5870  -61.8130 C.2       1 NDP302      0.0000 
     44 C6N       -29.5480 -145.2830  -61.8820 C.2       1 NDP302      0.0000 
     45 P2B       -30.4850 -134.4410  -72.1680 P.3       1 NDP302      0.0000 
     46 O1X       -31.4910 -133.6300  -72.9510 O.co2     1 NDP302      0.0000 
     47 O2X       -29.4540 -133.6140  -71.4380 O.co2     1 NDP302      0.0000 
     48 O3X       -29.8810 -135.5830  -72.9420 O.co2     1 NDP302      0.0000 
     49 H51A      -29.8390 -139.3490  -68.0900 H         1 NDP302      0.0000 
     50 H52A      -29.2750 -138.5140  -69.5500 H         1 NDP302      0.0000 
     51 H4B       -32.2300 -138.8530  -68.9060 H         1 NDP302      0.0000 
     52 H3B       -30.9360 -138.0500  -71.2380 H         1 NDP302      0.0000 
     53 HO3A      -33.2630 -138.2650  -70.9870 H         1 NDP302      0.0000 
     54 H2B       -29.8150 -136.2370  -70.2930 H         1 NDP302      0.0000 
     55 H1B       -32.2610 -135.5340  -68.6310 H         1 NDP302      0.0000 
     56 H8A       -28.4750 -136.2260  -68.0640 H         1 NDP302      0.0000 
     57 H61A      -28.2320 -130.0970  -66.4280 H         1 NDP302      0.0000 
     58 H62A      -27.3180 -131.5810  -66.5820 H         1 NDP302      0.0000 
     59 H2A       -32.4880 -131.0790  -67.7420 H         1 NDP302      0.0000 
     60 H51N      -31.4960 -140.8290  -66.2020 H         1 NDP302      0.0000 
     61 H52N      -32.5210 -142.2690  -66.0740 H         1 NDP302      0.0000 
     62 H4D       -32.3200 -141.3000  -63.8510 H         1 NDP302      0.0000 
     63 H3D       -29.7370 -140.4820  -64.5770 H         1 NDP302      0.0000 
     64 HO3N      -29.6690 -139.9040  -62.2960 H         1 NDP302      0.0000 
     65 H2D       -28.7410 -142.5910  -64.3650 H         1 NDP302      0.0000 
     66 HO2N      -27.6960 -141.2120  -62.7510 H         1 NDP302      0.0000 
     67 H1D       -30.5410 -143.0630  -61.9710 H         1 NDP302      0.0000 
     68 H2N       -29.7390 -144.7750  -65.1540 H         1 NDP302      0.0000 
     69 H71N      -29.0300 -147.4620  -67.5710 H         1 NDP302      0.0000 
     70 H72N      -29.6650 -146.0150  -66.8210 H         1 NDP302      0.0000 
     71 H41N      -29.4770 -148.2660  -62.9760 H         1 NDP302      0.0000 
     72 H42N      -27.8090 -147.7020  -62.9850 H         1 NDP302      0.0000 
     73 H5N       -28.9490 -147.0370  -60.8410 H         1 NDP302      0.0000 
     74 H6N       -29.7280 -144.7360  -60.9650 H         1 NDP302      0.0000 
@<TRIPOS>BOND
     1    1    2 ar   
     2    1    3 ar   
     3    1    4 1    
     4    1   23 1    
     5    4    5 1    
     6    5    6 1    
     7    5   49 1    
     8    5   50 1    
     9    6    7 1    
    10    6    8 1    
    11    6   51 1    
    12    7   12 1    
    13    8    9 1    
    14    8   10 1    
    15    8   52 1    
    16    9   53 1    
    17   10   11 1    
    18   10   12 1    
    19   10   54 1    
    20   11   45 1    
    21   12   13 1    
    22   12   55 1    
    23   13   14 1    
    24   13   22 1    
    25   14   15 2    
    26   14   56 1    
    27   15   16 1    
    28   16   17 ar   
    29   16   22 ar   
    30   17   18 1    
    31   17   19 ar   
    32   18   57 1    
    33   18   58 1    
    34   19   20 ar   
    35   20   21 ar   
    36   20   59 1    
    37   21   22 ar   
    38   23   24 1    
    39   24   25 ar   
    40   24   26 ar   
    41   24   27 1    
    42   27   28 1    
    43   28   29 1    
    44   28   60 1    
    45   28   61 1    
    46   29   30 1    
    47   29   31 1    
    48   29   62 1    
    49   30   35 1    
    50   31   32 1    
    51   31   33 1    
    52   31   63 1    
    53   32   64 1    
    54   33   34 1    
    55   33   35 1    
    56   33   65 1    
    57   34   66 1    
    58   35   36 1    
    59   35   67 1    
    60   36   37 1    
    61   36   44 1    
    62   37   38 2    
    63   37   68 1    
    64   38   39 1    
    65   38   42 1    
    66   39   40 2    
    67   39   41 am   
    68   41   69 1    
    69   41   70 1    
    70   42   43 1    
    71   42   71 1    
    72   42   72 1    
    73   43   44 2    
    74   43   73 1    
    75   44   74 1    
    76   45   46 ar   
    77   45   47 ar   
    78   45   48 ar   
@<TRIPOS>SUBSTRUCTURE
     1 NDP302      1 GROUP   
@<TRIPOS>SET
ATOM$ORANGE STATIC     ATOMS   COLORGROUP SYSTEM 
42 5 5 6 6 8 8 10 10 12 12 14 14 16 16 17 17 20 \
20 22 22 28 28 29 29 31 31 33 33 35 35 37 37 38 38 39 \
39 42 42 43 43 44 44 

