#    Name: 5z2l_4_NDP
#    Modification time : Fri May 22 19:27:54 2020

@<TRIPOS>MOLECULE
5z2l_4_NDP
   74    78     1     0     1
SMALL
NO_CHARGES


@<TRIPOS>ATOM
      1 PA        -52.3610 -160.6660  -36.3560 P.3       1 NDP301      0.0000 
      2 O1A       -53.5000 -159.6810  -36.4280 O.co2     1 NDP301      0.0000 
      3 O2A       -51.8420 -161.2080  -35.0380 O.co2     1 NDP301      0.0000 
      4 O5B       -52.6360 -161.8620  -37.3610 O.3       1 NDP301      0.0000 
      5 C5B       -51.6490 -162.8820  -37.4580 C.3       1 NDP301      0.0000 
      6 C4B       -52.0250 -163.8620  -38.5400 C.3       1 NDP301      0.0000 
      7 O4B       -50.9360 -164.7850  -38.6390 O.3       1 NDP301      0.0000 
      8 C3B       -53.2790 -164.6580  -38.2030 C.3       1 NDP301      0.0000 
      9 O3B       -53.9930 -164.9820  -39.4010 O.3       1 NDP301      0.0000 
     10 C2B       -52.7110 -165.9180  -37.6100 C.3       1 NDP301      0.0000 
     11 O2B       -53.5500 -167.0730  -37.6970 O.3       1 NDP301      0.0000 
     12 C1B       -51.4210 -166.0890  -38.4300 C.3       1 NDP301      0.0000 
     13 N9A       -50.5260 -166.9330  -37.6210 N.pl3     1 NDP301      0.0000 
     14 C8A       -49.8890 -166.5720  -36.4850 C.2       1 NDP301      0.0000 
     15 N7A       -49.2030 -167.6300  -35.9740 N.2       1 NDP301      0.0000 
     16 C5A       -49.4320 -168.6870  -36.7770 C.ar      1 NDP301      0.0000 
     17 C6A       -49.0230 -170.0960  -36.8380 C.ar      1 NDP301      0.0000 
     18 N6A       -48.2200 -170.6110  -35.8870 N.pl3     1 NDP301      0.0000 
     19 N1A       -49.4780 -170.8630  -37.8520 N.ar      1 NDP301      0.0000 
     20 C2A       -50.2850 -170.3640  -38.8230 C.ar      1 NDP301      0.0000 
     21 N3A       -50.6950 -169.0800  -38.8260 N.ar      1 NDP301      0.0000 
     22 C4A       -50.3070 -168.2210  -37.8590 C.ar      1 NDP301      0.0000 
     23 O3        -51.0660 -160.0350  -37.0830 O.3       1 NDP301      0.0000 
     24 PN        -50.9230 -158.9080  -38.1900 P.3       1 NDP301      0.0000 
     25 O1N       -50.7860 -157.5950  -37.4800 O.co2     1 NDP301      0.0000 
     26 O2N       -51.9310 -159.0560  -39.3170 O.co2     1 NDP301      0.0000 
     27 O5D       -49.4430 -159.2660  -38.7630 O.3       1 NDP301      0.0000 
     28 C5D       -49.2450 -160.1220  -39.8800 C.3       1 NDP301      0.0000 
     29 C4D       -47.7610 -160.0460  -40.2630 C.3       1 NDP301      0.0000 
     30 O4D       -47.4060 -158.6830  -40.4110 O.3       1 NDP301      0.0000 
     31 C3D       -46.8480 -160.6030  -39.1700 C.3       1 NDP301      0.0000 
     32 O3D       -45.7700 -161.2810  -39.8160 O.3       1 NDP301      0.0000 
     33 C2D       -46.3660 -159.3640  -38.4410 C.3       1 NDP301      0.0000 
     34 O2D       -45.0970 -159.5500  -37.7950 O.3       1 NDP301      0.0000 
     35 C1D       -46.2870 -158.3770  -39.5790 C.3       1 NDP301      0.0000 
     36 N1N       -46.3430 -156.9740  -39.1840 N.pl3     1 NDP301      0.0000 
     37 C2N       -47.4440 -156.4210  -38.6200 C.2       1 NDP301      0.0000 
     38 C3N       -47.4490 -155.0570  -38.2940 C.2       1 NDP301      0.0000 
     39 C7N       -48.5990 -154.3190  -37.6670 C.2       1 NDP301      0.0000 
     40 O7N       -48.4320 -153.1630  -37.2840 O.2       1 NDP301      0.0000 
     41 N7N       -49.7650 -154.9150  -37.5690 N.am      1 NDP301      0.0000 
     42 C4N       -46.2670 -154.1720  -38.5570 C.3       1 NDP301      0.0000 
     43 C5N       -45.1760 -154.8940  -39.1770 C.2       1 NDP301      0.0000 
     44 C6N       -45.2660 -156.2380  -39.4690 C.2       1 NDP301      0.0000 
     45 P2B       -54.3190 -167.7080  -36.4330 P.3       1 NDP301      0.0000 
     46 O1X       -55.3590 -168.5780  -37.1100 O.co2     1 NDP301      0.0000 
     47 O2X       -53.2810 -168.5700  -35.7360 O.co2     1 NDP301      0.0000 
     48 O3X       -54.7960 -166.5480  -35.6080 O.co2     1 NDP301      0.0000 
     49 H51A      -50.6790 -162.4360  -37.6870 H         1 NDP301      0.0000 
     50 H52A      -51.5650 -163.4040  -36.5030 H         1 NDP301      0.0000 
     51 H4B       -52.1700 -163.3280  -39.4900 H         1 NDP301      0.0000 
     52 H3B       -53.9030 -164.1240  -37.4730 H         1 NDP301      0.0000 
     53 HO3A      -54.3610 -164.1740  -39.7850 H         1 NDP301      0.0000 
     54 H2B       -52.4420 -165.7260  -36.5610 H         1 NDP301      0.0000 
     55 H1B       -51.6560 -166.5750  -39.3870 H         1 NDP301      0.0000 
     56 H8A       -49.9120 -165.5800  -36.0500 H         1 NDP301      0.0000 
     57 H61A      -47.9370 -171.5790  -35.9340 H         1 NDP301      0.0000 
     58 H62A      -47.8840 -170.0230  -35.1370 H         1 NDP301      0.0000 
     59 H2A       -50.6250 -171.0240  -39.6120 H         1 NDP301      0.0000 
     60 H51N      -49.5150 -161.1480  -39.6200 H         1 NDP301      0.0000 
     61 H52N      -49.8670 -159.7990  -40.7170 H         1 NDP301      0.0000 
     62 H4D       -47.5930 -160.5950  -41.2000 H         1 NDP301      0.0000 
     63 H3D       -47.4080 -161.2640  -38.4930 H         1 NDP301      0.0000 
     64 HO3N      -45.1730 -161.6460  -39.1490 H         1 NDP301      0.0000 
     65 H2D       -47.1300 -159.0380  -37.7210 H         1 NDP301      0.0000 
     66 HO2N      -45.1730 -160.2470  -37.1290 H         1 NDP301      0.0000 
     67 H1D       -45.3570 -158.5640  -40.1330 H         1 NDP301      0.0000 
     68 H2N       -48.3170 -157.0300  -38.4230 H         1 NDP301      0.0000 
     69 H71N      -50.5480 -154.4280  -37.1560 H         1 NDP301      0.0000 
     70 H72N      -49.8780 -155.8620  -37.8990 H         1 NDP301      0.0000 
     71 H41N      -46.5710 -153.3490  -39.2070 H         1 NDP301      0.0000 
     72 H42N      -45.9230 -153.7410  -37.6140 H         1 NDP301      0.0000 
     73 H5N       -44.2620 -154.3630  -39.4150 H         1 NDP301      0.0000 
     74 H6N       -44.4120 -156.7260  -39.9230 H         1 NDP301      0.0000 
@<TRIPOS>BOND
     1    1    2 ar   
     2    1    3 ar   
     3    1    4 1    
     4    1   23 1    
     5    4    5 1    
     6    5    6 1    
     7    5   49 1    
     8    5   50 1    
     9    6    7 1    
    10    6    8 1    
    11    6   51 1    
    12    7   12 1    
    13    8    9 1    
    14    8   10 1    
    15    8   52 1    
    16    9   53 1    
    17   10   11 1    
    18   10   12 1    
    19   10   54 1    
    20   11   45 1    
    21   12   13 1    
    22   12   55 1    
    23   13   14 1    
    24   13   22 1    
    25   14   15 2    
    26   14   56 1    
    27   15   16 1    
    28   16   17 ar   
    29   16   22 ar   
    30   17   18 1    
    31   17   19 ar   
    32   18   57 1    
    33   18   58 1    
    34   19   20 ar   
    35   20   21 ar   
    36   20   59 1    
    37   21   22 ar   
    38   23   24 1    
    39   24   25 ar   
    40   24   26 ar   
    41   24   27 1    
    42   27   28 1    
    43   28   29 1    
    44   28   60 1    
    45   28   61 1    
    46   29   30 1    
    47   29   31 1    
    48   29   62 1    
    49   30   35 1    
    50   31   32 1    
    51   31   33 1    
    52   31   63 1    
    53   32   64 1    
    54   33   34 1    
    55   33   35 1    
    56   33   65 1    
    57   34   66 1    
    58   35   36 1    
    59   35   67 1    
    60   36   37 1    
    61   36   44 1    
    62   37   38 2    
    63   37   68 1    
    64   38   39 1    
    65   38   42 1    
    66   39   40 2    
    67   39   41 am   
    68   41   69 1    
    69   41   70 1    
    70   42   43 1    
    71   42   71 1    
    72   42   72 1    
    73   43   44 2    
    74   43   73 1    
    75   44   74 1    
    76   45   46 ar   
    77   45   47 ar   
    78   45   48 ar   
@<TRIPOS>SUBSTRUCTURE
     1 NDP301      1 GROUP   
@<TRIPOS>SET
ATOM$ORANGE STATIC     ATOMS   COLORGROUP SYSTEM 
42 5 5 6 6 8 8 10 10 12 12 14 14 16 16 17 17 20 \
20 22 22 28 28 29 29 31 31 33 33 35 35 37 37 38 38 39 \
39 42 42 43 43 44 44 

