#    Name: 5z2l_2_NDP
#    Modification time : Fri May 22 19:27:42 2020

@<TRIPOS>MOLECULE
5z2l_2_NDP
   74    78     1     0     1
SMALL
NO_CHARGES


@<TRIPOS>ATOM
      1 PA        -19.3640 -127.4380  -33.6230 P.3       1 NDP302      0.0000 
      2 O1A       -19.1760 -127.4860  -32.1250 O.co2     1 NDP302      0.0000 
      3 O2A       -20.3500 -126.5050  -34.2990 O.co2     1 NDP302      0.0000 
      4 O5B       -17.9120 -127.2080  -34.2580 O.3       1 NDP302      0.0000 
      5 C5B       -17.7830 -127.1980  -35.6810 C.3       1 NDP302      0.0000 
      6 C4B       -16.3190 -127.2510  -36.0490 C.3       1 NDP302      0.0000 
      7 O4B       -16.2160 -127.3340  -37.4740 O.3       1 NDP302      0.0000 
      8 C3B       -15.6050 -125.9890  -35.5930 C.3       1 NDP302      0.0000 
      9 O3B       -14.2400 -126.2700  -35.2690 O.3       1 NDP302      0.0000 
     10 C2B       -15.6620 -125.1370  -36.8400 C.3       1 NDP302      0.0000 
     11 O2B       -14.6380 -124.1610  -36.9060 O.3       1 NDP302      0.0000 
     12 C1B       -15.4940 -126.1850  -37.9270 C.3       1 NDP302      0.0000 
     13 N9A       -16.0400 -125.6140  -39.1610 N.pl3     1 NDP302      0.0000 
     14 C8A       -17.3420 -125.3830  -39.4090 C.2       1 NDP302      0.0000 
     15 N7A       -17.4930 -124.8160  -40.6290 N.2       1 NDP302      0.0000 
     16 C5A       -16.2670 -124.6740  -41.1560 C.ar      1 NDP302      0.0000 
     17 C6A       -15.7280 -124.1370  -42.4080 C.ar      1 NDP302      0.0000 
     18 N6A       -16.5850 -123.6450  -43.3270 N.pl3     1 NDP302      0.0000 
     19 N1A       -14.3930 -124.1640  -42.5790 N.ar      1 NDP302      0.0000 
     20 C2A       -13.5540 -124.6610  -41.6440 C.ar      1 NDP302      0.0000 
     21 N3A       -13.9800 -125.1700  -40.4740 N.ar      1 NDP302      0.0000 
     22 C4A       -15.3030 -125.1870  -40.1840 C.ar      1 NDP302      0.0000 
     23 O3        -19.6590 -128.8950  -34.2650 O.3       1 NDP302      0.0000 
     24 PN        -19.5750 -130.3390  -33.5500 P.3       1 NDP302      0.0000 
     25 O1N       -20.8320 -130.6020  -32.7880 O.co2     1 NDP302      0.0000 
     26 O2N       -18.2250 -130.5190  -32.8790 O.co2     1 NDP302      0.0000 
     27 O5D       -19.5960 -131.2270  -34.8910 O.3       1 NDP302      0.0000 
     28 C5D       -18.3940 -131.6350  -35.5330 C.3       1 NDP302      0.0000 
     29 C4D       -18.7960 -132.6020  -36.6230 C.3       1 NDP302      0.0000 
     30 O4D       -19.5190 -133.6700  -36.0000 O.3       1 NDP302      0.0000 
     31 C3D       -19.7390 -132.0090  -37.6600 C.3       1 NDP302      0.0000 
     32 O3D       -19.4340 -132.5600  -38.9380 O.3       1 NDP302      0.0000 
     33 C2D       -21.1150 -132.4810  -37.2570 C.3       1 NDP302      0.0000 
     34 O2D       -22.0100 -132.5970  -38.3670 O.3       1 NDP302      0.0000 
     35 C1D       -20.7700 -133.8420  -36.6630 C.3       1 NDP302      0.0000 
     36 N1N       -21.7680 -134.3540  -35.7340 N.pl3     1 NDP302      0.0000 
     37 C2N       -21.9680 -133.7760  -34.5440 C.2       1 NDP302      0.0000 
     38 C3N       -22.9120 -134.2870  -33.6540 C.2       1 NDP302      0.0000 
     39 C7N       -23.1820 -133.6920  -32.3040 C.2       1 NDP302      0.0000 
     40 O7N       -24.1680 -134.0680  -31.6920 O.2       1 NDP302      0.0000 
     41 N7N       -22.3460 -132.8070  -31.7730 N.am      1 NDP302      0.0000 
     42 C4N       -23.7230 -135.5060  -34.0070 C.3       1 NDP302      0.0000 
     43 C5N       -23.4040 -136.0340  -35.3120 C.2       1 NDP302      0.0000 
     44 C6N       -22.4430 -135.4440  -36.1160 C.2       1 NDP302      0.0000 
     45 P2B       -14.9550 -122.5560  -36.9160 P.3       1 NDP302      0.0000 
     46 O1X       -13.5390 -122.0620  -36.7390 O.co2     1 NDP302      0.0000 
     47 O2X       -15.5330 -122.3210  -38.2830 O.co2     1 NDP302      0.0000 
     48 O3X       -15.8880 -122.3130  -35.7710 O.co2     1 NDP302      0.0000 
     49 H51A      -18.3030 -128.0590  -36.1060 H         1 NDP302      0.0000 
     50 H52A      -18.2350 -126.2900  -36.0870 H         1 NDP302      0.0000 
     51 H4B       -15.8530 -128.1270  -35.5760 H         1 NDP302      0.0000 
     52 H3B       -16.1430 -125.5100  -34.7630 H         1 NDP302      0.0000 
     53 HO3A      -14.2030 -126.8140  -34.4710 H         1 NDP302      0.0000 
     54 H2B       -16.6540 -124.6720  -36.9260 H         1 NDP302      0.0000 
     55 H1B       -14.4270 -126.4200  -38.0460 H         1 NDP302      0.0000 
     56 H8A       -18.1530 -125.6260  -38.7340 H         1 NDP302      0.0000 
     57 H61A      -16.2340 -123.2790  -44.2010 H         1 NDP302      0.0000 
     58 H62A      -17.5790 -123.6540  -43.1470 H         1 NDP302      0.0000 
     59 H2A       -12.4900 -124.6520  -41.8460 H         1 NDP302      0.0000 
     60 H51N      -17.8800 -130.7720  -35.9610 H         1 NDP302      0.0000 
     61 H52N      -17.7290 -132.1230  -34.8180 H         1 NDP302      0.0000 
     62 H4D       -17.8960 -132.9860  -37.1230 H         1 NDP302      0.0000 
     63 H3D       -19.6850 -130.9110  -37.6580 H         1 NDP302      0.0000 
     64 HO3N      -20.0300 -132.1860  -39.6020 H         1 NDP302      0.0000 
     65 H2D       -21.5250 -131.8240  -36.4770 H         1 NDP302      0.0000 
     66 HO2N      -22.1260 -131.7290  -38.7790 H         1 NDP302      0.0000 
     67 H1D       -20.6460 -134.5550  -37.4910 H         1 NDP302      0.0000 
     68 H2N       -21.3890 -132.9040  -34.2680 H         1 NDP302      0.0000 
     69 H71N      -22.5330 -132.4200  -30.8590 H         1 NDP302      0.0000 
     70 H72N      -21.5270 -132.5140  -32.2870 H         1 NDP302      0.0000 
     71 H41N      -23.5490 -136.2800  -33.2570 H         1 NDP302      0.0000 
     72 H42N      -24.7850 -135.2510  -33.9750 H         1 NDP302      0.0000 
     73 H5N       -23.9310 -136.9080  -35.6720 H         1 NDP302      0.0000 
     74 H6N       -22.2390 -135.8720  -37.0890 H         1 NDP302      0.0000 
@<TRIPOS>BOND
     1    1    2 ar   
     2    1    3 ar   
     3    1    4 1    
     4    1   23 1    
     5    4    5 1    
     6    5    6 1    
     7    5   49 1    
     8    5   50 1    
     9    6    7 1    
    10    6    8 1    
    11    6   51 1    
    12    7   12 1    
    13    8    9 1    
    14    8   10 1    
    15    8   52 1    
    16    9   53 1    
    17   10   11 1    
    18   10   12 1    
    19   10   54 1    
    20   11   45 1    
    21   12   13 1    
    22   12   55 1    
    23   13   14 1    
    24   13   22 1    
    25   14   15 2    
    26   14   56 1    
    27   15   16 1    
    28   16   17 ar   
    29   16   22 ar   
    30   17   18 1    
    31   17   19 ar   
    32   18   57 1    
    33   18   58 1    
    34   19   20 ar   
    35   20   21 ar   
    36   20   59 1    
    37   21   22 ar   
    38   23   24 1    
    39   24   25 ar   
    40   24   26 ar   
    41   24   27 1    
    42   27   28 1    
    43   28   29 1    
    44   28   60 1    
    45   28   61 1    
    46   29   30 1    
    47   29   31 1    
    48   29   62 1    
    49   30   35 1    
    50   31   32 1    
    51   31   33 1    
    52   31   63 1    
    53   32   64 1    
    54   33   34 1    
    55   33   35 1    
    56   33   65 1    
    57   34   66 1    
    58   35   36 1    
    59   35   67 1    
    60   36   37 1    
    61   36   44 1    
    62   37   38 2    
    63   37   68 1    
    64   38   39 1    
    65   38   42 1    
    66   39   40 2    
    67   39   41 am   
    68   41   69 1    
    69   41   70 1    
    70   42   43 1    
    71   42   71 1    
    72   42   72 1    
    73   43   44 2    
    74   43   73 1    
    75   44   74 1    
    76   45   46 ar   
    77   45   47 ar   
    78   45   48 ar   
@<TRIPOS>SUBSTRUCTURE
     1 NDP302      1 GROUP   
@<TRIPOS>SET
ATOM$ORANGE STATIC     ATOMS   COLORGROUP SYSTEM 
42 5 5 6 6 8 8 10 10 12 12 14 14 16 16 17 17 20 \
20 22 22 28 28 29 29 31 31 33 33 35 35 37 37 38 38 39 \
39 42 42 43 43 44 44 

