#    Name: 5z2l_6_NDP
#    Modification time : Fri May 22 19:28:07 2020

@<TRIPOS>MOLECULE
5z2l_6_NDP
   74    78     1     0     1
SMALL
NO_CHARGES


@<TRIPOS>ATOM
      1 PA        -10.9560 -105.3150 -120.6970 P.3       1 NDP302      0.0000 
      2 O1A       -12.0510 -104.4990 -120.0380 O.co2     1 NDP302      0.0000 
      3 O2A       -11.2490 -106.3370 -121.7700 O.co2     1 NDP302      0.0000 
      4 O5B        -9.8150 -104.3230 -121.1950 O.3       1 NDP302      0.0000 
      5 C5B        -8.8050 -104.8850 -122.0210 C.3       1 NDP302      0.0000 
      6 C4B        -7.7510 -103.8370 -122.2380 C.3       1 NDP302      0.0000 
      7 O4B        -6.5750 -104.4710 -122.7520 O.3       1 NDP302      0.0000 
      8 C3B        -8.2590 -102.8350 -123.2740 C.3       1 NDP302      0.0000 
      9 O3B        -7.6730 -101.5780 -123.0040 O.3       1 NDP302      0.0000 
     10 C2B        -7.6830 -103.3810 -124.5580 C.3       1 NDP302      0.0000 
     11 O2B        -7.5720 -102.3910 -125.6040 O.3       1 NDP302      0.0000 
     12 C1B        -6.3430 -103.9280 -124.0500 C.3       1 NDP302      0.0000 
     13 N9A        -5.9400 -104.9420 -125.0260 N.pl3     1 NDP302      0.0000 
     14 C8A        -6.5020 -106.1530 -125.2100 C.2       1 NDP302      0.0000 
     15 N7A        -5.9100 -106.7820 -126.2550 N.2       1 NDP302      0.0000 
     16 C5A        -4.9720 -105.9430 -126.7420 C.ar      1 NDP302      0.0000 
     17 C6A        -3.9930 -105.9610 -127.8340 C.ar      1 NDP302      0.0000 
     18 N6A        -3.9150 -107.0480 -128.6110 N.pl3     1 NDP302      0.0000 
     19 N1A        -3.1810 -104.8980 -128.0070 N.ar      1 NDP302      0.0000 
     20 C2A        -3.2760 -103.7990 -127.2300 C.ar      1 NDP302      0.0000 
     21 N3A        -4.1540 -103.7130 -126.2080 N.ar      1 NDP302      0.0000 
     22 C4A        -5.0040 -104.7250 -125.9450 C.ar      1 NDP302      0.0000 
     23 O3        -10.1130 -106.1430 -119.6040 O.3       1 NDP302      0.0000 
     24 PN         -9.9080 -105.8520 -118.0410 P.3       1 NDP302      0.0000 
     25 O1N       -10.9560 -106.6900 -117.3490 O.co2     1 NDP302      0.0000 
     26 O2N        -9.7190 -104.3710 -117.7850 O.co2     1 NDP302      0.0000 
     27 O5D        -8.5100 -106.6040 -117.8800 O.3       1 NDP302      0.0000 
     28 C5D        -7.2880 -105.8850 -117.8120 C.3       1 NDP302      0.0000 
     29 C4D        -6.2390 -106.9040 -117.3750 C.3       1 NDP302      0.0000 
     30 O4D        -6.6350 -107.3760 -116.0830 O.3       1 NDP302      0.0000 
     31 C3D        -6.1720 -108.1350 -118.2670 C.3       1 NDP302      0.0000 
     32 O3D        -4.8000 -108.5610 -118.3190 O.3       1 NDP302      0.0000 
     33 C2D        -6.9730 -109.2020 -117.5560 C.3       1 NDP302      0.0000 
     34 O2D        -6.4720 -110.5150 -117.8160 O.3       1 NDP302      0.0000 
     35 C1D        -6.7130 -108.8030 -116.1090 C.3       1 NDP302      0.0000 
     36 N1N        -7.7010 -109.2740 -115.1400 N.pl3     1 NDP302      0.0000 
     37 C2N        -8.9570 -108.8060 -115.1180 C.2       1 NDP302      0.0000 
     38 C3N        -9.8660 -109.2550 -114.1590 C.2       1 NDP302      0.0000 
     39 C7N       -11.2900 -108.8040 -114.0350 C.2       1 NDP302      0.0000 
     40 O7N       -12.0290 -109.4120 -113.2620 O.2       1 NDP302      0.0000 
     41 N7N       -11.7110 -107.7450 -114.7270 N.am      1 NDP302      0.0000 
     42 C4N        -9.4650 -110.2710 -113.1280 C.3       1 NDP302      0.0000 
     43 C5N        -8.0840 -110.6720 -113.2480 C.2       1 NDP302      0.0000 
     44 C6N        -7.2660 -110.1630 -114.2290 C.2       1 NDP302      0.0000 
     45 P2B        -8.4160 -102.4890 -126.9750 P.3       1 NDP302      0.0000 
     46 O1X        -8.2670 -101.0630 -127.5100 O.co2     1 NDP302      0.0000 
     47 O2X        -7.7030 -103.5710 -127.7650 O.co2     1 NDP302      0.0000 
     48 O3X        -9.8160 -102.8950 -126.6480 O.co2     1 NDP302      0.0000 
     49 H51A       -8.3690 -105.7610 -121.5360 H         1 NDP302      0.0000 
     50 H52A       -9.2310 -105.1940 -122.9780 H         1 NDP302      0.0000 
     51 H4B        -7.5380 -103.3200 -121.2920 H         1 NDP302      0.0000 
     52 H3B        -9.3570 -102.8020 -123.3020 H         1 NDP302      0.0000 
     53 HO3A       -8.0380 -101.2210 -122.1820 H         1 NDP302      0.0000 
     54 H2B        -8.3050 -104.2210 -124.8980 H         1 NDP302      0.0000 
     55 H1B        -5.6060 -103.1140 -124.0070 H         1 NDP302      0.0000 
     56 H8A        -7.3080 -106.5630 -124.6130 H         1 NDP302      0.0000 
     57 H61A       -3.2340 -107.0890 -129.3560 H         1 NDP302      0.0000 
     58 H62A       -4.5210 -107.8370 -128.4370 H         1 NDP302      0.0000 
     59 H2A        -2.6110 -102.9650 -127.4200 H         1 NDP302      0.0000 
     60 H51N       -7.0340 -105.4680 -118.7890 H         1 NDP302      0.0000 
     61 H52N       -7.3600 -105.0730 -117.0860 H         1 NDP302      0.0000 
     62 H4D        -5.2510 -106.4240 -117.3290 H         1 NDP302      0.0000 
     63 H3D        -6.5840 -107.9260 -119.2640 H         1 NDP302      0.0000 
     64 HO3N       -4.7270 -109.3440 -118.8810 H         1 NDP302      0.0000 
     65 H2D        -8.0420 -109.1100 -117.7970 H         1 NDP302      0.0000 
     66 HO2N       -6.5320 -110.7020 -118.7630 H         1 NDP302      0.0000 
     67 H1D        -5.7310 -109.2110 -115.8290 H         1 NDP302      0.0000 
     68 H2N        -9.2680 -108.0710 -115.8500 H         1 NDP302      0.0000 
     69 H71N      -12.6670 -107.4330 -114.6400 H         1 NDP302      0.0000 
     70 H72N      -11.0750 -107.2610 -115.3440 H         1 NDP302      0.0000 
     71 H41N       -9.6310 -109.8540 -112.1320 H         1 NDP302      0.0000 
     72 H42N      -10.1030 -111.1510 -113.2270 H         1 NDP302      0.0000 
     73 H5N        -7.6860 -111.4050 -112.5560 H         1 NDP302      0.0000 
     74 H6N        -6.2420 -110.5100 -114.2860 H         1 NDP302      0.0000 
@<TRIPOS>BOND
     1    1    2 ar   
     2    1    3 ar   
     3    1    4 1    
     4    1   23 1    
     5    4    5 1    
     6    5    6 1    
     7    5   49 1    
     8    5   50 1    
     9    6    7 1    
    10    6    8 1    
    11    6   51 1    
    12    7   12 1    
    13    8    9 1    
    14    8   10 1    
    15    8   52 1    
    16    9   53 1    
    17   10   11 1    
    18   10   12 1    
    19   10   54 1    
    20   11   45 1    
    21   12   13 1    
    22   12   55 1    
    23   13   14 1    
    24   13   22 1    
    25   14   15 2    
    26   14   56 1    
    27   15   16 1    
    28   16   17 ar   
    29   16   22 ar   
    30   17   18 1    
    31   17   19 ar   
    32   18   57 1    
    33   18   58 1    
    34   19   20 ar   
    35   20   21 ar   
    36   20   59 1    
    37   21   22 ar   
    38   23   24 1    
    39   24   25 ar   
    40   24   26 ar   
    41   24   27 1    
    42   27   28 1    
    43   28   29 1    
    44   28   60 1    
    45   28   61 1    
    46   29   30 1    
    47   29   31 1    
    48   29   62 1    
    49   30   35 1    
    50   31   32 1    
    51   31   33 1    
    52   31   63 1    
    53   32   64 1    
    54   33   34 1    
    55   33   35 1    
    56   33   65 1    
    57   34   66 1    
    58   35   36 1    
    59   35   67 1    
    60   36   37 1    
    61   36   44 1    
    62   37   38 2    
    63   37   68 1    
    64   38   39 1    
    65   38   42 1    
    66   39   40 2    
    67   39   41 am   
    68   41   69 1    
    69   41   70 1    
    70   42   43 1    
    71   42   71 1    
    72   42   72 1    
    73   43   44 2    
    74   43   73 1    
    75   44   74 1    
    76   45   46 ar   
    77   45   47 ar   
    78   45   48 ar   
@<TRIPOS>SUBSTRUCTURE
     1 NDP302      1 GROUP   
@<TRIPOS>SET
ATOM$ORANGE STATIC     ATOMS   COLORGROUP SYSTEM 
42 5 5 6 6 8 8 10 10 12 12 14 14 16 16 17 17 20 \
20 22 22 28 28 29 29 31 31 33 33 35 35 37 37 38 38 39 \
39 42 42 43 43 44 44 

