#    Name: 5z2l_3_NDP_CAVITY_N1_12
#    Modification time : Fri May 22 19:27:51 2020

@<TRIPOS>MOLECULE
5z2l_3_NDP_CAVITY_N1_12
  108     0     6     0     0
SMALL
NO_CHARGES


@<TRIPOS>ATOM
      1 OG        -19.4000 -165.6100  -43.8700 O.3       1 SER1        0.0000 
      2 OG        -19.0700 -167.0500  -43.6200 O.3       1 SER1        0.0000 
      3 OG        -18.7400 -168.4900  -43.3700 O.3       1 SER1        0.0000 
      4 OG        -18.2900 -163.8800  -44.4100 O.3       1 SER1        0.0000 
      5 OG        -17.9600 -165.3300  -44.1600 O.3       1 SER1        0.0000 
      6 OG        -17.6300 -166.7700  -43.9100 O.3       1 SER1        0.0000 
      7 OG        -18.5100 -168.1900  -41.9200 O.3       1 SER1        0.0000 
      8 OG        -18.0500 -163.5800  -42.9600 O.3       1 SER1        0.0000 
      9 OG        -17.7200 -165.0200  -42.7100 O.3       1 SER1        0.0000 
     10 OG        -17.3900 -166.4600  -42.4600 O.3       1 SER1        0.0000 
     11 OG        -17.0600 -167.9000  -42.2100 O.3       1 SER1        0.0000 
     12 OG        -18.2700 -167.8800  -40.4700 O.3       1 SER1        0.0000 
     13 OG        -17.4900 -164.7200  -41.2600 O.3       1 SER1        0.0000 
     14 OG        -17.1600 -166.1600  -41.0100 O.3       1 SER1        0.0000 
     15 OG        -16.8300 -167.6000  -40.7600 O.3       1 SER1        0.0000 
     16 OG        -13.9400 -167.0400  -41.3500 O.3       1 SER1        0.0000 
     17 OG        -19.8200 -166.4100  -38.9800 O.3       1 SER1        0.0000 
     18 OG        -19.4800 -167.8600  -38.7300 O.3       1 SER1        0.0000 
     19 OG        -18.3700 -166.1300  -39.2700 O.3       1 SER1        0.0000 
     20 OG        -18.0400 -167.5800  -39.0200 O.3       1 SER1        0.0000 
     21 OG        -14.8200 -168.4500  -39.3600 O.3       1 SER1        0.0000 
     22 OG        -14.2600 -169.5900  -37.6600 O.3       1 SER1        0.0000 
     23 N         -18.4200 -165.9400  -47.0600 N.am      2 ALA2        0.0000 
     24 N         -17.3100 -164.2100  -47.6100 N.am      2 ALA2        0.0000 
     25 O         -16.9800 -165.6600  -47.3600 O.2       2 ALA2        0.0000 
     26 O         -16.6500 -167.1000  -47.1100 O.2       2 ALA2        0.0000 
     27 O         -16.3200 -168.5400  -46.8600 O.2       2 ALA2        0.0000 
     28 N         -19.6300 -165.9100  -45.3200 N.am      2 ALA2        0.0000 
     29 N         -18.1900 -165.6300  -45.6100 N.am      2 ALA2        0.0000 
     30 N         -17.2000 -169.9600  -44.8600 N.am      2 ALA2        0.0000 
     31 N         -17.0800 -163.9100  -46.1600 N.am      2 ALA2        0.0000 
     32 O         -16.7500 -165.3500  -45.9100 O.2       2 ALA2        0.0000 
     33 O         -16.4200 -166.7900  -45.6600 O.2       2 ALA2        0.0000 
     34 O         -16.0800 -168.2300  -45.4100 O.2       2 ALA2        0.0000 
     35 N         -16.9600 -169.6500  -43.4100 N.am      2 ALA2        0.0000 
     36 O         -16.5100 -165.0500  -44.4600 O.2       2 ALA2        0.0000 
     37 O         -16.1800 -166.4900  -44.2100 O.2       2 ALA2        0.0000 
     38 N         -15.5200 -169.3700  -43.7100 N.am      2 ALA2        0.0000 
     39 O         -19.6200 -169.9100  -41.3800 O.2       2 ALA2        0.0000 
     40 N         -16.6100 -163.3000  -43.2600 N.am      2 ALA2        0.0000 
     41 N         -16.2800 -164.7400  -43.0100 N.am      2 ALA2        0.0000 
     42 O         -15.9500 -166.1800  -42.7600 O.2       2 ALA2        0.0000 
     43 N         -14.8400 -164.4600  -43.3000 N.am      2 ALA2        0.0000 
     44 O         -14.5000 -165.9000  -43.0500 O.2       2 ALA2        0.0000 
     45 N         -19.0600 -171.0400  -39.6800 N.am      2 ALA2        0.0000 
     46 N         -17.8200 -163.2700  -41.5100 N.am      2 ALA2        0.0000 
     47 N         -16.3800 -162.9900  -41.8100 N.am      2 ALA2        0.0000 
     48 N         -16.0500 -164.4400  -41.5600 N.am      2 ALA2        0.0000 
     49 N         -19.1500 -169.3000  -38.4800 N.am      2 ALA2        0.0000 
     50 N         -18.7000 -164.6900  -39.5200 N.am      2 ALA2        0.0000 
     51 N         -17.7100 -169.0200  -38.7700 N.am      2 ALA2        0.0000 
     52 N         -17.3800 -170.4600  -38.5200 N.am      2 ALA2        0.0000 
     53 N         -17.2600 -164.4100  -39.8100 N.am      2 ALA2        0.0000 
     54 N         -18.9200 -168.9900  -37.0300 N.am      2 ALA2        0.0000 
     55 N         -18.1400 -165.8300  -37.8200 N.am      2 ALA2        0.0000 
     56 N         -17.4800 -168.7100  -37.3200 N.am      2 ALA2        0.0000 
     57 N         -17.1500 -170.1500  -37.0700 N.am      2 ALA2        0.0000 
     58 N         -17.5700 -166.9600  -36.1200 N.am      2 ALA2        0.0000 
     59 N         -17.2400 -168.4100  -35.8700 N.am      2 ALA2        0.0000 
     60 N         -16.9100 -169.8500  -35.6200 N.am      2 ALA2        0.0000 
     61 N         -16.1300 -166.6800  -36.4100 N.am      2 ALA2        0.0000 
     62 O         -15.8000 -168.1300  -36.1600 O.2       2 ALA2        0.0000 
     63 OD1       -19.2500 -167.5500  -37.2800 O.co2     3 ASP3        0.0000 
     64 CZ        -17.7600 -168.8200  -46.5600 C.ar      4 PHE5        0.0000 
     65 CZ        -19.3000 -167.3500  -45.0700 C.ar      4 PHE5        0.0000 
     66 CZ        -18.9700 -168.8000  -44.8200 C.ar      4 PHE5        0.0000 
     67 CZ        -17.5300 -168.5100  -45.1100 C.ar      4 PHE5        0.0000 
     68 CZ        -18.4100 -169.9300  -43.1200 C.ar      4 PHE5        0.0000 
     69 CA        -19.5400 -167.6600  -46.5200 C.3       5 GLY6        0.0000 
     70 CA        -18.0900 -167.3800  -46.8100 C.3       5 GLY6        0.0000 
     71 CA        -16.8400 -163.6000  -44.7100 C.3       5 GLY6        0.0000 
     72 CA        -15.8500 -167.9300  -43.9600 C.3       5 GLY6        0.0000 
     73 CA        -18.1800 -169.6300  -41.6700 C.3       5 GLY6        0.0000 
     74 CA        -17.8500 -171.0700  -41.4200 C.3       5 GLY6        0.0000 
     75 CA        -16.7300 -169.3500  -41.9600 C.3       5 GLY6        0.0000 
     76 CA        -15.6200 -167.6200  -42.5100 C.3       5 GLY6        0.0000 
     77 CA        -15.2900 -169.0700  -42.2600 C.3       5 GLY6        0.0000 
     78 CA        -19.3900 -169.6000  -39.9300 C.3       5 GLY6        0.0000 
     79 CA        -17.6100 -170.7600  -39.9700 C.3       5 GLY6        0.0000 
     80 CA        -16.5000 -169.0400  -40.5100 C.3       5 GLY6        0.0000 
     81 CA        -15.0500 -168.7600  -40.8100 C.3       5 GLY6        0.0000 
     82 CA        -14.2700 -165.6000  -41.6000 C.3       5 GLY6        0.0000 
     83 CA        -15.9300 -170.1800  -38.8100 C.3       5 GLY6        0.0000 
     84 CA        -15.8100 -164.1300  -40.1100 C.3       5 GLY6        0.0000 
     85 CA        -15.4800 -165.5700  -39.8600 C.3       5 GLY6        0.0000 
     86 CA        -15.1500 -167.0100  -39.6100 C.3       5 GLY6        0.0000 
     87 CA        -14.4900 -169.9000  -39.1100 C.3       5 GLY6        0.0000 
     88 CA        -14.0400 -165.2900  -40.1500 C.3       5 GLY6        0.0000 
     89 CA        -13.7100 -166.7300  -39.9000 C.3       5 GLY6        0.0000 
     90 CA        -17.0200 -164.1100  -38.3600 C.3       5 GLY6        0.0000 
     91 CA        -16.6900 -165.5500  -38.1100 C.3       5 GLY6        0.0000 
     92 CA        -16.3600 -166.9900  -37.8600 C.3       5 GLY6        0.0000 
     93 CA        -15.5800 -163.8300  -38.6600 C.3       5 GLY6        0.0000 
     94 CA        -14.9200 -166.7100  -38.1600 C.3       5 GLY6        0.0000 
     95 CA        -17.9000 -165.5200  -36.3700 C.3       5 GLY6        0.0000 
     96 CA        -16.4600 -165.2400  -36.6600 C.3       5 GLY6        0.0000 
     97 CA        -14.3500 -167.8400  -36.4600 C.3       5 GLY6        0.0000 
     98 DU        -17.8600 -167.0700  -45.3600 H         6 CUB7        0.0000 
     99 DU        -17.3000 -168.2100  -43.6600 H         6 CUB7        0.0000 
    100 DU        -17.9400 -169.3200  -40.2200 H         6 CUB7        0.0000 
    101 DU        -15.7200 -165.8800  -41.3100 H         6 CUB7        0.0000 
    102 DU        -15.3800 -167.3200  -41.0600 H         6 CUB7        0.0000 
    103 DU        -16.9300 -165.8500  -39.5600 H         6 CUB7        0.0000 
    104 DU        -16.6000 -167.2900  -39.3100 H         6 CUB7        0.0000 
    105 DU        -16.2600 -168.7400  -39.0600 H         6 CUB7        0.0000 
    106 DU        -17.8100 -167.2700  -37.5700 H         6 CUB7        0.0000 
    107 DU        -16.0300 -168.4300  -37.6100 H         6 CUB7        0.0000 
    108 DU        -15.7000 -169.8700  -37.3600 H         6 CUB7        0.0000 
@<TRIPOS>BOND
@<TRIPOS>SUBSTRUCTURE
     1 SER1        1 GROUP   
     2 ALA2       23 GROUP   
     3 ASP3       63 GROUP   
     4 PHE5       64 GROUP   
     5 GLY6       69 GROUP   
     6 CUB7       98 GROUP   
@<TRIPOS>SET

