#    Name: 5z2l_3_NDP
#    Modification time : Fri May 22 19:27:48 2020

@<TRIPOS>MOLECULE
5z2l_3_NDP
   74    78     1     0     1
SMALL
NO_CHARGES


@<TRIPOS>ATOM
      1 PA        -14.0480 -171.9450  -37.6070 P.3       1 NDP304      0.0000 
      2 O1A       -12.6140 -171.8630  -38.0340 O.co2     1 NDP304      0.0000 
      3 O2A       -15.0250 -172.9770  -38.1500 O.co2     1 NDP304      0.0000 
      4 O5B       -14.1260 -171.9610  -36.0050 O.3       1 NDP304      0.0000 
      5 C5B       -15.4030 -172.1260  -35.4270 C.3       1 NDP304      0.0000 
      6 C4B       -15.3180 -172.0270  -33.9180 C.3       1 NDP304      0.0000 
      7 O4B       -16.6570 -171.9970  -33.4210 O.3       1 NDP304      0.0000 
      8 C3B       -14.6100 -173.2420  -33.3460 C.3       1 NDP304      0.0000 
      9 O3B       -13.9170 -172.8930  -32.1450 O.3       1 NDP304      0.0000 
     10 C2B       -15.7530 -174.1580  -32.9880 C.3       1 NDP304      0.0000 
     11 O2B       -15.4310 -175.0440  -31.9120 O.3       1 NDP304      0.0000 
     12 C1B       -16.8180 -173.1380  -32.5880 C.3       1 NDP304      0.0000 
     13 N9A       -18.1160 -173.7770  -32.7380 N.pl3     1 NDP304      0.0000 
     14 C8A       -18.7460 -174.1070  -33.8940 C.2       1 NDP304      0.0000 
     15 N7A       -19.8920 -174.7360  -33.6140 N.2       1 NDP304      0.0000 
     16 C5A       -19.9800 -174.8480  -32.2740 C.ar      1 NDP304      0.0000 
     17 C6A       -20.9370 -175.4190  -31.3350 C.ar      1 NDP304      0.0000 
     18 N6A       -22.0330 -176.0100  -31.8490 N.pl3     1 NDP304      0.0000 
     19 N1A       -20.6710 -175.3450  -30.0030 N.ar      1 NDP304      0.0000 
     20 C2A       -19.5520 -174.7360  -29.5580 C.ar      1 NDP304      0.0000 
     21 N3A       -18.6260 -174.1810  -30.3660 N.ar      1 NDP304      0.0000 
     22 C4A       -18.8020 -174.2200  -31.7080 C.ar      1 NDP304      0.0000 
     23 O3        -14.8080 -170.5600  -37.8880 O.3       1 NDP304      0.0000 
     24 PN        -14.2580 -169.0840  -37.9710 P.3       1 NDP304      0.0000 
     25 O1N       -14.0100 -168.7540  -39.4080 O.co2     1 NDP304      0.0000 
     26 O2N       -13.2310 -168.7750  -36.9060 O.co2     1 NDP304      0.0000 
     27 O5D       -15.6200 -168.2660  -37.6250 O.3       1 NDP304      0.0000 
     28 C5D       -15.9130 -167.8530  -36.3040 C.3       1 NDP304      0.0000 
     29 C4D       -17.1130 -166.9150  -36.3840 C.3       1 NDP304      0.0000 
     30 O4D       -16.8080 -165.8720  -37.3250 O.3       1 NDP304      0.0000 
     31 C3D       -18.3730 -167.6000  -36.8990 C.3       1 NDP304      0.0000 
     32 O3D       -19.4750 -167.0150  -36.1940 O.3       1 NDP304      0.0000 
     33 C2D       -18.4210 -167.2430  -38.3740 C.3       1 NDP304      0.0000 
     34 O2D       -19.7560 -167.2090  -38.9130 O.3       1 NDP304      0.0000 
     35 C1D       -17.8100 -165.8600  -38.3340 C.3       1 NDP304      0.0000 
     36 N1N       -17.2490 -165.3640  -39.5970 N.pl3     1 NDP304      0.0000 
     37 C2N       -16.1650 -165.8920  -40.1740 C.2       1 NDP304      0.0000 
     38 C3N       -15.6830 -165.3530  -41.3560 C.2       1 NDP304      0.0000 
     39 C7N       -14.4760 -165.9000  -42.0670 C.2       1 NDP304      0.0000 
     40 O7N       -14.2130 -165.4750  -43.1920 O.2       1 NDP304      0.0000 
     41 N7N       -13.7090 -166.7970  -41.4750 N.am      1 NDP304      0.0000 
     42 C4N       -16.3520 -164.1560  -42.0060 C.3       1 NDP304      0.0000 
     43 C5N       -17.4920 -163.6690  -41.2680 C.2       1 NDP304      0.0000 
     44 C6N       -17.8800 -164.2860  -40.0940 C.2       1 NDP304      0.0000 
     45 P2B       -15.3840 -176.6330  -32.1520 P.3       1 NDP304      0.0000 
     46 O1X       -14.7310 -177.0730  -30.8440 O.co2     1 NDP304      0.0000 
     47 O2X       -16.8060 -177.0860  -32.2030 O.co2     1 NDP304      0.0000 
     48 O3X       -14.5600 -176.8920  -33.3610 O.co2     1 NDP304      0.0000 
     49 H51A      -16.0790 -171.3580  -35.8070 H         1 NDP304      0.0000 
     50 H52A      -15.8080 -173.1010  -35.7080 H         1 NDP304      0.0000 
     51 H4B       -14.7760 -171.1140  -33.6350 H         1 NDP304      0.0000 
     52 H3B       -13.9510 -173.7060  -34.0930 H         1 NDP304      0.0000 
     53 HO3A      -13.1790 -172.3050  -32.3580 H         1 NDP304      0.0000 
     54 H2B       -16.0810 -174.7130  -33.8780 H         1 NDP304      0.0000 
     55 H1B       -16.6600 -172.8570  -31.5380 H         1 NDP304      0.0000 
     56 H8A       -18.3930 -173.8640  -34.8890 H         1 NDP304      0.0000 
     57 H61A      -22.7260 -176.4110  -31.2340 H         1 NDP304      0.0000 
     58 H62A      -22.1710 -176.0340  -32.8500 H         1 NDP304      0.0000 
     59 H2A       -19.3860 -174.6940  -28.4890 H         1 NDP304      0.0000 
     60 H51N      -16.1490 -168.7180  -35.6800 H         1 NDP304      0.0000 
     61 H52N      -15.0550 -167.3330  -35.8720 H         1 NDP304      0.0000 
     62 H4D       -17.3100 -166.4900  -35.3900 H         1 NDP304      0.0000 
     63 H3D       -18.3150 -168.6880  -36.7560 H         1 NDP304      0.0000 
     64 HO3N      -20.3000 -167.4230  -36.4910 H         1 NDP304      0.0000 
     65 H2D       -17.7740 -167.9230  -38.9480 H         1 NDP304      0.0000 
     66 HO2N      -20.1590 -168.0840  -38.8320 H         1 NDP304      0.0000 
     67 H1D       -18.6040 -165.1680  -38.0200 H         1 NDP304      0.0000 
     68 H2N       -15.6750 -166.7480  -39.7270 H         1 NDP304      0.0000 
     69 H71N      -12.8960 -167.1590  -41.9520 H         1 NDP304      0.0000 
     70 H72N      -13.9390 -167.1260  -40.5490 H         1 NDP304      0.0000 
     71 H41N      -15.6210 -163.3510  -42.1050 H         1 NDP304      0.0000 
     72 H42N      -16.6720 -164.4330  -43.0130 H         1 NDP304      0.0000 
     73 H5N       -18.0500 -162.8170  -41.6380 H         1 NDP304      0.0000 
     74 H6N       -18.7490 -163.9060  -39.5700 H         1 NDP304      0.0000 
@<TRIPOS>BOND
     1    1    2 ar   
     2    1    3 ar   
     3    1    4 1    
     4    1   23 1    
     5    4    5 1    
     6    5    6 1    
     7    5   49 1    
     8    5   50 1    
     9    6    7 1    
    10    6    8 1    
    11    6   51 1    
    12    7   12 1    
    13    8    9 1    
    14    8   10 1    
    15    8   52 1    
    16    9   53 1    
    17   10   11 1    
    18   10   12 1    
    19   10   54 1    
    20   11   45 1    
    21   12   13 1    
    22   12   55 1    
    23   13   14 1    
    24   13   22 1    
    25   14   15 2    
    26   14   56 1    
    27   15   16 1    
    28   16   17 ar   
    29   16   22 ar   
    30   17   18 1    
    31   17   19 ar   
    32   18   57 1    
    33   18   58 1    
    34   19   20 ar   
    35   20   21 ar   
    36   20   59 1    
    37   21   22 ar   
    38   23   24 1    
    39   24   25 ar   
    40   24   26 ar   
    41   24   27 1    
    42   27   28 1    
    43   28   29 1    
    44   28   60 1    
    45   28   61 1    
    46   29   30 1    
    47   29   31 1    
    48   29   62 1    
    49   30   35 1    
    50   31   32 1    
    51   31   33 1    
    52   31   63 1    
    53   32   64 1    
    54   33   34 1    
    55   33   35 1    
    56   33   65 1    
    57   34   66 1    
    58   35   36 1    
    59   35   67 1    
    60   36   37 1    
    61   36   44 1    
    62   37   38 2    
    63   37   68 1    
    64   38   39 1    
    65   38   42 1    
    66   39   40 2    
    67   39   41 am   
    68   41   69 1    
    69   41   70 1    
    70   42   43 1    
    71   42   71 1    
    72   42   72 1    
    73   43   44 2    
    74   43   73 1    
    75   44   74 1    
    76   45   46 ar   
    77   45   47 ar   
    78   45   48 ar   
@<TRIPOS>SUBSTRUCTURE
     1 NDP304      1 GROUP   
@<TRIPOS>SET
ATOM$ORANGE STATIC     ATOMS   COLORGROUP SYSTEM 
42 5 5 6 6 8 8 10 10 12 12 14 14 16 16 17 17 20 \
20 22 22 28 28 29 29 31 31 33 33 35 35 37 37 38 38 39 \
39 42 42 43 43 44 44 

