#    Name: 5z2l_6_NDP_CAVITY_N1_4
#    Modification time : Fri May 22 19:28:10 2020

@<TRIPOS>MOLECULE
5z2l_6_NDP_CAVITY_N1_4
   78     0     6     0     0
SMALL
NO_CHARGES


@<TRIPOS>ATOM
      1 OG         -9.4100 -110.8000 -119.0800 O.3       1 SER1        0.0000 
      2 OG        -10.6200 -110.7800 -117.3400 O.3       1 SER1        0.0000 
      3 OG        -10.1700 -106.1800 -118.3800 O.3       1 SER1        0.0000 
      4 OG         -9.1800 -110.5000 -117.6300 O.3       1 SER1        0.0000 
      5 OG         -7.7300 -110.2200 -117.9200 O.3       1 SER1        0.0000 
      6 OG        -11.0500 -107.5900 -116.3900 O.3       1 SER1        0.0000 
      7 OG        -10.3900 -110.4800 -115.8900 O.3       1 SER1        0.0000 
      8 OG         -8.9400 -110.1900 -116.1800 O.3       1 SER1        0.0000 
      9 OG         -7.5000 -109.9100 -116.4700 O.3       1 SER1        0.0000 
     10 OG         -8.7100 -109.8900 -114.7300 O.3       1 SER1        0.0000 
     11 OG         -6.9300 -111.0500 -114.7700 O.3       1 SER1        0.0000 
     12 N          -9.9700 -109.6700 -120.7800 N.am      2 ALA2        0.0000 
     13 N          -7.7500 -106.2200 -121.8600 N.am      2 ALA2        0.0000 
     14 N          -8.9600 -106.2000 -120.1200 N.am      2 ALA2        0.0000 
     15 N          -8.6300 -107.6400 -119.8700 N.am      2 ALA2        0.0000 
     16 N          -8.2900 -109.0800 -119.6200 N.am      2 ALA2        0.0000 
     17 N          -7.5100 -105.9200 -120.4100 N.am      2 ALA2        0.0000 
     18 N          -7.1800 -107.3600 -120.1600 N.am      2 ALA2        0.0000 
     19 O          -6.0700 -105.6400 -120.7000 O.2       2 ALA2        0.0000 
     20 O          -7.2800 -105.6100 -118.9600 O.2       2 ALA2        0.0000 
     21 N          -6.9500 -107.0500 -118.7100 N.am      2 ALA2        0.0000 
     22 N          -5.1700 -108.2200 -118.7500 N.am      2 ALA2        0.0000 
     23 O         -12.9400 -112.4800 -115.0600 O.2       2 ALA2        0.0000 
     24 O         -11.8300 -110.7600 -115.6000 O.2       2 ALA2        0.0000 
     25 N          -6.7100 -106.7500 -117.2600 N.am      2 ALA2        0.0000 
     26 N          -4.9400 -107.9100 -117.3000 N.am      2 ALA2        0.0000 
     27 O         -11.6000 -110.4500 -114.1500 O.2       2 ALA2        0.0000 
     28 O         -11.2700 -111.8900 -113.9000 O.2       2 ALA2        0.0000 
     29 N          -7.2600 -109.6100 -115.0200 N.am      2 ALA2        0.0000 
     30 N          -9.9200 -109.8700 -112.9900 N.am      2 ALA2        0.0000 
     31 N          -7.0300 -109.3000 -113.5700 N.am      2 ALA2        0.0000 
     32 OD1       -10.9600 -105.3400 -121.5300 O.co2     3 ASP3        0.0000 
     33 OD1        -9.5200 -105.0600 -121.8200 O.co2     3 ASP3        0.0000 
     34 OD1        -6.2900 -109.9400 -118.2100 O.co2     3 ASP3        0.0000 
     35 OD1        -6.0500 -109.6300 -116.7600 O.co2     3 ASP3        0.0000 
     36 CZ         -9.0800 -112.2500 -118.8300 C.ar      4 PHE5        0.0000 
     37 CA        -11.4200 -109.9500 -120.4900 C.3       5 GLY6        0.0000 
     38 CA        -10.6300 -106.7900 -121.2800 C.3       5 GLY6        0.0000 
     39 CA         -8.2000 -110.8300 -120.8200 C.3       5 GLY6        0.0000 
     40 CA        -10.4000 -106.4800 -119.8300 C.3       5 GLY6        0.0000 
     41 CA        -10.0700 -107.9200 -119.5800 C.3       5 GLY6        0.0000 
     42 CA         -9.7400 -109.3600 -119.3300 C.3       5 GLY6        0.0000 
     43 CA         -7.9600 -110.5200 -119.3700 C.3       5 GLY6        0.0000 
     44 CA         -6.5200 -110.2400 -119.6600 C.3       5 GLY6        0.0000 
     45 CA        -12.3900 -109.6200 -117.3000 C.3       5 GLY6        0.0000 
     46 CA        -12.0600 -111.0600 -117.0500 C.3       5 GLY6        0.0000 
     47 CA        -11.2800 -107.9000 -117.8400 C.3       5 GLY6        0.0000 
     48 CA        -10.9500 -109.3400 -117.5900 C.3       5 GLY6        0.0000 
     49 CA        -10.5000 -104.7300 -118.6300 C.3       5 GLY6        0.0000 
     50 CA         -9.8400 -107.6200 -118.1300 C.3       5 GLY6        0.0000 
     51 CA         -6.6200 -108.5000 -118.4600 C.3       5 GLY6        0.0000 
     52 CA        -12.1600 -109.3200 -115.8500 C.3       5 GLY6        0.0000 
     53 CA         -9.9300 -105.8700 -116.9300 C.3       5 GLY6        0.0000 
     54 CA         -9.6000 -107.3100 -116.6800 C.3       5 GLY6        0.0000 
     55 CA         -8.1600 -107.0300 -116.9700 C.3       5 GLY6        0.0000 
     56 CA        -11.9300 -109.0100 -114.4000 C.3       5 GLY6        0.0000 
     57 CA        -10.8100 -107.2900 -114.9400 C.3       5 GLY6        0.0000 
     58 CA         -9.0400 -108.4500 -114.9800 C.3       5 GLY6        0.0000 
     59 CA         -7.5900 -108.1700 -115.2700 C.3       5 GLY6        0.0000 
     60 CA         -6.4800 -106.4400 -115.8100 C.3       5 GLY6        0.0000 
     61 CA         -6.1500 -107.8900 -115.5600 C.3       5 GLY6        0.0000 
     62 CA        -10.2500 -108.4200 -113.2400 C.3       5 GLY6        0.0000 
     63 CA         -8.8100 -108.1400 -113.5300 C.3       5 GLY6        0.0000 
     64 CA         -8.4800 -109.5800 -113.2800 C.3       5 GLY6        0.0000 
     65 CA         -7.3600 -107.8600 -113.8200 C.3       5 GLY6        0.0000 
     66 DU        -10.7300 -105.0400 -120.0800 H         6 CUB7        0.0000 
     67 DU         -9.2900 -104.7600 -120.3700 H         6 CUB7        0.0000 
     68 DU         -9.5100 -109.0600 -117.8800 H         6 CUB7        0.0000 
     69 DU         -8.7200 -105.8900 -118.6700 H         6 CUB7        0.0000 
     70 DU         -8.3900 -107.3400 -118.4200 H         6 CUB7        0.0000 
     71 DU         -8.0600 -108.7800 -118.1700 H         6 CUB7        0.0000 
     72 DU        -11.5000 -112.2000 -115.3500 H         6 CUB7        0.0000 
     73 DU        -10.7200 -109.0300 -116.1400 H         6 CUB7        0.0000 
     74 DU         -9.2700 -108.7500 -116.4300 H         6 CUB7        0.0000 
     75 DU         -7.8300 -108.4700 -116.7200 H         6 CUB7        0.0000 
     76 DU         -6.3800 -108.1900 -117.0100 H         6 CUB7        0.0000 
     77 DU        -10.4800 -108.7300 -114.6900 H         6 CUB7        0.0000 
     78 DU        -10.1500 -110.1700 -114.4400 H         6 CUB7        0.0000 
@<TRIPOS>BOND
@<TRIPOS>SUBSTRUCTURE
     1 SER1        1 GROUP   
     2 ALA2       12 GROUP   
     3 ASP3       32 GROUP   
     4 PHE5       36 GROUP   
     5 GLY6       37 GROUP   
     6 CUB7       66 GROUP   
@<TRIPOS>SET

