#    Name: 5z2l_1_NDP_CAVITY_N1_4
#    Modification time : Fri May 22 19:27:39 2020

@<TRIPOS>MOLECULE
5z2l_1_NDP_CAVITY_N1_4
   72     0     5     0     0
SMALL
NO_CHARGES


@<TRIPOS>ATOM
      1 OG        -30.4000 -142.7700  -68.6300 O.3       1 SER1        0.0000 
      2 OG        -29.8300 -143.9100  -66.9300 O.3       1 SER1        0.0000 
      3 OG        -29.5000 -145.3500  -66.6800 O.3       1 SER1        0.0000 
      4 OG        -28.0600 -145.0700  -66.9700 O.3       1 SER1        0.0000 
      5 OG        -29.3700 -143.3000  -64.0300 O.3       1 SER1        0.0000 
      6 OG        -29.0400 -144.7400  -63.7800 O.3       1 SER1        0.0000 
      7 OG        -28.7100 -146.1800  -63.5300 O.3       1 SER1        0.0000 
      8 OG        -27.9200 -143.0200  -64.3200 O.3       1 SER1        0.0000 
      9 OG        -27.5900 -144.4600  -64.0700 O.3       1 SER1        0.0000 
     10 OG        -27.2600 -145.9000  -63.8200 O.3       1 SER1        0.0000 
     11 OG        -26.4800 -142.7300  -64.6200 O.3       1 SER1        0.0000 
     12 OG        -26.1500 -144.1800  -64.3700 O.3       1 SER1        0.0000 
     13 OG        -25.8200 -145.6200  -64.1200 O.3       1 SER1        0.0000 
     14 OG        -29.1300 -142.9900  -62.5800 O.3       1 SER1        0.0000 
     15 OG        -28.8000 -144.4300  -62.3300 O.3       1 SER1        0.0000 
     16 OG        -28.0200 -141.2700  -63.1200 O.3       1 SER1        0.0000 
     17 O         -30.8300 -139.5800  -67.6800 O.2       2 ALA2        0.0000 
     18 N         -29.1700 -146.7900  -66.4300 N.am      2 ALA2        0.0000 
     19 N         -28.8400 -148.2300  -66.1800 N.am      2 ALA2        0.0000 
     20 N         -29.3800 -139.3000  -67.9700 N.am      2 ALA2        0.0000 
     21 N         -29.0500 -140.7400  -67.7200 N.am      2 ALA2        0.0000 
     22 N         -31.7100 -141.0000  -65.6900 N.am      2 ALA2        0.0000 
     23 N         -31.3800 -142.4400  -65.4400 N.am      2 ALA2        0.0000 
     24 O         -30.5900 -139.2800  -66.2300 O.2       2 ALA2        0.0000 
     25 N         -30.2600 -140.7200  -65.9800 N.am      2 ALA2        0.0000 
     26 N         -28.6100 -147.9300  -64.7300 N.am      2 ALA2        0.0000 
     27 N         -28.8200 -140.4400  -66.2700 N.am      2 ALA2        0.0000 
     28 N         -28.4900 -141.8800  -66.0200 N.am      2 ALA2        0.0000 
     29 O         -27.1600 -147.6500  -65.0200 O.2       2 ALA2        0.0000 
     30 N         -27.0400 -141.6000  -66.3200 N.am      2 ALA2        0.0000 
     31 O         -25.7200 -147.3600  -65.3200 O.2       2 ALA2        0.0000 
     32 O         -25.6000 -141.3200  -66.6100 O.2       2 ALA2        0.0000 
     33 N         -31.1400 -142.1400  -63.9900 N.am      2 ALA2        0.0000 
     34 N         -30.0300 -140.4100  -64.5300 N.am      2 ALA2        0.0000 
     35 N         -28.3700 -147.6200  -63.2800 N.am      2 ALA2        0.0000 
     36 N         -28.2500 -141.5700  -64.5700 N.am      2 ALA2        0.0000 
     37 N         -26.8100 -141.2900  -64.8700 N.am      2 ALA2        0.0000 
     38 O         -25.1600 -148.5000  -63.6200 O.2       2 ALA2        0.0000 
     39 N         -30.5800 -143.2700  -62.2900 N.am      2 ALA2        0.0000 
     40 N         -30.2500 -144.7100  -62.0400 N.am      2 ALA2        0.0000 
     41 OD1       -30.9100 -141.8300  -62.5400 O.co2     3 ASP3        0.0000 
     42 OD1       -29.4600 -141.5500  -62.8300 O.co2     3 ASP3        0.0000 
     43 CA        -28.9500 -142.4900  -68.9200 C.3       4 GLY6        0.0000 
     44 CA        -31.6100 -142.7500  -66.8900 C.3       4 GLY6        0.0000 
     45 CA        -30.6200 -147.0700  -66.1400 C.3       4 GLY6        0.0000 
     46 CA        -28.7200 -142.1800  -67.4700 C.3       4 GLY6        0.0000 
     47 CA        -28.3900 -143.6300  -67.2200 C.3       4 GLY6        0.0000 
     48 CA        -27.7300 -146.5100  -66.7200 C.3       4 GLY6        0.0000 
     49 CA        -27.2800 -141.9000  -67.7700 C.3       4 GLY6        0.0000 
     50 CA        -26.2800 -146.2300  -67.0200 C.3       4 GLY6        0.0000 
     51 CA        -31.0400 -143.8800  -65.1900 C.3       4 GLY6        0.0000 
     52 CA        -30.3800 -146.7700  -64.6900 C.3       4 GLY6        0.0000 
     53 CA        -29.2700 -145.0400  -65.2300 C.3       4 GLY6        0.0000 
     54 CA        -26.7100 -143.0400  -66.0700 C.3       4 GLY6        0.0000 
     55 CA        -26.3800 -144.4800  -65.8200 C.3       4 GLY6        0.0000 
     56 CA        -26.0500 -145.9200  -65.5700 C.3       4 GLY6        0.0000 
     57 CA        -32.2600 -143.8600  -63.4500 C.3       4 GLY6        0.0000 
     58 CA        -31.9200 -145.3000  -63.2000 C.3       4 GLY6        0.0000 
     59 CA        -30.8100 -143.5800  -63.7400 C.3       4 GLY6        0.0000 
     60 CA        -30.4800 -145.0200  -63.4900 C.3       4 GLY6        0.0000 
     61 CA        -30.1500 -146.4600  -63.2400 C.3       4 GLY6        0.0000 
     62 DU        -29.2800 -141.0500  -69.1700 H         5 CUB7        0.0000 
     63 DU        -30.5000 -141.0200  -67.4300 H         5 CUB7        0.0000 
     64 DU        -30.1600 -142.4600  -67.1800 H         5 CUB7        0.0000 
     65 DU        -29.9300 -142.1600  -65.7300 H         5 CUB7        0.0000 
     66 DU        -29.6000 -143.6000  -65.4800 H         5 CUB7        0.0000 
     67 DU        -28.9400 -146.4800  -64.9800 H         5 CUB7        0.0000 
     68 DU        -28.1600 -143.3200  -65.7700 H         5 CUB7        0.0000 
     69 DU        -27.8300 -144.7600  -65.5200 H         5 CUB7        0.0000 
     70 DU        -27.4900 -146.2000  -65.2700 H         5 CUB7        0.0000 
     71 DU        -29.7000 -141.8500  -64.2800 H         5 CUB7        0.0000 
     72 DU        -25.4900 -147.0600  -63.8700 H         5 CUB7        0.0000 
@<TRIPOS>BOND
@<TRIPOS>SUBSTRUCTURE
     1 SER1        1 GROUP   
     2 ALA2       17 GROUP   
     3 ASP3       41 GROUP   
     4 GLY6       43 GROUP   
     5 CUB7       62 GROUP   
@<TRIPOS>SET

