#    Name: 5z2l_7_NDP
#    Modification time : Fri May 22 19:28:13 2020

@<TRIPOS>MOLECULE
5z2l_7_NDP
   74    78     1     0     1
SMALL
NO_CHARGES


@<TRIPOS>ATOM
      1 PA         13.5830 -108.4800  -83.2770 P.3       1 NDP302      0.0000 
      2 O1A        14.5840 -107.4440  -83.7160 O.co2     1 NDP302      0.0000 
      3 O2A        14.0770 -109.7000  -82.5240 O.co2     1 NDP302      0.0000 
      4 O5B        12.3890 -107.8020  -82.4420 O.3       1 NDP302      0.0000 
      5 C5B        11.3370 -108.6580  -82.0120 C.3       1 NDP302      0.0000 
      6 C4B        10.1810 -107.8690  -81.4250 C.3       1 NDP302      0.0000 
      7 O4B         9.1530 -108.7860  -81.0340 O.3       1 NDP302      0.0000 
      8 C3B        10.5910 -107.0830  -80.1860 C.3       1 NDP302      0.0000 
      9 O3B         9.9110 -105.8230  -80.1380 O.3       1 NDP302      0.0000 
     10 C2B        10.1120 -107.9580  -79.0500 C.3       1 NDP302      0.0000 
     11 O2B         9.7660 -107.2520  -77.8630 O.3       1 NDP302      0.0000 
     12 C1B         8.8740 -108.6030  -79.6440 C.3       1 NDP302      0.0000 
     13 N9A         8.5900 -109.8680  -78.9280 N.pl3     1 NDP302      0.0000 
     14 C8A         9.2960 -111.0110  -79.0190 C.2       1 NDP302      0.0000 
     15 N7A         8.7550 -111.9620  -78.2170 N.2       1 NDP302      0.0000 
     16 C5A         7.6930 -111.4170  -77.5980 C.ar      1 NDP302      0.0000 
     17 C6A         6.6800 -111.8650  -76.6210 C.ar      1 NDP302      0.0000 
     18 N6A         6.7080 -113.1260  -76.1450 N.pl3     1 NDP302      0.0000 
     19 N1A         5.7310 -110.9850  -76.2320 N.ar      1 NDP302      0.0000 
     20 C2A         5.6910 -109.7240  -76.7030 C.ar      1 NDP302      0.0000 
     21 N3A         6.5860 -109.2500  -77.5920 N.ar      1 NDP302      0.0000 
     22 C4A         7.5870 -110.0330  -78.0670 C.ar      1 NDP302      0.0000 
     23 O3         12.7000 -109.0280  -84.5130 O.3       1 NDP302      0.0000 
     24 PN         12.5300 -108.3460  -85.9710 P.3       1 NDP302      0.0000 
     25 O1N        13.8280 -108.5810  -86.6860 O.co2     1 NDP302      0.0000 
     26 O2N        11.9820 -106.9410  -85.8250 O.co2     1 NDP302      0.0000 
     27 O5D        11.3380 -109.2990  -86.4760 O.3       1 NDP302      0.0000 
     28 C5D         9.9930 -108.9150  -86.2110 C.3       1 NDP302      0.0000 
     29 C4D         9.0290 -109.8460  -86.9340 C.3       1 NDP302      0.0000 
     30 O4D         9.3820 -109.9100  -88.3270 O.3       1 NDP302      0.0000 
     31 C3D         9.0490 -111.2800  -86.4210 C.3       1 NDP302      0.0000 
     32 O3D         7.7050 -111.7790  -86.4280 O.3       1 NDP302      0.0000 
     33 C2D         9.8770 -112.0420  -87.4220 C.3       1 NDP302      0.0000 
     34 O2D         9.4760 -113.4140  -87.4720 O.3       1 NDP302      0.0000 
     35 C1D         9.5680 -111.2780  -88.7120 C.3       1 NDP302      0.0000 
     36 N1N        10.6210 -111.3590  -89.7230 N.pl3     1 NDP302      0.0000 
     37 C2N        11.7810 -110.7140  -89.5640 C.2       1 NDP302      0.0000 
     38 C3N        12.7680 -110.7840  -90.5430 C.2       1 NDP302      0.0000 
     39 C7N        14.0920 -110.0930  -90.4440 C.2       1 NDP302      0.0000 
     40 O7N        14.9150 -110.3590  -91.2970 O.2       1 NDP302      0.0000 
     41 N7N        14.3550 -109.2120  -89.4820 N.am      1 NDP302      0.0000 
     42 C4N        12.5720 -111.5810  -91.8080 C.3       1 NDP302      0.0000 
     43 C5N        11.2710 -112.2190  -91.8550 C.2       1 NDP302      0.0000 
     44 C6N        10.3630 -112.0730  -90.8250 C.2       1 NDP302      0.0000 
     45 P2B        10.5320 -107.5500  -76.4760 P.3       1 NDP302      0.0000 
     46 O1X        10.0940 -106.3840  -75.6130 O.co2     1 NDP302      0.0000 
     47 O2X         9.9720 -108.8900  -76.0600 O.co2     1 NDP302      0.0000 
     48 O3X        12.0030 -107.5710  -76.8380 O.co2     1 NDP302      0.0000 
     49 H51A       10.9800 -109.2480  -82.8590 H         1 NDP302      0.0000 
     50 H52A       11.7200 -109.3520  -81.2600 H         1 NDP302      0.0000 
     51 H4B         9.8000 -107.1710  -82.1840 H         1 NDP302      0.0000 
     52 H3B        11.6820 -106.9620  -80.1470 H         1 NDP302      0.0000 
     53 HO3A       10.2180 -105.2630  -80.8640 H         1 NDP302      0.0000 
     54 H2B        10.8630 -108.7320  -78.8390 H         1 NDP302      0.0000 
     55 H1B         8.0280 -107.9110  -79.5240 H         1 NDP302      0.0000 
     56 H8A        10.1670 -111.1520  -79.6480 H         1 NDP302      0.0000 
     57 H61A        6.0130 -113.4300  -75.4780 H         1 NDP302      0.0000 
     58 H62A        7.4260 -113.7660  -76.4540 H         1 NDP302      0.0000 
     59 H2A         4.9090 -109.0620  -76.3510 H         1 NDP302      0.0000 
     60 H51N        9.8050 -108.9550  -85.1360 H         1 NDP302      0.0000 
     61 H52N        9.8320 -107.8880  -86.5450 H         1 NDP302      0.0000 
     62 H4D         8.0100 -109.4490  -86.8270 H         1 NDP302      0.0000 
     63 H3D         9.5020 -111.3300  -85.4210 H         1 NDP302      0.0000 
     64 HO3N        7.6980 -112.6910  -86.1040 H         1 NDP302      0.0000 
     65 H2D        10.9430 -111.9470  -87.1760 H         1 NDP302      0.0000 
     66 HO2N        9.6140 -113.8220  -86.6070 H         1 NDP302      0.0000 
     67 H1D         8.6300 -111.6710  -89.1290 H         1 NDP302      0.0000 
     68 H2N        11.9530 -110.1300  -88.6680 H         1 NDP302      0.0000 
     69 H71N       15.2570 -108.7580  -89.4460 H         1 NDP302      0.0000 
     70 H72N       13.6550 -109.0000  -88.7860 H         1 NDP302      0.0000 
     71 H41N       12.6800 -110.9200  -92.6700 H         1 NDP302      0.0000 
     72 H42N       13.3500 -112.3450  -91.8760 H         1 NDP302      0.0000 
     73 H5N        11.0060 -112.8220  -92.7140 H         1 NDP302      0.0000 
     74 H6N         9.4070 -112.5770  -90.9040 H         1 NDP302      0.0000 
@<TRIPOS>BOND
     1    1    2 ar   
     2    1    3 ar   
     3    1    4 1    
     4    1   23 1    
     5    4    5 1    
     6    5    6 1    
     7    5   49 1    
     8    5   50 1    
     9    6    7 1    
    10    6    8 1    
    11    6   51 1    
    12    7   12 1    
    13    8    9 1    
    14    8   10 1    
    15    8   52 1    
    16    9   53 1    
    17   10   11 1    
    18   10   12 1    
    19   10   54 1    
    20   11   45 1    
    21   12   13 1    
    22   12   55 1    
    23   13   14 1    
    24   13   22 1    
    25   14   15 2    
    26   14   56 1    
    27   15   16 1    
    28   16   17 ar   
    29   16   22 ar   
    30   17   18 1    
    31   17   19 ar   
    32   18   57 1    
    33   18   58 1    
    34   19   20 ar   
    35   20   21 ar   
    36   20   59 1    
    37   21   22 ar   
    38   23   24 1    
    39   24   25 ar   
    40   24   26 ar   
    41   24   27 1    
    42   27   28 1    
    43   28   29 1    
    44   28   60 1    
    45   28   61 1    
    46   29   30 1    
    47   29   31 1    
    48   29   62 1    
    49   30   35 1    
    50   31   32 1    
    51   31   33 1    
    52   31   63 1    
    53   32   64 1    
    54   33   34 1    
    55   33   35 1    
    56   33   65 1    
    57   34   66 1    
    58   35   36 1    
    59   35   67 1    
    60   36   37 1    
    61   36   44 1    
    62   37   38 2    
    63   37   68 1    
    64   38   39 1    
    65   38   42 1    
    66   39   40 2    
    67   39   41 am   
    68   41   69 1    
    69   41   70 1    
    70   42   43 1    
    71   42   71 1    
    72   42   72 1    
    73   43   44 2    
    74   43   73 1    
    75   44   74 1    
    76   45   46 ar   
    77   45   47 ar   
    78   45   48 ar   
@<TRIPOS>SUBSTRUCTURE
     1 NDP302      1 GROUP   
@<TRIPOS>SET
ATOM$ORANGE STATIC     ATOMS   COLORGROUP SYSTEM 
42 5 5 6 6 8 8 10 10 12 12 14 14 16 16 17 17 20 \
20 22 22 28 28 29 29 31 31 33 33 35 35 37 37 38 38 39 \
39 42 42 43 43 44 44 

