#    Name: 5z2l_5_NDP_CAVITY_N1_4
#    Modification time : Fri May 22 19:28:04 2020

@<TRIPOS>MOLECULE
5z2l_5_NDP_CAVITY_N1_4
   71     0     5     0     0
SMALL
NO_CHARGES


@<TRIPOS>ATOM
      1 OG         16.5300 -133.1300 -120.1100 O.3       1 SER1        0.0000 
      2 OG         12.8900 -129.0600 -118.8300 O.3       1 SER1        0.0000 
      3 OG         13.2200 -130.5000 -118.5800 O.3       1 SER1        0.0000 
      4 OG         14.3300 -128.7800 -119.1200 O.3       1 SER1        0.0000 
      5 OG         14.6600 -130.2200 -118.8700 O.3       1 SER1        0.0000 
      6 OG         15.7700 -128.5000 -119.4100 O.3       1 SER1        0.0000 
      7 OG         16.7700 -132.8200 -118.6600 O.3       1 SER1        0.0000 
      8 OG         13.4500 -130.1900 -117.1300 O.3       1 SER1        0.0000 
      9 OG         14.8900 -129.9100 -117.4200 O.3       1 SER1        0.0000 
     10 OG         16.0100 -128.1900 -117.9600 O.3       1 SER1        0.0000 
     11 OG         16.3400 -129.6300 -117.7100 O.3       1 SER1        0.0000 
     12 OG         17.0000 -132.5200 -117.2100 O.3       1 SER1        0.0000 
     13 OG         13.6800 -129.8900 -115.6800 O.3       1 SER1        0.0000 
     14 OG         15.1300 -129.6100 -115.9700 O.3       1 SER1        0.0000 
     15 OG         16.2400 -127.8900 -116.5100 O.3       1 SER1        0.0000 
     16 N          14.2900 -132.5700 -122.9700 N.am      2 ALA2        0.0000 
     17 N          15.7400 -132.2900 -123.2600 N.am      2 ALA2        0.0000 
     18 N          12.7500 -131.1100 -121.4800 N.am      2 ALA2        0.0000 
     19 N          13.0800 -132.5500 -121.2300 N.am      2 ALA2        0.0000 
     20 N          14.1900 -130.8300 -121.7700 N.am      2 ALA2        0.0000 
     21 N          11.5400 -131.0800 -119.7400 N.am      2 ALA2        0.0000 
     22 N          14.1000 -129.0800 -120.5700 N.am      2 ALA2        0.0000 
     23 N          11.7700 -130.7800 -118.2900 N.am      2 ALA2        0.0000 
     24 N          15.4600 -131.0500 -115.7200 N.am      2 ALA2        0.0000 
     25 O          16.9000 -130.7700 -116.0100 O.2       2 ALA2        0.0000 
     26 N          17.2300 -132.2100 -115.7600 N.am      2 ALA2        0.0000 
     27 O          18.0200 -129.0500 -116.5500 O.2       2 ALA2        0.0000 
     28 N          15.6900 -130.7400 -114.2700 N.am      2 ALA2        0.0000 
     29 O          16.8100 -129.0200 -114.8100 O.2       2 ALA2        0.0000 
     30 O          17.1400 -130.4600 -114.5600 O.2       2 ALA2        0.0000 
     31 O          17.9200 -127.3000 -115.3500 O.2       2 ALA2        0.0000 
     32 OD1        17.5100 -133.4500 -123.3000 O.co2     3 ASP3        0.0000 
     33 OD1        12.6500 -129.3600 -120.2800 O.co2     3 ASP3        0.0000 
     34 CA         17.1800 -132.0100 -123.5500 C.3       4 GLY6        0.0000 
     35 CA         15.9700 -131.9900 -121.8100 C.3       4 GLY6        0.0000 
     36 CA         16.6300 -134.8700 -121.3100 C.3       4 GLY6        0.0000 
     37 CA         17.4100 -131.7100 -122.1000 C.3       4 GLY6        0.0000 
     38 CA         17.7400 -133.1500 -121.8500 C.3       4 GLY6        0.0000 
     39 CA         11.8700 -132.5300 -119.4900 C.3       4 GLY6        0.0000 
     40 CA         13.6500 -133.6900 -119.5300 C.3       4 GLY6        0.0000 
     41 CA         15.0900 -133.4100 -119.8200 C.3       4 GLY6        0.0000 
     42 CA         15.8700 -130.2400 -120.6100 C.3       4 GLY6        0.0000 
     43 CA         16.2000 -131.6800 -120.3600 C.3       4 GLY6        0.0000 
     44 CA         16.8600 -134.5700 -119.8600 C.3       4 GLY6        0.0000 
     45 CA         12.1000 -132.2200 -118.0400 C.3       4 GLY6        0.0000 
     46 CA         13.5500 -131.9400 -118.3300 C.3       4 GLY6        0.0000 
     47 CA         14.9900 -131.6600 -118.6200 C.3       4 GLY6        0.0000 
     48 CA         16.1100 -129.9400 -119.1600 C.3       4 GLY6        0.0000 
     49 CA         16.4400 -131.3800 -118.9100 C.3       4 GLY6        0.0000 
     50 CA         17.5500 -129.6600 -119.4500 C.3       4 GLY6        0.0000 
     51 CA         12.3400 -131.9200 -116.5900 C.3       4 GLY6        0.0000 
     52 CA         13.7800 -131.6400 -116.8800 C.3       4 GLY6        0.0000 
     53 CA         15.2300 -131.3500 -117.1700 C.3       4 GLY6        0.0000 
     54 CA         15.5600 -132.8000 -116.9200 C.3       4 GLY6        0.0000 
     55 CA         17.7800 -129.3500 -118.0000 C.3       4 GLY6        0.0000 
     56 CA         18.1100 -130.7900 -117.7500 C.3       4 GLY6        0.0000 
     57 CA         14.0100 -131.3300 -115.4300 C.3       4 GLY6        0.0000 
     58 CA         14.3500 -132.7700 -115.1800 C.3       4 GLY6        0.0000 
     59 CA         15.7900 -132.4900 -115.4700 C.3       4 GLY6        0.0000 
     60 CA         18.3500 -130.4900 -116.3000 C.3       4 GLY6        0.0000 
     61 CA         19.4600 -128.7700 -116.8400 C.3       4 GLY6        0.0000 
     62 DU         16.0700 -133.7400 -123.0100 H         5 CUB7        0.0000 
     63 DU         14.5300 -132.2700 -121.5200 H         5 CUB7        0.0000 
     64 DU         14.8600 -133.7100 -121.2700 H         5 CUB7        0.0000 
     65 DU         16.3000 -133.4300 -121.5600 H         5 CUB7        0.0000 
     66 DU         12.9800 -130.8000 -120.0300 H         5 CUB7        0.0000 
     67 DU         13.3100 -132.2500 -119.7800 H         5 CUB7        0.0000 
     68 DU         14.4300 -130.5200 -120.3200 H         5 CUB7        0.0000 
     69 DU         14.7600 -131.9600 -120.0700 H         5 CUB7        0.0000 
     70 DU         16.6700 -131.0700 -117.4600 H         5 CUB7        0.0000 
     71 DU         16.5700 -129.3300 -116.2600 H         5 CUB7        0.0000 
@<TRIPOS>BOND
@<TRIPOS>SUBSTRUCTURE
     1 SER1        1 GROUP   
     2 ALA2       16 GROUP   
     3 ASP3       32 GROUP   
     4 GLY6       34 GROUP   
     5 CUB7       62 GROUP   
@<TRIPOS>SET

