#    Name: 5z2l_5_NDP
#    Modification time : Fri May 22 19:28:01 2020

@<TRIPOS>MOLECULE
5z2l_5_NDP
   74    78     1     0     1
SMALL
NO_CHARGES


@<TRIPOS>ATOM
      1 PA         17.3570 -133.1880 -123.1220 P.3       1 NDP303      0.0000 
      2 O1A        18.4260 -134.0870 -122.5640 O.co2     1 NDP303      0.0000 
      3 O2A        17.6730 -131.8480 -123.7600 O.co2     1 NDP303      0.0000 
      4 O5B        16.3400 -134.0400 -124.0170 O.3       1 NDP303      0.0000 
      5 C5B        15.2890 -133.3110 -124.6370 C.3       1 NDP303      0.0000 
      6 C4B        14.2990 -134.2480 -125.2890 C.3       1 NDP303      0.0000 
      7 O4B        13.2230 -133.4580 -125.7890 O.3       1 NDP303      0.0000 
      8 C3B        14.9170 -134.9740 -126.4690 C.3       1 NDP303      0.0000 
      9 O3B        14.2910 -136.2330 -126.6980 O.3       1 NDP303      0.0000 
     10 C2B        14.5260 -134.0700 -127.6340 C.3       1 NDP303      0.0000 
     11 O2B        14.4840 -134.7390 -128.8900 O.3       1 NDP303      0.0000 
     12 C1B        13.1400 -133.6100 -127.1940 C.3       1 NDP303      0.0000 
     13 N9A        12.8180 -132.3320 -127.8690 N.pl3     1 NDP303      0.0000 
     14 C8A        13.3740 -131.1110 -127.6520 C.2       1 NDP303      0.0000 
     15 N7A        12.8490 -130.2070 -128.5310 N.2       1 NDP303      0.0000 
     16 C5A        11.9610 -130.8740 -129.3040 C.ar      1 NDP303      0.0000 
     17 C6A        11.0550 -130.5530 -130.4120 C.ar      1 NDP303      0.0000 
     18 N6A        10.9880 -129.2750 -130.8710 N.pl3     1 NDP303      0.0000 
     19 N1A        10.3040 -131.5370 -130.9420 N.ar      1 NDP303      0.0000 
     20 C2A        10.3480 -132.8030 -130.4850 C.ar      1 NDP303      0.0000 
     21 N3A        11.1470 -133.1810 -129.4700 N.ar      1 NDP303      0.0000 
     22 C4A        11.9600 -132.2780 -128.8700 C.ar      1 NDP303      0.0000 
     23 O3         16.2660 -132.8430 -121.9930 O.3       1 NDP303      0.0000 
     24 PN         16.0340 -133.4590 -120.5210 P.3       1 NDP303      0.0000 
     25 O1N        17.0420 -132.8250 -119.5910 O.co2     1 NDP303      0.0000 
     26 O2N        15.7230 -134.9340 -120.6600 O.co2     1 NDP303      0.0000 
     27 O5D        14.6190 -132.7230 -120.2920 O.3       1 NDP303      0.0000 
     28 C5D        13.3730 -133.3470 -120.5790 C.3       1 NDP303      0.0000 
     29 C4D        12.2570 -132.4920 -119.9820 C.3       1 NDP303      0.0000 
     30 O4D        12.5250 -132.3790 -118.5800 O.3       1 NDP303      0.0000 
     31 C3D        12.2180 -131.0570 -120.5140 C.3       1 NDP303      0.0000 
     32 O3D        10.8510 -130.6460 -120.6210 O.3       1 NDP303      0.0000 
     33 C2D        12.9500 -130.2490 -119.4660 C.3       1 NDP303      0.0000 
     34 O2D        12.5620 -128.8730 -119.3900 O.3       1 NDP303      0.0000 
     35 C1D        12.5580 -130.9980 -118.1960 C.3       1 NDP303      0.0000 
     36 N1N        13.4550 -130.8210 -117.0540 N.pl3     1 NDP303      0.0000 
     37 C2N        14.7200 -131.2800 -117.0500 C.2       1 NDP303      0.0000 
     38 C3N        15.5290 -131.1230 -115.9120 C.2       1 NDP303      0.0000 
     39 C7N        16.9460 -131.6160 -115.8330 C.2       1 NDP303      0.0000 
     40 O7N        17.6490 -131.2370 -114.9010 O.2       1 NDP303      0.0000 
     41 N7N        17.4180 -132.4570 -116.7460 N.am      1 NDP303      0.0000 
     42 C4N        15.0360 -130.4330 -114.6670 C.3       1 NDP303      0.0000 
     43 C5N        13.6610 -129.9900 -114.8000 C.2       1 NDP303      0.0000 
     44 C6N        12.9420 -130.2190 -115.9660 C.2       1 NDP303      0.0000 
     45 P2B        15.4500 -134.3700 -130.1450 P.3       1 NDP303      0.0000 
     46 O1X        15.2010 -135.5330 -131.0760 O.co2     1 NDP303      0.0000 
     47 O2X        14.8980 -133.0680 -130.6930 O.co2     1 NDP303      0.0000 
     48 O3X        16.8440 -134.2160 -129.5810 O.co2     1 NDP303      0.0000 
     49 H51A       14.7760 -132.7020 -123.8900 H         1 NDP303      0.0000 
     50 H52A       15.7060 -132.6390 -125.3900 H         1 NDP303      0.0000 
     51 H4B        13.9380 -134.9790 -124.5520 H         1 NDP303      0.0000 
     52 H3B        16.0090 -135.0500 -126.3710 H         1 NDP303      0.0000 
     53 HO3A       14.5150 -136.8390 -125.9790 H         1 NDP303      0.0000 
     54 H2B        15.2040 -133.2060 -127.6740 H         1 NDP303      0.0000 
     55 H1B        12.4010 -134.3800 -127.4550 H         1 NDP303      0.0000 
     56 H8A        14.1240 -130.8910 -126.9030 H         1 NDP303      0.0000 
     57 H61A       10.3640 -129.0440 -131.6310 H         1 NDP303      0.0000 
     58 H62A       11.5640 -128.5580 -130.4540 H         1 NDP303      0.0000 
     59 H2A         9.7190 -133.5490 -130.9570 H         1 NDP303      0.0000 
     60 H51N       13.2400 -133.4340 -121.6590 H         1 NDP303      0.0000 
     61 H52N       13.3490 -134.3490 -120.1460 H         1 NDP303      0.0000 
     62 H4D        11.2870 -132.9780 -120.1540 H         1 NDP303      0.0000 
     63 H3D        12.7380 -130.9930 -121.4800 H         1 NDP303      0.0000 
     64 HO3N       10.8120 -129.7400 -120.9570 H         1 NDP303      0.0000 
     65 H2D        14.0340 -130.3400 -119.6240 H         1 NDP303      0.0000 
     66 HO2N       12.7500 -128.4380 -120.2330 H         1 NDP303      0.0000 
     67 H1D        11.5460 -130.6780 -117.9120 H         1 NDP303      0.0000 
     68 H2N        15.1090 -131.7930 -117.9210 H         1 NDP303      0.0000 
     69 H71N       18.3700 -132.7870 -116.6850 H         1 NDP303      0.0000 
     70 H72N       16.8250 -132.7640 -117.5050 H         1 NDP303      0.0000 
     71 H41N       15.1130 -131.1180 -113.8210 H         1 NDP303      0.0000 
     72 H42N       15.6730 -129.5720 -114.4560 H         1 NDP303      0.0000 
     73 H5N        13.1830 -129.4800 -113.9720 H         1 NDP303      0.0000 
     74 H6N        11.9220 -129.8600 -116.0150 H         1 NDP303      0.0000 
@<TRIPOS>BOND
     1    1    2 ar   
     2    1    3 ar   
     3    1    4 1    
     4    1   23 1    
     5    4    5 1    
     6    5    6 1    
     7    5   49 1    
     8    5   50 1    
     9    6    7 1    
    10    6    8 1    
    11    6   51 1    
    12    7   12 1    
    13    8    9 1    
    14    8   10 1    
    15    8   52 1    
    16    9   53 1    
    17   10   11 1    
    18   10   12 1    
    19   10   54 1    
    20   11   45 1    
    21   12   13 1    
    22   12   55 1    
    23   13   14 1    
    24   13   22 1    
    25   14   15 2    
    26   14   56 1    
    27   15   16 1    
    28   16   17 ar   
    29   16   22 ar   
    30   17   18 1    
    31   17   19 ar   
    32   18   57 1    
    33   18   58 1    
    34   19   20 ar   
    35   20   21 ar   
    36   20   59 1    
    37   21   22 ar   
    38   23   24 1    
    39   24   25 ar   
    40   24   26 ar   
    41   24   27 1    
    42   27   28 1    
    43   28   29 1    
    44   28   60 1    
    45   28   61 1    
    46   29   30 1    
    47   29   31 1    
    48   29   62 1    
    49   30   35 1    
    50   31   32 1    
    51   31   33 1    
    52   31   63 1    
    53   32   64 1    
    54   33   34 1    
    55   33   35 1    
    56   33   65 1    
    57   34   66 1    
    58   35   36 1    
    59   35   67 1    
    60   36   37 1    
    61   36   44 1    
    62   37   38 2    
    63   37   68 1    
    64   38   39 1    
    65   38   42 1    
    66   39   40 2    
    67   39   41 am   
    68   41   69 1    
    69   41   70 1    
    70   42   43 1    
    71   42   71 1    
    72   42   72 1    
    73   43   44 2    
    74   43   73 1    
    75   44   74 1    
    76   45   46 ar   
    77   45   47 ar   
    78   45   48 ar   
@<TRIPOS>SUBSTRUCTURE
     1 NDP303      1 GROUP   
@<TRIPOS>SET
ATOM$ORANGE STATIC     ATOMS   COLORGROUP SYSTEM 
42 5 5 6 6 8 8 10 10 12 12 14 14 16 16 17 17 20 \
20 22 22 28 28 29 29 31 31 33 33 35 35 37 37 38 38 39 \
39 42 42 43 43 44 44 

