#    Name: 5z2l_10_NDP
#    Modification time : Fri May 22 19:28:26 2020

@<TRIPOS>MOLECULE
5z2l_10_NDP
   74    78     1     0     1
SMALL
NO_CHARGES


@<TRIPOS>ATOM
      1 PA         -8.0390 -139.9550   -1.3380 P.3       1 NDP301      0.0000 
      2 O1A        -7.9070 -139.9460   -2.8240 O.co2     1 NDP301      0.0000 
      3 O2A        -8.9460 -140.8710   -0.5310 O.co2     1 NDP301      0.0000 
      4 O5B        -6.5820 -140.0430   -0.6780 O.3       1 NDP301      0.0000 
      5 C5B        -6.4700 -140.0760    0.7170 C.3       1 NDP301      0.0000 
      6 C4B        -5.0200 -140.0080    1.1240 C.3       1 NDP301      0.0000 
      7 O4B        -5.0090 -139.9330    2.5360 O.3       1 NDP301      0.0000 
      8 C3B        -4.2410 -141.2690    0.7140 C.3       1 NDP301      0.0000 
      9 O3B        -2.8440 -141.0110    0.4740 O.3       1 NDP301      0.0000 
     10 C2B        -4.3420 -142.1190    1.9510 C.3       1 NDP301      0.0000 
     11 O2B        -3.2790 -143.0650    2.0300 O.3       1 NDP301      0.0000 
     12 C1B        -4.2720 -141.0620    3.0410 C.3       1 NDP301      0.0000 
     13 N9A        -4.8270 -141.5930    4.2840 N.pl3     1 NDP301      0.0000 
     14 C8A        -6.1330 -141.8390    4.5400 C.2       1 NDP301      0.0000 
     15 N7A        -6.2520 -142.3820    5.7730 N.2       1 NDP301      0.0000 
     16 C5A        -5.0110 -142.5110    6.2950 C.ar      1 NDP301      0.0000 
     17 C6A        -4.4330 -143.0020    7.5560 C.ar      1 NDP301      0.0000 
     18 N6A        -5.2400 -143.4950    8.5130 N.pl3     1 NDP301      0.0000 
     19 N1A        -3.1030 -142.9210    7.7400 N.ar      1 NDP301      0.0000 
     20 C2A        -2.2920 -142.4470    6.7800 C.ar      1 NDP301      0.0000 
     21 N3A        -2.7480 -141.9850    5.5910 N.ar      1 NDP301      0.0000 
     22 C4A        -4.0740 -141.9890    5.3080 C.ar      1 NDP301      0.0000 
     23 O3         -8.4580 -138.4900   -0.7800 O.3       1 NDP301      0.0000 
     24 PN         -8.2660 -137.0580   -1.4620 P.3       1 NDP301      0.0000 
     25 O1N        -9.5250 -136.7650   -2.2240 O.co2     1 NDP301      0.0000 
     26 O2N        -6.9390 -136.8630   -2.1810 O.co2     1 NDP301      0.0000 
     27 O5D        -8.2930 -136.2270   -0.0960 O.3       1 NDP301      0.0000 
     28 C5D        -7.1280 -135.6630    0.5000 C.3       1 NDP301      0.0000 
     29 C4D        -7.5540 -134.6690    1.5670 C.3       1 NDP301      0.0000 
     30 O4D        -8.2950 -133.6120    0.9290 O.3       1 NDP301      0.0000 
     31 C3D        -8.4650 -135.2540    2.6450 C.3       1 NDP301      0.0000 
     32 O3D        -8.1200 -134.6910    3.9120 O.3       1 NDP301      0.0000 
     33 C2D        -9.8530 -134.8670    2.1800 C.3       1 NDP301      0.0000 
     34 O2D       -10.8300 -134.8430    3.2430 O.3       1 NDP301      0.0000 
     35 C1D        -9.5610 -133.4970    1.5750 C.3       1 NDP301      0.0000 
     36 N1N       -10.5440 -133.0560    0.6050 N.pl3     1 NDP301      0.0000 
     37 C2N       -10.7440 -133.6730   -0.5690 C.2       1 NDP301      0.0000 
     38 C3N       -11.6980 -133.2060   -1.4750 C.2       1 NDP301      0.0000 
     39 C7N       -11.9890 -133.8150   -2.8170 C.2       1 NDP301      0.0000 
     40 O7N       -12.9320 -133.3960   -3.4590 O.2       1 NDP301      0.0000 
     41 N7N       -11.1920 -134.7580   -3.3280 N.am      1 NDP301      0.0000 
     42 C4N       -12.5130 -131.9670   -1.1760 C.3       1 NDP301      0.0000 
     43 C5N       -12.1910 -131.4130    0.1180 C.2       1 NDP301      0.0000 
     44 C6N       -11.2360 -131.9550    0.9330 C.2       1 NDP301      0.0000 
     45 P2B        -3.5860 -144.6720    2.0780 P.3       1 NDP301      0.0000 
     46 O1X        -2.1530 -145.1760    1.8940 O.co2     1 NDP301      0.0000 
     47 O2X        -4.0720 -145.0030    3.4310 O.co2     1 NDP301      0.0000 
     48 O3X        -4.4750 -144.9430    0.9300 O.co2     1 NDP301      0.0000 
     49 H51A       -7.0120 -139.2330    1.1480 H         1 NDP301      0.0000 
     50 H52A       -6.9150 -140.9970    1.0990 H         1 NDP301      0.0000 
     51 H4B        -4.5500 -139.1190    0.6820 H         1 NDP301      0.0000 
     52 H3B        -4.7230 -141.7660   -0.1390 H         1 NDP301      0.0000 
     53 HO3A       -2.7480 -140.4650   -0.3190 H         1 NDP301      0.0000 
     54 H2B        -5.3200 -142.6190    1.9800 H         1 NDP301      0.0000 
     55 H1B        -3.2200 -140.7820    3.1930 H         1 NDP301      0.0000 
     56 H8A        -6.9530 -141.6380    3.8620 H         1 NDP301      0.0000 
     57 H61A       -4.8480 -143.8210    9.3850 H         1 NDP301      0.0000 
     58 H62A       -6.2390 -143.5160    8.3700 H         1 NDP301      0.0000 
     59 H2A        -1.2250 -142.4310    6.9660 H         1 NDP301      0.0000 
     60 H51N       -6.5210 -136.4520    0.9480 H         1 NDP301      0.0000 
     61 H52N       -6.5290 -135.1590   -0.2610 H         1 NDP301      0.0000 
     62 H4D        -6.6550 -134.2580    2.0470 H         1 NDP301      0.0000 
     63 H3D        -8.3680 -136.3480    2.6590 H         1 NDP301      0.0000 
     64 HO3N       -8.6950 -135.0610    4.5960 H         1 NDP301      0.0000 
     65 H2D       -10.1700 -135.5530    1.3830 H         1 NDP301      0.0000 
     66 HO2N      -10.9090 -135.7260    3.6280 H         1 NDP301      0.0000 
     67 H1D        -9.4940 -132.7630    2.3900 H         1 NDP301      0.0000 
     68 H2N       -10.1630 -134.5540   -0.8140 H         1 NDP301      0.0000 
     69 H71N      -11.3910 -135.1490   -4.2380 H         1 NDP301      0.0000 
     70 H72N      -10.3980 -135.0900   -2.7990 H         1 NDP301      0.0000 
     71 H41N      -12.3260 -131.2170   -1.9470 H         1 NDP301      0.0000 
     72 H42N      -13.5760 -132.2180   -1.2060 H         1 NDP301      0.0000 
     73 H5N       -12.7170 -130.5270    0.4500 H         1 NDP301      0.0000 
     74 H6N       -11.0420 -131.4850    1.8900 H         1 NDP301      0.0000 
@<TRIPOS>BOND
     1    1    2 ar   
     2    1    3 ar   
     3    1    4 1    
     4    1   23 1    
     5    4    5 1    
     6    5    6 1    
     7    5   49 1    
     8    5   50 1    
     9    6    7 1    
    10    6    8 1    
    11    6   51 1    
    12    7   12 1    
    13    8    9 1    
    14    8   10 1    
    15    8   52 1    
    16    9   53 1    
    17   10   11 1    
    18   10   12 1    
    19   10   54 1    
    20   11   45 1    
    21   12   13 1    
    22   12   55 1    
    23   13   14 1    
    24   13   22 1    
    25   14   15 2    
    26   14   56 1    
    27   15   16 1    
    28   16   17 ar   
    29   16   22 ar   
    30   17   18 1    
    31   17   19 ar   
    32   18   57 1    
    33   18   58 1    
    34   19   20 ar   
    35   20   21 ar   
    36   20   59 1    
    37   21   22 ar   
    38   23   24 1    
    39   24   25 ar   
    40   24   26 ar   
    41   24   27 1    
    42   27   28 1    
    43   28   29 1    
    44   28   60 1    
    45   28   61 1    
    46   29   30 1    
    47   29   31 1    
    48   29   62 1    
    49   30   35 1    
    50   31   32 1    
    51   31   33 1    
    52   31   63 1    
    53   32   64 1    
    54   33   34 1    
    55   33   35 1    
    56   33   65 1    
    57   34   66 1    
    58   35   36 1    
    59   35   67 1    
    60   36   37 1    
    61   36   44 1    
    62   37   38 2    
    63   37   68 1    
    64   38   39 1    
    65   38   42 1    
    66   39   40 2    
    67   39   41 am   
    68   41   69 1    
    69   41   70 1    
    70   42   43 1    
    71   42   71 1    
    72   42   72 1    
    73   43   44 2    
    74   43   73 1    
    75   44   74 1    
    76   45   46 ar   
    77   45   47 ar   
    78   45   48 ar   
@<TRIPOS>SUBSTRUCTURE
     1 NDP301      1 GROUP   
@<TRIPOS>SET
ATOM$ORANGE STATIC     ATOMS   COLORGROUP SYSTEM 
42 5 5 6 6 8 8 10 10 12 12 14 14 16 16 17 17 20 \
20 22 22 28 28 29 29 31 31 33 33 35 35 37 37 38 38 39 \
39 42 42 43 43 44 44 

