#    Name: 6efg_4_TPP
#    Modification time : Fri May 22 19:36:03 2020

@<TRIPOS>MOLECULE
6efg_4_TPP
   26    27     1     0     1
SMALL
NO_CHARGES


@<TRIPOS>ATOM
      1 N1'         6.7380   16.2520    1.6280 N.ar      1 TPP600      0.0000 
      2 C2'         6.1380   15.0580    1.2300 C.ar      1 TPP600      0.0000 
      3 CM2         4.7120   14.8970    0.8220 C.3       1 TPP600      0.0000 
      4 N3'         6.8330   13.9330    1.1910 N.ar      1 TPP600      0.0000 
      5 C4'         8.1470   13.9170    1.5290 C.ar      1 TPP600      0.0000 
      6 N4'         8.8150   12.7510    1.5050 N.pl3     1 TPP600      0.0000 
      7 C5'         8.8120   15.1480    1.9690 C.ar      1 TPP600      0.0000 
      8 C6'         8.0360   16.3140    1.9930 C.ar      1 TPP600      0.0000 
      9 C7'        10.2300   15.0360    2.4070 C.3       1 TPP600      0.0000 
     10 N3         10.3690   14.3160    3.7310 N.pl3     1 TPP600      0.0000 
     11 C2         10.9060   13.0560    3.9150 C.2       1 TPP600      0.0000 
     12 S1         11.0010   12.4510    5.5690 S.3       1 TPP600      0.0000 
     13 C5         10.3170   13.9520    6.0730 C.2       1 TPP600      0.0000 
     14 C4         10.0550   14.8340    4.9370 C.2       1 TPP600      0.0000 
     15 CM4         9.4830   16.1910    5.1210 C.3       1 TPP600      0.0000 
     16 C6         10.1030   14.2110    7.5530 C.3       1 TPP600      0.0000 
     17 C7          9.7820   13.0160    8.4220 C.3       1 TPP600      0.0000 
     18 O7          9.3500   13.4490    9.6900 O.3       1 TPP600      0.0000 
     19 PA          8.5880   12.4080   10.6850 P.3       1 TPP600      0.0000 
     20 O1A         7.3460   11.7770   10.0700 O.co2     1 TPP600      0.0000 
     21 O2A         8.4200   13.0840   12.0140 O.co2     1 TPP600      0.0000 
     22 O3A         9.6910   11.2480   10.8000 O.3       1 TPP600      0.0000 
     23 PB         10.9280   11.0430   11.8330 P.3       1 TPP600      0.0000 
     24 O1B        11.9640   10.8080   10.7850 O.co2     1 TPP600      0.0000 
     25 O2B        10.4560    9.8650   12.6410 O.co2     1 TPP600      0.0000 
     26 O3B        11.0500   12.2810   12.7290 O.co2     1 TPP600      0.0000 
@<TRIPOS>BOND
     1    1    2 ar   
     2    1    8 ar   
     3    2    3 1    
     4    2    4 ar   
     5    4    5 ar   
     6    5    6 1    
     7    5    7 ar   
     8    7    8 ar   
     9    7    9 1    
    10    9   10 1    
    11   10   11 2    
    12   10   14 1    
    13   11   12 1    
    14   12   13 1    
    15   13   14 2    
    16   13   16 1    
    17   14   15 1    
    18   16   17 1    
    19   17   18 1    
    20   18   19 1    
    21   19   20 ar   
    22   19   21 ar   
    23   19   22 1    
    24   22   23 1    
    25   23   24 ar   
    26   23   25 ar   
    27   23   26 ar   
@<TRIPOS>SUBSTRUCTURE
     1 TPP600      1 GROUP   
@<TRIPOS>SET
ATOM$ORANGE STATIC     ATOMS   COLORGROUP SYSTEM 
24 2 2 3 3 5 5 7 7 8 8 9 9 11 11 13 13 14 \
14 15 15 16 16 17 17 

