#    Name: 5nx9_4_AMP
#    Modification time : Fri May 22 19:17:39 2020

@<TRIPOS>MOLECULE
5nx9_4_AMP
   23    25     1     0     1
SMALL
NO_CHARGES


@<TRIPOS>ATOM
      1 P         -10.3950   18.6300   24.2540 P.3       1 AMP502      0.0000 
      2 O1P       -10.1150   18.3860   22.8080 O.co2     1 AMP502      0.0000 
      3 O2P        -9.2920   18.1660   25.1830 O.co2     1 AMP502      0.0000 
      4 O3P       -11.7960   18.2240   24.6590 O.co2     1 AMP502      0.0000 
      5 O5'       -10.3750   20.2100   24.5300 O.3       1 AMP502      0.0000 
      6 C5'        -9.2500   21.0240   24.2190 C.3       1 AMP502      0.0000 
      7 C4'        -9.4470   22.3390   24.9410 C.3       1 AMP502      0.0000 
      8 O4'        -8.2800   23.1630   24.7750 O.3       1 AMP502      0.0000 
      9 C3'       -10.6410   23.0890   24.3550 C.3       1 AMP502      0.0000 
     10 O3'       -11.3590   23.8300   25.3440 O.3       1 AMP502      0.0000 
     11 C2'        -9.9670   24.0240   23.3870 C.3       1 AMP502      0.0000 
     12 O2'       -10.7680   25.1500   23.0250 O.3       1 AMP502      0.0000 
     13 C1'        -8.6820   24.3850   24.1370 C.3       1 AMP502      0.0000 
     14 N9         -7.6300   24.7980   23.2150 N.pl3     1 AMP502      0.0000 
     15 C8         -7.7880   25.2420   21.9470 C.2       1 AMP502      0.0000 
     16 N7         -6.5830   25.4880   21.3880 N.2       1 AMP502      0.0000 
     17 C5         -5.6590   25.2140   22.3230 C.ar      1 AMP502      0.0000 
     18 C6         -4.2050   25.2600   22.3920 C.ar      1 AMP502      0.0000 
     19 N6         -3.5160   25.6610   21.3200 N.pl3     1 AMP502      0.0000 
     20 N1         -3.5960   24.8790   23.5130 N.ar      1 AMP502      0.0000 
     21 C2         -4.2920   24.4640   24.5720 C.ar      1 AMP502      0.0000 
     22 N3         -5.6200   24.4050   24.5750 N.ar      1 AMP502      0.0000 
     23 C4         -6.3400   24.7450   23.4970 C.ar      1 AMP502      0.0000 
@<TRIPOS>BOND
     1    1    2 ar   
     2    1    3 ar   
     3    1    4 ar   
     4    1    5 1    
     5    5    6 1    
     6    6    7 1    
     7    7    8 1    
     8    7    9 1    
     9    8   13 1    
    10    9   10 1    
    11    9   11 1    
    12   11   12 1    
    13   11   13 1    
    14   13   14 1    
    15   14   15 1    
    16   14   23 1    
    17   15   16 2    
    18   16   17 1    
    19   17   18 ar   
    20   17   23 ar   
    21   18   19 1    
    22   18   20 ar   
    23   20   21 ar   
    24   21   22 ar   
    25   22   23 ar   
@<TRIPOS>SUBSTRUCTURE
     1 AMP502      1 GROUP   
@<TRIPOS>SET
ATOM$ORANGE STATIC     ATOMS   COLORGROUP SYSTEM 
20 6 6 7 7 9 9 11 11 13 13 15 15 17 17 18 18 21 \
21 23 23 

