#    Name: 5nx9_1_FUM
#    Modification time : Fri May 22 19:17:25 2020

@<TRIPOS>MOLECULE
5nx9_1_FUM
    8     7     1     0     0
SMALL
NO_CHARGES


@<TRIPOS>ATOM
      1 O1        -19.2520  -16.3470   42.3040 O.co2     1 FUM504      0.0000 
      2 C2        -19.6570  -17.2200   41.4940 C.2       1 FUM504      0.0000 
      3 O3        -20.8680  -17.3670   41.2750 O.co2     1 FUM504      0.0000 
      4 C4        -18.7210  -18.1600   40.8280 C.2       1 FUM504      0.0000 
      5 C5        -17.4460  -18.2620   41.2310 C.2       1 FUM504      0.0000 
      6 C6        -16.5410  -19.3260   40.6900 C.2       1 FUM504      0.0000 
      7 O7        -16.6980  -19.8280   39.5560 O.co2     1 FUM504      0.0000 
      8 O8        -15.6670  -19.7610   41.4620 O.co2     1 FUM504      0.0000 
@<TRIPOS>BOND
     1    1    2 ar   
     2    2    3 ar   
     3    2    4 1    
     4    4    5 2    
     5    5    6 1    
     6    6    7 ar   
     7    6    8 ar   
@<TRIPOS>SUBSTRUCTURE
     1 FUM504      1 GROUP   
@<TRIPOS>SET

