#    Name: 5nx9_1_FUM_CAVITY_N1_6
#    Modification time : Fri May 22 19:17:26 2020

@<TRIPOS>MOLECULE
5nx9_1_FUM_CAVITY_N1_6
    3     0     2     0     0
SMALL
NO_CHARGES


@<TRIPOS>ATOM
      1 OG        -19.0300  -23.8600   41.5700 O.3       1 SER1        0.0000 
      2 CA        -20.3800  -23.6000   42.1600 C.3       2 GLY6        0.0000 
      3 CA        -18.7400  -21.7700   41.3300 C.3       2 GLY6        0.0000 
@<TRIPOS>BOND
@<TRIPOS>SUBSTRUCTURE
     1 SER1        1 GROUP   
     2 GLY6        2 GROUP   
@<TRIPOS>SET

