#    Name: 5nx9_4_AMP_CAVITY_N1_4
#    Modification time : Fri May 22 19:17:40 2020

@<TRIPOS>MOLECULE
5nx9_4_AMP_CAVITY_N1_4
   49     0     6     0     0
SMALL
NO_CHARGES


@<TRIPOS>ATOM
      1 OG         -7.8800   26.2600   22.3600 O.3       1 SER1        0.0000 
      2 OG         -7.6000   25.2700   23.4500 O.3       1 SER1        0.0000 
      3 OG         -6.5300   26.0100   21.7700 O.3       1 SER1        0.0000 
      4 OG         -5.1700   25.7500   21.1800 O.3       1 SER1        0.0000 
      5 OG         -5.9500   27.1000   22.6200 O.3       1 SER1        0.0000 
      6 OG         -5.6700   26.1100   23.7000 O.3       1 SER1        0.0000 
      7 OG         -4.6000   26.8400   22.0300 O.3       1 SER1        0.0000 
      8 OG         -3.5200   27.5800   20.3500 O.3       1 SER1        0.0000 
      9 OG         -5.6600   29.1900   22.3800 O.3       1 SER1        0.0000 
     10 OG         -4.0200   27.9400   22.8800 O.3       1 SER1        0.0000 
     11 OG         -2.9500   28.6700   21.2000 O.3       1 SER1        0.0000 
     12 OG         -2.6600   27.6800   22.2900 O.3       1 SER1        0.0000 
     13 N         -11.4600   23.6000   22.9300 N.am      2 ALA2        0.0000 
     14 N         -10.8900   24.6900   23.7700 N.am      2 ALA2        0.0000 
     15 O         -10.6000   23.7000   24.8600 O.2       2 ALA2        0.0000 
     16 N          -9.5300   24.4300   23.1900 N.am      2 ALA2        0.0000 
     17 N          -3.5300   24.5000   21.6800 N.am      2 ALA2        0.0000 
     18 N          -4.8800   27.8400   20.9400 N.am      2 ALA2        0.0000 
     19 N          -3.2400   26.5900   21.4400 N.am      2 ALA2        0.0000 
     20 N          -2.9600   25.5900   22.5300 N.am      2 ALA2        0.0000 
     21 N          -4.3000   28.9300   21.7900 N.am      2 ALA2        0.0000 
     22 OD1       -10.4000   21.2500   22.5800 O.co2     3 ASP3        0.0000 
     23 OD1       -11.1800   22.6000   24.0200 O.co2     3 ASP3        0.0000 
     24 OD1       -10.8900   21.6100   25.1000 O.co2     3 ASP3        0.0000 
     25 OD1        -9.5400   21.3500   24.5100 O.co2     3 ASP3        0.0000 
     26 OD1        -3.8100   28.5700   19.2600 O.co2     3 ASP3        0.0000 
     27 NZ         -9.2500   23.4400   24.2700 N.4       4 LYS4        0.0000 
     28 NZ         -8.9600   22.4500   25.3600 N.4       4 LYS4        0.0000 
     29 NZ         -7.6100   22.1900   24.7700 N.4       4 LYS4        0.0000 
     30 NZ         -8.6700   24.5400   25.1200 N.4       4 LYS4        0.0000 
     31 NZ         -7.3100   24.2800   24.5300 N.4       4 LYS4        0.0000 
     32 CZ         -9.8100   25.4300   22.1000 C.ar      5 PHE5        0.0000 
     33 CZ         -7.1000   24.9100   20.9200 C.ar      5 PHE5        0.0000 
     34 CZ         -8.9500   25.5300   24.0300 C.ar      5 PHE5        0.0000 
     35 CA        -10.1100   23.3400   22.3400 C.3       6 GLY6        0.0000 
     36 CA         -9.8200   22.3500   23.4300 C.3       6 GLY6        0.0000 
     37 CA         -8.4600   25.1700   21.5100 C.3       6 GLY6        0.0000 
     38 CA         -8.1800   24.1800   22.6000 C.3       6 GLY6        0.0000 
     39 CA         -7.8900   23.1800   23.6900 C.3       6 GLY6        0.0000 
     40 CA         -6.8200   23.9200   22.0100 C.3       6 GLY6        0.0000 
     41 CA         -6.2500   21.9300   24.1800 C.3       6 GLY6        0.0000 
     42 CA         -6.2400   25.0100   22.8600 C.3       6 GLY6        0.0000 
     43 CA         -5.9600   24.0200   23.9400 C.3       6 GLY6        0.0000 
     44 CA         -4.8900   24.7600   22.2700 C.3       6 GLY6        0.0000 
     45 CA         -4.6000   23.7600   23.3600 C.3       6 GLY6        0.0000 
     46 CA         -4.3200   22.7700   24.4400 C.3       6 GLY6        0.0000 
     47 CA         -5.3800   25.1200   24.7900 C.3       6 GLY6        0.0000 
     48 CA         -4.3100   25.8500   23.1200 C.3       6 GLY6        0.0000 
     49 CA         -4.0300   24.8600   24.2000 C.3       6 GLY6        0.0000 
@<TRIPOS>BOND
@<TRIPOS>SUBSTRUCTURE
     1 SER1        1 GROUP   
     2 ALA2       13 GROUP   
     3 ASP3       22 GROUP   
     4 LYS4       27 GROUP   
     5 PHE5       32 GROUP   
     6 GLY6       35 GROUP   
@<TRIPOS>SET

