#    Name: 5nx9_1_FUM_CAVITY_N1_8
#    Modification time : Fri May 22 19:17:26 2020

@<TRIPOS>MOLECULE
5nx9_1_FUM_CAVITY_N1_8
   22     0     3     0     0
SMALL
NO_CHARGES


@<TRIPOS>ATOM
      1 OG        -20.9600  -24.7000   41.3100 O.3       1 SER1        0.0000 
      2 OG        -19.6100  -24.9600   40.7300 O.3       1 SER1        0.0000 
      3 OG        -19.0300  -23.8600   41.5700 O.3       1 SER1        0.0000 
      4 N         -20.6800  -25.6900   42.4000 N.am      2 ALA2        0.0000 
      5 N         -19.3200  -25.9500   41.8100 N.am      2 ALA2        0.0000 
      6 N         -26.0900  -21.5800   43.4300 N.am      2 ALA2        0.0000 
      7 N         -26.8700  -20.2300   44.8700 N.am      2 ALA2        0.0000 
      8 N         -25.5100  -20.4800   44.2800 N.am      2 ALA2        0.0000 
      9 N         -25.2300  -21.4800   45.3700 N.am      2 ALA2        0.0000 
     10 N         -26.2900  -19.1300   45.7100 N.am      2 ALA2        0.0000 
     11 CA        -24.5300  -24.2800   40.5600 C.3       3 GLY6        0.0000 
     12 CA        -26.6700  -22.6700   42.5800 C.3       3 GLY6        0.0000 
     13 CA        -25.3100  -22.9300   41.9900 C.3       3 GLY6        0.0000 
     14 CA        -25.0300  -23.9200   43.0800 C.3       3 GLY6        0.0000 
     15 CA        -23.9600  -23.1900   41.4000 C.3       3 GLY6        0.0000 
     16 CA        -23.6700  -24.1800   42.4900 C.3       3 GLY6        0.0000 
     17 CA        -22.3200  -24.4400   41.9000 C.3       3 GLY6        0.0000 
     18 CA        -25.8100  -22.5700   44.5200 C.3       3 GLY6        0.0000 
     19 CA        -24.7300  -21.8400   42.8400 C.3       3 GLY6        0.0000 
     20 CA        -20.3800  -23.6000   42.1600 C.3       3 GLY6        0.0000 
     21 CA        -18.7500  -24.8500   42.6600 C.3       3 GLY6        0.0000 
     22 CA        -18.7400  -21.7700   41.3300 C.3       3 GLY6        0.0000 
@<TRIPOS>BOND
@<TRIPOS>SUBSTRUCTURE
     1 SER1        1 GROUP   
     2 ALA2        4 GROUP   
     3 GLY6       11 GROUP   
@<TRIPOS>SET

