#    Name: 6o4l_4_NAD
#    Modification time : Fri May 22 19:32:30 2020

@<TRIPOS>MOLECULE
6o4l_4_NAD
   44    48     1     0     1
SMALL
NO_CHARGES


@<TRIPOS>ATOM
      1 PA        -12.3390   12.5430   38.6120 P.3       1 NAD602      0.0000 
      2 O1A       -12.0040   13.0690   37.2350 O.co2     1 NAD602      0.0000 
      3 O2A       -13.8020   12.8110   38.9280 O.co2     1 NAD602      0.0000 
      4 O5B       -11.3660   13.2350   39.7020 O.3       1 NAD602      0.0000 
      5 C5B        -9.9760   13.3700   39.4270 C.3       1 NAD602      0.0000 
      6 C4B        -9.5300   14.7980   39.8580 C.3       1 NAD602      0.0000 
      7 O4B       -10.1100   15.6770   39.0870 O.3       1 NAD602      0.0000 
      8 C3B       -10.0070   15.1160   41.2760 C.3       1 NAD602      0.0000 
      9 O3B        -9.0550   15.8230   41.9280 O.3       1 NAD602      0.0000 
     10 C2B       -11.2580   16.0000   41.0610 C.3       1 NAD602      0.0000 
     11 O2B       -11.4800   16.8510   42.2650 O.3       1 NAD602      0.0000 
     12 C1B       -10.9530   16.6960   40.0120 C.3       1 NAD602      0.0000 
     13 N9A       -12.1000   17.1560   39.2890 N.pl3     1 NAD602      0.0000 
     14 C8A       -13.3520   16.6430   39.3170 C.2       1 NAD602      0.0000 
     15 N7A       -14.1330   17.3740   38.4920 N.2       1 NAD602      0.0000 
     16 C5A       -13.3590   18.3470   37.9260 C.ar      1 NAD602      0.0000 
     17 C6A       -13.6410   19.3560   37.0070 C.ar      1 NAD602      0.0000 
     18 N6A       -14.9180   19.6260   36.4050 N.pl3     1 NAD602      0.0000 
     19 N1A       -12.6750   20.1940   36.6080 N.ar      1 NAD602      0.0000 
     20 C2A       -11.4170   20.0380   37.1060 C.ar      1 NAD602      0.0000 
     21 N3A       -11.1350   19.0540   38.0110 N.ar      1 NAD602      0.0000 
     22 C4A       -12.1100   18.2060   38.4170 C.ar      1 NAD602      0.0000 
     23 O3        -12.0820   10.9690   38.5370 O.3       1 NAD602      0.0000 
     24 PN        -11.7370   10.0140   39.7700 P.3       1 NAD602      0.0000 
     25 O1N       -12.2060   10.6620   41.0670 O.co2     1 NAD602      0.0000 
     26 O2N       -10.2380    9.7670   39.8070 O.co2     1 NAD602      0.0000 
     27 O5D       -12.5290    8.6500   39.5460 O.3       1 NAD602      0.0000 
     28 C5D       -13.8980    8.7420   39.1760 C.3       1 NAD602      0.0000 
     29 C4D       -14.1820    7.6180   38.1770 C.3       1 NAD602      0.0000 
     30 O4D       -13.5720    7.8820   37.0440 O.3       1 NAD602      0.0000 
     31 C3D       -13.5280    6.3280   38.6530 C.3       1 NAD602      0.0000 
     32 O3D       -14.3200    5.6590   39.5220 O.3       1 NAD602      0.0000 
     33 C2D       -13.3510    5.5610   37.3180 C.3       1 NAD602      0.0000 
     34 O2D       -14.6490    4.9550   36.9350 O.3       1 NAD602      0.0000 
     35 C1D       -13.0240    6.4770   36.4560 C.3       1 NAD602      0.0000 
     36 N1N       -11.5950    6.5000   36.2140 N.pl3     1 NAD602      0.0000 
     37 C2N       -11.0560    5.5090   35.4240 C.ar      1 NAD602      0.0000 
     38 C3N        -9.6850    5.4760   35.1510 C.ar      1 NAD602      0.0000 
     39 C7N        -9.1520    4.3190   34.2560 C.2       1 NAD602      0.0000 
     40 O7N        -7.9780    4.0090   34.2850 O.2       1 NAD602      0.0000 
     41 N7N       -10.0740    3.6190   33.3880 N.am      1 NAD602      0.0000 
     42 C4N        -8.8520    6.4450   35.6690 C.ar      1 NAD602      0.0000 
     43 C5N        -9.3860    7.4440   36.4670 C.ar      1 NAD602      0.0000 
     44 C6N       -10.7660    7.4690   36.7340 C.ar      1 NAD602      0.0000 
@<TRIPOS>BOND
     1    1    2 ar   
     2    1    3 ar   
     3    1    4 1    
     4    1   23 1    
     5    4    5 1    
     6    5    6 1    
     7    6    7 1    
     8    6    8 1    
     9    7   12 1    
    10    8    9 1    
    11    8   10 1    
    12   10   11 1    
    13   10   12 1    
    14   12   13 1    
    15   13   14 1    
    16   13   22 1    
    17   14   15 2    
    18   15   16 1    
    19   16   17 ar   
    20   16   22 ar   
    21   17   18 1    
    22   17   19 ar   
    23   19   20 ar   
    24   20   21 ar   
    25   21   22 ar   
    26   23   24 1    
    27   24   25 ar   
    28   24   26 ar   
    29   24   27 1    
    30   27   28 1    
    31   28   29 1    
    32   29   30 1    
    33   29   31 1    
    34   30   35 1    
    35   31   32 1    
    36   31   33 1    
    37   33   34 1    
    38   33   35 1    
    39   35   36 1    
    40   36   37 ar   
    41   36   44 ar   
    42   37   38 ar   
    43   38   39 1    
    44   38   42 ar   
    45   39   40 2    
    46   39   41 am   
    47   42   43 ar   
    48   43   44 ar   
@<TRIPOS>SUBSTRUCTURE
     1 NAD602      1 GROUP   
@<TRIPOS>SET
ATOM$ORANGE STATIC     ATOMS   COLORGROUP SYSTEM 
42 5 5 6 6 8 8 10 10 12 12 14 14 16 16 17 17 20 \
20 22 22 28 28 29 29 31 31 33 33 35 35 37 37 38 38 39 \
39 42 42 43 43 44 44 

