#    Name: 6o4l_2_NAD
#    Modification time : Fri May 22 19:32:16 2020

@<TRIPOS>MOLECULE
6o4l_2_NAD
   44    48     1     0     1
SMALL
NO_CHARGES


@<TRIPOS>ATOM
      1 PA         -7.9970   31.0100    7.4790 P.3       1 NAD603      0.0000 
      2 O1A        -7.8940   30.4780    8.8990 O.co2     1 NAD603      0.0000 
      3 O2A        -9.4400   31.3780    7.1670 O.co2     1 NAD603      0.0000 
      4 O5B        -7.5550   29.8700    6.4330 O.3       1 NAD603      0.0000 
      5 C5B        -6.4470   29.0230    6.7270 C.3       1 NAD603      0.0000 
      6 C4B        -6.8010   27.5950    6.2160 C.3       1 NAD603      0.0000 
      7 O4B        -7.7210   27.1160    6.9940 O.3       1 NAD603      0.0000 
      8 C3B        -7.4180   27.6250    4.8180 C.3       1 NAD603      0.0000 
      9 O3B        -6.9260   26.5800    4.1160 O.3       1 NAD603      0.0000 
     10 C2B        -8.9390   27.4280    5.0710 C.3       1 NAD603      0.0000 
     11 O2B        -9.5730   26.7580    3.9060 O.3       1 NAD603      0.0000 
     12 C1B        -8.9750   26.6570    6.1160 C.3       1 NAD603      0.0000 
     13 N9A       -10.1680   26.8030    6.8640 N.pl3     1 NAD603      0.0000 
     14 C8A       -11.0120   27.8560    6.8290 C.2       1 NAD603      0.0000 
     15 N7A       -12.0310   27.6140    7.6780 N.2       1 NAD603      0.0000 
     16 C5A       -11.8150   26.3990    8.2480 C.ar      1 NAD603      0.0000 
     17 C6A       -12.5410   25.6770    9.1800 C.ar      1 NAD603      0.0000 
     18 N6A       -13.7600   26.1220    9.7630 N.pl3     1 NAD603      0.0000 
     19 N1A       -12.1210   24.4790    9.6020 N.ar      1 NAD603      0.0000 
     20 C2A       -10.9650   23.9610    9.1000 C.ar      1 NAD603      0.0000 
     21 N3A       -10.2490   24.6660    8.1790 N.ar      1 NAD603      0.0000 
     22 C4A       -10.6730   25.8880    7.7500 C.ar      1 NAD603      0.0000 
     23 O3         -7.0730   32.2860    7.4740 O.3       1 NAD603      0.0000 
     24 PN         -6.5620   33.0840    6.2010 P.3       1 NAD603      0.0000 
     25 O1N        -5.2330   32.4600    5.8110 O.co2     1 NAD603      0.0000 
     26 O2N        -7.5990   32.9910    5.0950 O.co2     1 NAD603      0.0000 
     27 O5D        -6.3600   34.5900    6.6690 O.3       1 NAD603      0.0000 
     28 C5D        -7.5040   35.4210    6.7980 C.3       1 NAD603      0.0000 
     29 C4D        -7.1840   36.4400    7.8930 C.3       1 NAD603      0.0000 
     30 O4D        -6.7870   35.8090    8.9730 O.3       1 NAD603      0.0000 
     31 C3D        -5.9780   37.2710    7.4860 C.3       1 NAD603      0.0000 
     32 O3D        -6.3600   38.3440    6.7630 O.3       1 NAD603      0.0000 
     33 C2D        -5.4300   37.7210    8.8580 C.3       1 NAD603      0.0000 
     34 O2D        -6.2040   38.8960    9.3100 O.3       1 NAD603      0.0000 
     35 C1D        -5.6440   36.7240    9.6550 C.3       1 NAD603      0.0000 
     36 N1N        -4.4150   35.9910    9.8580 N.pl3     1 NAD603      0.0000 
     37 C2N        -3.3940   36.5970   10.5690 C.ar      1 NAD603      0.0000 
     38 C3N        -2.1920   35.9250   10.7930 C.ar      1 NAD603      0.0000 
     39 C7N        -1.0720   36.6560   11.5870 C.2       1 NAD603      0.0000 
     40 O7N         0.0930   36.3300   11.4760 O.2       1 NAD603      0.0000 
     41 N7N        -1.4250   37.7490   12.4590 N.am      1 NAD603      0.0000 
     42 C4N        -2.0180   34.6510   10.2930 C.ar      1 NAD603      0.0000 
     43 C5N        -3.0390   34.0440    9.5800 C.ar      1 NAD603      0.0000 
     44 C6N        -4.2440   34.7190    9.3630 C.ar      1 NAD603      0.0000 
@<TRIPOS>BOND
     1    1    2 ar   
     2    1    3 ar   
     3    1    4 1    
     4    1   23 1    
     5    4    5 1    
     6    5    6 1    
     7    6    7 1    
     8    6    8 1    
     9    7   12 1    
    10    8    9 1    
    11    8   10 1    
    12   10   11 1    
    13   10   12 1    
    14   12   13 1    
    15   13   14 1    
    16   13   22 1    
    17   14   15 2    
    18   15   16 1    
    19   16   17 ar   
    20   16   22 ar   
    21   17   18 1    
    22   17   19 ar   
    23   19   20 ar   
    24   20   21 ar   
    25   21   22 ar   
    26   23   24 1    
    27   24   25 ar   
    28   24   26 ar   
    29   24   27 1    
    30   27   28 1    
    31   28   29 1    
    32   29   30 1    
    33   29   31 1    
    34   30   35 1    
    35   31   32 1    
    36   31   33 1    
    37   33   34 1    
    38   33   35 1    
    39   35   36 1    
    40   36   37 ar   
    41   36   44 ar   
    42   37   38 ar   
    43   38   39 1    
    44   38   42 ar   
    45   39   40 2    
    46   39   41 am   
    47   42   43 ar   
    48   43   44 ar   
@<TRIPOS>SUBSTRUCTURE
     1 NAD603      1 GROUP   
@<TRIPOS>SET
ATOM$ORANGE STATIC     ATOMS   COLORGROUP SYSTEM 
42 5 5 6 6 8 8 10 10 12 12 14 14 16 16 17 17 20 \
20 22 22 28 28 29 29 31 31 33 33 35 35 37 37 38 38 39 \
39 42 42 43 43 44 44 

