#    Name: 6o4l_3_NAD
#    Modification time : Fri May 22 19:32:23 2020

@<TRIPOS>MOLECULE
6o4l_3_NAD
   44    48     1     0     1
SMALL
NO_CHARGES


@<TRIPOS>ATOM
      1 PA         53.0270   14.1670   38.2850 P.3       1 NAD601      0.0000 
      2 O1A        52.6230   13.8900   36.8400 O.co2     1 NAD601      0.0000 
      3 O2A        54.4690   13.7820   38.5410 O.co2     1 NAD601      0.0000 
      4 O5B        52.0590   13.3620   39.3270 O.3       1 NAD601      0.0000 
      5 C5B        50.6520   13.2320   39.1090 C.3       1 NAD601      0.0000 
      6 C4B        50.2870   11.7310   39.3240 C.3       1 NAD601      0.0000 
      7 O4B        50.9380   11.0200   38.4450 O.3       1 NAD601      0.0000 
      8 C3B        50.7910   11.2520   40.6880 C.3       1 NAD601      0.0000 
      9 O3B        49.8910   10.4480   41.3040 O.3       1 NAD601      0.0000 
     10 C2B        52.0590   10.4390   40.3480 C.3       1 NAD601      0.0000 
     11 O2B        52.3680    9.4750   41.4440 O.3       1 NAD601      0.0000 
     12 C1B        51.7430    9.8690   39.2210 C.3       1 NAD601      0.0000 
     13 N9A        52.8950    9.4550   38.4890 N.pl3     1 NAD601      0.0000 
     14 C8A        54.1460    9.9650   38.6210 C.2       1 NAD601      0.0000 
     15 N7A        54.9660    9.2940   37.7810 N.2       1 NAD601      0.0000 
     16 C5A        54.2310    8.3640   37.1130 C.ar      1 NAD601      0.0000 
     17 C6A        54.5780    7.4360   36.1440 C.ar      1 NAD601      0.0000 
     18 N6A        55.8810    7.2350   35.5910 N.pl3     1 NAD601      0.0000 
     19 N1A        53.6470    6.6260   35.6380 N.ar      1 NAD601      0.0000 
     20 C2A        52.3600    6.7250   36.0740 C.ar      1 NAD601      0.0000 
     21 N3A        52.0140    7.6320   37.0230 N.ar      1 NAD601      0.0000 
     22 C4A        52.9540    8.4560   37.5520 C.ar      1 NAD601      0.0000 
     23 O3         52.8310   15.7340   38.5060 O.3       1 NAD601      0.0000 
     24 PN         52.6370   16.4920   39.9010 P.3       1 NAD601      0.0000 
     25 O1N        53.2160   15.6610   41.0380 O.co2     1 NAD601      0.0000 
     26 O2N        51.1560   16.7390   40.1280 O.co2     1 NAD601      0.0000 
     27 O5D        53.4340   17.8700   39.7980 O.3       1 NAD601      0.0000 
     28 C5D        54.6870   17.8490   39.1220 C.3       1 NAD601      0.0000 
     29 C4D        54.8270   19.1220   38.2720 C.3       1 NAD601      0.0000 
     30 O4D        54.2350   18.9700   37.1100 O.3       1 NAD601      0.0000 
     31 C3D        54.0670   20.2780   38.9100 C.3       1 NAD601      0.0000 
     32 O3D        54.7780   20.8730   39.8950 O.3       1 NAD601      0.0000 
     33 C2D        53.8660   21.2140   37.6900 C.3       1 NAD601      0.0000 
     34 O2D        55.1200   21.9440   37.3930 O.3       1 NAD601      0.0000 
     35 C1D        53.5910   20.4030   36.7190 C.3       1 NAD601      0.0000 
     36 N1N        52.1600   20.3320   36.5530 N.pl3     1 NAD601      0.0000 
     37 C2N        51.5190   21.4030   35.9690 C.ar      1 NAD601      0.0000 
     38 C3N        50.1320   21.3840   35.7870 C.ar      1 NAD601      0.0000 
     39 C7N        49.4660   22.6250   35.1280 C.2       1 NAD601      0.0000 
     40 O7N        48.2650   22.7900   35.1880 O.2       1 NAD601      0.0000 
     41 N7N        50.2930   23.5870   34.4400 N.am      1 NAD601      0.0000 
     42 C4N        49.3940   20.2930   36.1970 C.ar      1 NAD601      0.0000 
     43 C5N        50.0380   19.2180   36.7880 C.ar      1 NAD601      0.0000 
     44 C6N        51.4270   19.2420   36.9630 C.ar      1 NAD601      0.0000 
@<TRIPOS>BOND
     1    1    2 ar   
     2    1    3 ar   
     3    1    4 1    
     4    1   23 1    
     5    4    5 1    
     6    5    6 1    
     7    6    7 1    
     8    6    8 1    
     9    7   12 1    
    10    8    9 1    
    11    8   10 1    
    12   10   11 1    
    13   10   12 1    
    14   12   13 1    
    15   13   14 1    
    16   13   22 1    
    17   14   15 2    
    18   15   16 1    
    19   16   17 ar   
    20   16   22 ar   
    21   17   18 1    
    22   17   19 ar   
    23   19   20 ar   
    24   20   21 ar   
    25   21   22 ar   
    26   23   24 1    
    27   24   25 ar   
    28   24   26 ar   
    29   24   27 1    
    30   27   28 1    
    31   28   29 1    
    32   29   30 1    
    33   29   31 1    
    34   30   35 1    
    35   31   32 1    
    36   31   33 1    
    37   33   34 1    
    38   33   35 1    
    39   35   36 1    
    40   36   37 ar   
    41   36   44 ar   
    42   37   38 ar   
    43   38   39 1    
    44   38   42 ar   
    45   39   40 2    
    46   39   41 am   
    47   42   43 ar   
    48   43   44 ar   
@<TRIPOS>SUBSTRUCTURE
     1 NAD601      1 GROUP   
@<TRIPOS>SET
ATOM$ORANGE STATIC     ATOMS   COLORGROUP SYSTEM 
42 5 5 6 6 8 8 10 10 12 12 14 14 16 16 17 17 20 \
20 22 22 28 28 29 29 31 31 33 33 35 35 37 37 38 38 39 \
39 42 42 43 43 44 44 

