#    Name: 6o4l_1_NAD_CAVITY_N1_4
#    Modification time : Fri May 22 19:32:12 2020

@<TRIPOS>MOLECULE
6o4l_1_NAD_CAVITY_N1_4
   84     0     5     0     0
SMALL
NO_CHARGES


@<TRIPOS>ATOM
      1 O          47.2200  -11.8100    4.4000 O.2       1 ALA2        0.0000 
      2 O          46.8400  -10.5600    3.6700 O.2       1 ALA2        0.0000 
      3 N          48.1500  -11.0300    5.2700 N.am      1 ALA2        0.0000 
      4 N          47.0300  -10.7900    6.2500 N.am      1 ALA2        0.0000 
      5 O          46.6600   -9.5300    5.5100 O.2       1 ALA2        0.0000 
      6 O          45.5500   -9.2900    6.4900 O.2       1 ALA2        0.0000 
      7 N          49.0800  -10.2400    6.1500 N.am      1 ALA2        0.0000 
      8 N          47.5900   -8.7400    6.3900 N.am      1 ALA2        0.0000 
      9 N          46.4800   -8.5000    7.3600 N.am      1 ALA2        0.0000 
     10 N          43.1300   -4.2600    7.1100 N.am      1 ALA2        0.0000 
     11 N          47.7800   -8.9700    8.9700 N.am      1 ALA2        0.0000 
     12 N          47.4100   -7.7200    8.2300 N.am      1 ALA2        0.0000 
     13 O          46.2900   -3.9600    6.0300 O.2       1 ALA2        0.0000 
     14 O          45.9200   -2.7000    5.3000 O.2       1 ALA2        0.0000 
     15 O          45.1800   -3.7200    7.0100 O.2       1 ALA2        0.0000 
     16 O          46.8500   -1.9100    6.1700 O.2       1 ALA2        0.0000 
     17 NZ         44.4300   -9.0500    7.4600 N.4       2 LYS4        0.0000 
     18 NZ         45.3600   -8.2600    8.3400 N.4       2 LYS4        0.0000 
     19 NZ         44.9900   -7.0100    7.6000 N.4       2 LYS4        0.0000 
     20 NZ         43.8800   -6.7700    8.5800 N.4       2 LYS4        0.0000 
     21 NZ         46.3000   -7.4800    9.2100 N.4       2 LYS4        0.0000 
     22 NZ         44.8100   -5.9800    9.4500 N.4       2 LYS4        0.0000 
     23 CZ         46.8400   -7.0400    0.4900 C.ar      3 PHE5        0.0000 
     24 CZ         46.1000   -8.0500    2.2000 C.ar      3 PHE5        0.0000 
     25 CZ         47.7700   -6.2500    1.3600 C.ar      3 PHE5        0.0000 
     26 CZ         47.4000   -5.0000    0.6300 C.ar      3 PHE5        0.0000 
     27 CZ         47.0300   -3.7400   -0.1100 C.ar      3 PHE5        0.0000 
     28 CZ         47.0300   -7.2600    3.0700 C.ar      3 PHE5        0.0000 
     29 CZ         46.6600   -6.0100    2.3400 C.ar      3 PHE5        0.0000 
     30 CZ         45.1700   -8.0400    5.7600 C.ar      3 PHE5        0.0000 
     31 CZ         44.8000   -6.7800    5.0200 C.ar      3 PHE5        0.0000 
     32 CZ         44.4300   -5.5300    4.2900 C.ar      3 PHE5        0.0000 
     33 CZ         44.0600   -7.8000    6.7300 C.ar      3 PHE5        0.0000 
     34 CZ         42.9400   -4.0400    4.5300 C.ar      3 PHE5        0.0000 
     35 CZ         42.9500   -7.5600    7.7100 C.ar      3 PHE5        0.0000 
     36 CZ         41.4600   -6.0600    7.9500 C.ar      3 PHE5        0.0000 
     37 CZ         47.5900   -5.2200    3.2100 C.ar      3 PHE5        0.0000 
     38 CZ         47.2200   -3.9700    2.4700 C.ar      3 PHE5        0.0000 
     39 CZ         46.4800   -4.9800    4.1800 C.ar      3 PHE5        0.0000 
     40 CZ         46.1000   -3.7300    3.4500 C.ar      3 PHE5        0.0000 
     41 CZ         45.3600   -4.7400    5.1600 C.ar      3 PHE5        0.0000 
     42 CZ         44.9900   -3.4900    4.4200 C.ar      3 PHE5        0.0000 
     43 CZ         44.6200   -5.7600    6.8700 C.ar      3 PHE5        0.0000 
     44 CZ         44.2500   -4.5000    6.1300 C.ar      3 PHE5        0.0000 
     45 CZ         43.5100   -5.5200    7.8400 C.ar      3 PHE5        0.0000 
     46 CA         45.9100  -11.3500    2.8000 C.3       4 GLY6        0.0000 
     47 CA         45.5400  -10.0900    2.0600 C.3       4 GLY6        0.0000 
     48 CA         47.9600  -10.8000    2.6900 C.3       4 GLY6        0.0000 
     49 CA         47.5800   -9.5500    1.9600 C.3       4 GLY6        0.0000 
     50 CA         47.2100   -8.2900    1.2200 C.3       4 GLY6        0.0000 
     51 CA         46.4700   -9.3100    2.9300 C.3       4 GLY6        0.0000 
     52 CA         49.6300   -9.0000    1.8500 C.3       4 GLY6        0.0000 
     53 CA         49.2600  -11.2700    4.3000 C.3       4 GLY6        0.0000 
     54 CA         48.8900  -10.0100    3.5600 C.3       4 GLY6        0.0000 
     55 CA         48.5200  -12.2800    6.0100 C.3       4 GLY6        0.0000 
     56 CA         46.2900   -8.2800    4.7800 C.3       4 GLY6        0.0000 
     57 CA         49.4500  -11.4900    6.8800 C.3       4 GLY6        0.0000 
     58 CA         43.8700   -3.2500    5.4000 C.3       4 GLY6        0.0000 
     59 CA         48.1500   -6.7000    6.5200 C.3       4 GLY6        0.0000 
     60 CA         47.7800   -5.4500    5.7900 C.3       4 GLY6        0.0000 
     61 CA         47.0400   -6.4600    7.5000 C.3       4 GLY6        0.0000 
     62 CA         46.6700   -5.2100    6.7600 C.3       4 GLY6        0.0000 
     63 CA         45.5500   -1.4500    4.5600 C.3       4 GLY6        0.0000 
     64 CA         45.9200   -6.2200    8.4700 C.3       4 GLY6        0.0000 
     65 CA         45.5500   -4.9700    7.7400 C.3       4 GLY6        0.0000 
     66 CA         44.8100   -2.4600    6.2700 C.3       4 GLY6        0.0000 
     67 CA         44.4400   -4.7300    8.7200 C.3       4 GLY6        0.0000 
     68 DU         48.5200   -8.7600    2.8300 H         5 CUB7        0.0000 
     69 DU         48.1400   -7.5000    2.1000 H         5 CUB7        0.0000 
     70 DU         47.7800   -9.7700    4.5400 H         5 CUB7        0.0000 
     71 DU         47.4000   -8.5200    3.8100 H         5 CUB7        0.0000 
     72 DU         49.4500   -4.4500    0.5200 H         5 CUB7        0.0000 
     73 DU         49.8200   -9.2200    4.4400 H         5 CUB7        0.0000 
     74 DU         49.4500   -7.9700    3.7000 H         5 CUB7        0.0000 
     75 DU         48.7000   -5.4600    2.2300 H         5 CUB7        0.0000 
     76 DU         48.3300   -4.2100    1.5000 H         5 CUB7        0.0000 
     77 DU         48.7100   -8.9800    5.4100 H         5 CUB7        0.0000 
     78 DU         47.9600   -6.4800    3.9400 H         5 CUB7        0.0000 
     79 DU         47.2200   -7.4900    5.6500 H         5 CUB7        0.0000 
     80 DU         46.8500   -6.2400    4.9200 H         5 CUB7        0.0000 
     81 DU         46.1100   -7.2500    6.6300 H         5 CUB7        0.0000 
     82 DU         45.7300   -6.0000    5.8900 H         5 CUB7        0.0000 
     83 DU         47.4100   -4.1900    5.0600 H         5 CUB7        0.0000 
     84 DU         47.0400   -2.9400    4.3200 H         5 CUB7        0.0000 
@<TRIPOS>BOND
@<TRIPOS>SUBSTRUCTURE
     1 ALA2        1 GROUP   
     2 LYS4       17 GROUP   
     3 PHE5       23 GROUP   
     4 GLY6       46 GROUP   
     5 CUB7       68 GROUP   
@<TRIPOS>SET

