#    Name: 6o4l_1_NAD
#    Modification time : Fri May 22 19:32:09 2020

@<TRIPOS>MOLECULE
6o4l_1_NAD
   44    48     1     0     1
SMALL
NO_CHARGES


@<TRIPOS>ATOM
      1 PA         48.5130   -1.5460    5.6980 P.3       1 NAD604      0.0000 
      2 O1A        48.3340   -1.1970    7.1720 O.co2     1 NAD604      0.0000 
      3 O2A        49.9620   -1.8490    5.4050 O.co2     1 NAD604      0.0000 
      4 O5B        47.9930   -0.3350    4.7440 O.3       1 NAD604      0.0000 
      5 C5B        46.9500    0.5260    5.2200 C.3       1 NAD604      0.0000 
      6 C4B        47.2610    2.0070    4.8420 C.3       1 NAD604      0.0000 
      7 O4B        48.2040    2.4470    5.6320 O.3       1 NAD604      0.0000 
      8 C3B        47.8120    2.1310    3.4140 C.3       1 NAD604      0.0000 
      9 O3B        47.3990    3.2970    2.8460 O.3       1 NAD604      0.0000 
     10 C2B        49.3420    2.2120    3.6680 C.3       1 NAD604      0.0000 
     11 O2B        49.9730    2.8890    2.5240 O.3       1 NAD604      0.0000 
     12 C1B        49.4250    2.9460    4.7480 C.3       1 NAD604      0.0000 
     13 N9A        50.6280    2.7620    5.4900 N.pl3     1 NAD604      0.0000 
     14 C8A        51.4900    1.7240    5.3960 C.2       1 NAD604      0.0000 
     15 N7A        52.5080    1.9270    6.2540 N.2       1 NAD604      0.0000 
     16 C5A        52.2770    3.1100    6.8840 C.ar      1 NAD604      0.0000 
     17 C6A        52.9930    3.7790    7.8510 C.ar      1 NAD604      0.0000 
     18 N6A        54.2200    3.3150    8.4140 N.pl3     1 NAD604      0.0000 
     19 N1A        52.5440    4.9430    8.3410 N.ar      1 NAD604      0.0000 
     20 C2A        51.3750    5.4580    7.8770 C.ar      1 NAD604      0.0000 
     21 N3A        50.6640    4.8020    6.9130 N.ar      1 NAD604      0.0000 
     22 C4A        51.1170    3.6200    6.4230 C.ar      1 NAD604      0.0000 
     23 O3         47.6050   -2.8310    5.5100 O.3       1 NAD604      0.0000 
     24 PN         47.0180   -3.4340    4.1650 P.3       1 NAD604      0.0000 
     25 O1N        47.9600   -3.1010    3.0160 O.co2     1 NAD604      0.0000 
     26 O2N        45.6070   -2.9370    3.9310 O.co2     1 NAD604      0.0000 
     27 O5D        46.9820   -5.0020    4.3950 O.3       1 NAD604      0.0000 
     28 C5D        48.0990   -5.5730    5.0560 C.3       1 NAD604      0.0000 
     29 C4D        47.5700   -6.7380    5.8950 C.3       1 NAD604      0.0000 
     30 O4D        47.0870   -6.3000    7.0330 O.3       1 NAD604      0.0000 
     31 C3D        46.3630   -7.3490    5.2020 C.3       1 NAD604      0.0000 
     32 O3D        46.7440   -8.2220    4.2460 O.3       1 NAD604      0.0000 
     33 C2D        45.6530   -8.0590    6.3830 C.3       1 NAD604      0.0000 
     34 O2D        46.2610   -9.3900    6.6200 O.3       1 NAD604      0.0000 
     35 C1D        45.8680   -7.2900    7.4060 C.3       1 NAD604      0.0000 
     36 N1N        44.6720   -6.5520    7.7210 N.pl3     1 NAD604      0.0000 
     37 C2N        43.6460   -7.2280    8.3460 C.ar      1 NAD604      0.0000 
     38 C3N        42.4600   -6.5750    8.6780 C.ar      1 NAD604      0.0000 
     39 C7N        41.3430   -7.4070    9.3810 C.2       1 NAD604      0.0000 
     40 O7N        40.1870   -7.0390    9.3590 O.2       1 NAD604      0.0000 
     41 N7N        41.6960   -8.6260   10.0710 N.am      1 NAD604      0.0000 
     42 C4N        42.3120   -5.2360    8.3770 C.ar      1 NAD604      0.0000 
     43 C5N        43.3430   -4.5570    7.7470 C.ar      1 NAD604      0.0000 
     44 C6N        44.5300   -5.2210    7.4170 C.ar      1 NAD604      0.0000 
@<TRIPOS>BOND
     1    1    2 ar   
     2    1    3 ar   
     3    1    4 1    
     4    1   23 1    
     5    4    5 1    
     6    5    6 1    
     7    6    7 1    
     8    6    8 1    
     9    7   12 1    
    10    8    9 1    
    11    8   10 1    
    12   10   11 1    
    13   10   12 1    
    14   12   13 1    
    15   13   14 1    
    16   13   22 1    
    17   14   15 2    
    18   15   16 1    
    19   16   17 ar   
    20   16   22 ar   
    21   17   18 1    
    22   17   19 ar   
    23   19   20 ar   
    24   20   21 ar   
    25   21   22 ar   
    26   23   24 1    
    27   24   25 ar   
    28   24   26 ar   
    29   24   27 1    
    30   27   28 1    
    31   28   29 1    
    32   29   30 1    
    33   29   31 1    
    34   30   35 1    
    35   31   32 1    
    36   31   33 1    
    37   33   34 1    
    38   33   35 1    
    39   35   36 1    
    40   36   37 ar   
    41   36   44 ar   
    42   37   38 ar   
    43   38   39 1    
    44   38   42 ar   
    45   39   40 2    
    46   39   41 am   
    47   42   43 ar   
    48   43   44 ar   
@<TRIPOS>SUBSTRUCTURE
     1 NAD604      1 GROUP   
@<TRIPOS>SET
ATOM$ORANGE STATIC     ATOMS   COLORGROUP SYSTEM 
42 5 5 6 6 8 8 10 10 12 12 14 14 16 16 17 17 20 \
20 22 22 28 28 29 29 31 31 33 33 35 35 37 37 38 38 39 \
39 42 42 43 43 44 44 

