#    Name: 6ppr_1_ANP_CAVITY_N1_4
#    Modification time : Fri May 22 19:33:08 2020

@<TRIPOS>MOLECULE
6ppr_1_ANP_CAVITY_N1_4
  110     0     6     0     0
SMALL
NO_CHARGES


@<TRIPOS>ATOM
      1 OG        163.7400  116.9400  131.3800 O.3       1 SER1        0.0000 
      2 OG        163.7400  118.1900  130.5500 O.3       1 SER1        0.0000 
      3 OG        162.9100  117.6300  132.4200 O.3       1 SER1        0.0000 
      4 OG        162.9100  118.8800  131.5900 O.3       1 SER1        0.0000 
      5 OG        162.9100  120.1300  130.7600 O.3       1 SER1        0.0000 
      6 OG        162.0800  118.3200  133.4600 O.3       1 SER1        0.0000 
      7 OG        162.0800  119.5700  132.6300 O.3       1 SER1        0.0000 
      8 OG        162.0800  120.8200  131.8000 O.3       1 SER1        0.0000 
      9 OG        161.2400  119.0200  134.5000 O.3       1 SER1        0.0000 
     10 OG        164.1500  115.5900  134.7800 O.3       1 SER1        0.0000 
     11 O         159.9900  118.0600  127.6400 O.2       2 ALA2        0.0000 
     12 O         159.1600  120.0000  127.8500 O.2       2 ALA2        0.0000 
     13 N         158.3300  120.6900  128.8900 N.am      2 ALA2        0.0000 
     14 N         162.9000  114.6300  127.9200 N.am      2 ALA2        0.0000 
     15 O         162.0700  115.3300  128.9600 O.2       2 ALA2        0.0000 
     16 O         162.0700  117.8200  127.3000 O.2       2 ALA2        0.0000 
     17 O         161.2400  114.7700  130.8300 O.2       2 ALA2        0.0000 
     18 O         161.2400  118.5200  128.3400 O.2       2 ALA2        0.0000 
     19 N         159.5800  117.4000  132.0800 N.am      2 ALA2        0.0000 
     20 N         159.5800  118.6500  131.2500 N.am      2 ALA2        0.0000 
     21 N         159.5800  119.9000  130.4200 N.am      2 ALA2        0.0000 
     22 N         158.7500  118.0900  133.1200 N.am      2 ALA2        0.0000 
     23 N         158.7500  119.3400  132.2900 N.am      2 ALA2        0.0000 
     24 N         158.7500  120.5900  131.4500 N.am      2 ALA2        0.0000 
     25 N         164.1500  115.0900  128.6100 N.am      2 ALA2        0.0000 
     26 O         163.3200  114.5400  130.4800 O.2       2 ALA2        0.0000 
     27 O         163.3200  115.7900  129.6500 O.2       2 ALA2        0.0000 
     28 O         163.3200  118.2800  127.9900 O.2       2 ALA2        0.0000 
     29 O         163.3200  119.5300  127.1600 O.2       2 ALA2        0.0000 
     30 O         162.4900  115.2300  131.5200 O.2       2 ALA2        0.0000 
     31 O         164.5700  115.0000  131.1800 O.2       2 ALA2        0.0000 
     32 N         164.5700  119.9900  127.8500 N.am      2 ALA2        0.0000 
     33 N         163.7400  113.1900  133.8800 N.am      2 ALA2        0.0000 
     34 N         163.7400  114.4400  133.0500 N.am      2 ALA2        0.0000 
     35 N         163.7400  119.4400  129.7200 N.am      2 ALA2        0.0000 
     36 N         163.7400  120.6900  128.8900 N.am      2 ALA2        0.0000 
     37 N         162.9000  112.6400  135.7500 N.am      2 ALA2        0.0000 
     38 N         162.9000  113.8800  134.9200 N.am      2 ALA2        0.0000 
     39 N         162.9100  121.3800  129.9300 N.am      2 ALA2        0.0000 
     40 N         165.8200  119.2000  129.3800 N.am      2 ALA2        0.0000 
     41 O         164.9900  114.9000  133.7400 O.2       2 ALA2        0.0000 
     42 O         164.9900  116.1500  132.9100 O.2       2 ALA2        0.0000 
     43 N         164.9900  119.9000  130.4200 N.am      2 ALA2        0.0000 
     44 OD1       160.8200  114.8700  128.2700 O.co2     3 ASP3        0.0000 
     45 OD1       160.8300  116.1200  127.4400 O.co2     3 ASP3        0.0000 
     46 OD1       159.9900  114.3100  130.1400 O.co2     3 ASP3        0.0000 
     47 OD1       159.9900  115.5600  129.3100 O.co2     3 ASP3        0.0000 
     48 OD1       159.9900  116.8100  128.4800 O.co2     3 ASP3        0.0000 
     49 OD1       159.1600  115.0000  131.1800 O.co2     3 ASP3        0.0000 
     50 OD1       159.1600  118.7500  128.6800 O.co2     3 ASP3        0.0000 
     51 OD1       161.2400  116.0200  130.0000 O.co2     3 ASP3        0.0000 
     52 OD1       161.2400  117.2700  129.1700 O.co2     3 ASP3        0.0000 
     53 OD1       160.4100  115.4600  131.8700 O.co2     3 ASP3        0.0000 
     54 OD1       160.4100  116.7100  131.0400 O.co2     3 ASP3        0.0000 
     55 OD1       160.4100  117.9600  130.2100 O.co2     3 ASP3        0.0000 
     56 OD1       159.5800  112.4100  135.4000 O.co2     3 ASP3        0.0000 
     57 OD1       159.5800  114.9100  133.7400 O.co2     3 ASP3        0.0000 
     58 OD1       159.5800  116.1500  132.9100 O.co2     3 ASP3        0.0000 
     59 OD1       158.7400  111.8500  137.2700 O.co2     3 ASP3        0.0000 
     60 OD1       158.7400  113.1000  136.4400 O.co2     3 ASP3        0.0000 
     61 OD1       161.6600  113.4200  134.2200 O.co2     3 ASP3        0.0000 
     62 OD1       161.6600  114.6700  133.3900 O.co2     3 ASP3        0.0000 
     63 OD1       160.8200  112.8700  136.0900 O.co2     3 ASP3        0.0000 
     64 OD1       160.8200  114.1200  135.2600 O.co2     3 ASP3        0.0000 
     65 OD1       160.8300  115.3700  134.4300 O.co2     3 ASP3        0.0000 
     66 NZ        160.4100  120.4600  128.5500 N.4       4 LYS4        0.0000 
     67 NZ        159.5800  121.1500  129.5800 N.4       4 LYS4        0.0000 
     68 NZ        162.4900  120.2200  128.2000 N.4       4 LYS4        0.0000 
     69 NZ        161.6600  120.9200  129.2400 N.4       4 LYS4        0.0000 
     70 NZ        160.8300  121.6100  130.2800 N.4       4 LYS4        0.0000 
     71 NZ        162.0800  122.0700  130.9700 N.4       4 LYS4        0.0000 
     72 CA        162.9100  115.8800  127.0900 C.3       5 GLY6        0.0000 
     73 CA        158.7500  121.8400  130.6200 C.3       5 GLY6        0.0000 
     74 CA        164.1500  116.3400  127.7800 C.3       5 GLY6        0.0000 
     75 CA        164.1500  117.5900  126.9500 C.3       5 GLY6        0.0000 
     76 CA        162.4900  113.9800  132.3500 C.3       5 GLY6        0.0000 
     77 CA        161.6600  112.1800  135.0600 C.3       5 GLY6        0.0000 
     78 CA        160.0000  119.8000  132.9800 C.3       5 GLY6        0.0000 
     79 CA        160.0000  121.0500  132.1500 C.3       5 GLY6        0.0000 
     80 CA        165.4000  118.0500  127.6400 C.3       5 GLY6        0.0000 
     81 CA        164.5700  113.7500  132.0100 C.3       5 GLY6        0.0000 
     82 CA        164.5700  116.2500  130.3500 C.3       5 GLY6        0.0000 
     83 CA        164.5700  117.5000  129.5100 C.3       5 GLY6        0.0000 
     84 CA        164.5700  118.7400  128.6800 C.3       5 GLY6        0.0000 
     85 CA        162.0700  117.0700  134.2900 C.3       5 GLY6        0.0000 
     86 CA        161.2400  120.2600  133.6700 C.3       5 GLY6        0.0000 
     87 CA        164.9800  113.6500  134.5700 C.3       5 GLY6        0.0000 
     88 CA        164.1500  116.8400  133.9500 C.3       5 GLY6        0.0000 
     89 CA        163.3200  117.5300  134.9900 C.3       5 GLY6        0.0000 
     90 DU        162.0700  116.5800  128.1300 H         6 CUB7        0.0000 
     91 DU        160.4100  119.2100  129.3800 H         6 CUB7        0.0000 
     92 DU        163.3200  117.0400  128.8200 H         6 CUB7        0.0000 
     93 DU        162.4900  116.4800  130.6900 H         6 CUB7        0.0000 
     94 DU        162.4900  117.7300  129.8600 H         6 CUB7        0.0000 
     95 DU        162.4900  118.9800  129.0300 H         6 CUB7        0.0000 
     96 DU        161.6600  115.9200  132.5600 H         6 CUB7        0.0000 
     97 DU        161.6600  117.1700  131.7300 H         6 CUB7        0.0000 
     98 DU        161.6600  118.4200  130.9000 H         6 CUB7        0.0000 
     99 DU        161.6600  119.6700  130.0700 H         6 CUB7        0.0000 
    100 DU        160.8300  116.6100  133.6000 H         6 CUB7        0.0000 
    101 DU        160.8300  117.8600  132.7700 H         6 CUB7        0.0000 
    102 DU        160.8300  119.1100  131.9400 H         6 CUB7        0.0000 
    103 DU        160.8300  120.3600  131.1100 H         6 CUB7        0.0000 
    104 DU        159.9900  116.0600  135.4700 H         6 CUB7        0.0000 
    105 DU        160.0000  118.5600  133.8100 H         6 CUB7        0.0000 
    106 DU        163.7400  115.6900  132.2200 H         6 CUB7        0.0000 
    107 DU        162.9100  115.1300  134.0900 H         6 CUB7        0.0000 
    108 DU        162.9100  116.3800  133.2500 H         6 CUB7        0.0000 
    109 DU        162.0700  114.5800  135.9600 H         6 CUB7        0.0000 
    110 DU        162.0700  115.8300  135.1300 H         6 CUB7        0.0000 
@<TRIPOS>BOND
@<TRIPOS>SUBSTRUCTURE
     1 SER1        1 GROUP   
     2 ALA2       11 GROUP   
     3 ASP3       44 GROUP   
     4 LYS4       66 GROUP   
     5 GLY6       72 GROUP   
     6 CUB7       90 GROUP   
@<TRIPOS>SET

