#    Name: 6ppr_1_ANP
#    Modification time : Fri May 22 19:33:07 2020

@<TRIPOS>MOLECULE
6ppr_1_ANP
   31    33     1     0     1
SMALL
NO_CHARGES


@<TRIPOS>ATOM
      1 PG        162.4790  118.5090  131.2390 P.3       1 ANP1101     0.0000 
      2 O1G       161.4550  119.5840  130.9790 O.co2     1 ANP1101     0.0000 
      3 O2G       162.7890  118.4960  132.7140 O.co2     1 ANP1101     0.0000 
      4 O3G       163.7390  118.8630  130.4900 O.co2     1 ANP1101     0.0000 
      5 PB        162.6710  115.6130  130.9080 P.3       1 ANP1101     0.0000 
      6 O1B       161.8490  114.4880  130.3420 O.co2     1 ANP1101     0.0000 
      7 O2B       164.1250  115.6970  130.5340 O.co2     1 ANP1101     0.0000 
      8 N3B       161.9140  117.0540  130.7570 N.3       1 ANP1101     0.0000 
      9 PA        163.8560  115.3540  133.5770 P.3       1 ANP1101     0.0000 
     10 O1A       164.0500  116.7450  134.0800 O.co2     1 ANP1101     0.0000 
     11 O2A       165.0290  114.6380  132.9950 O.co2     1 ANP1101     0.0000 
     12 O3A       162.6760  115.3650  132.4900 O.3       1 ANP1101     0.0000 
     13 O5'       163.2040  114.4550  134.7340 O.3       1 ANP1101     0.0000 
     14 C5'       164.0650  113.5550  135.4740 C.3       1 ANP1101     0.0000 
     15 C4'       163.2240  112.4990  136.1490 C.3       1 ANP1101     0.0000 
     16 O4'       163.9670  111.2540  136.1850 O.3       1 ANP1101     0.0000 
     17 C3'       162.8380  112.7790  137.6070 C.3       1 ANP1101     0.0000 
     18 O3'       161.5890  112.1850  137.9350 O.3       1 ANP1101     0.0000 
     19 C2'       163.9910  112.1280  138.3750 C.3       1 ANP1101     0.0000 
     20 O2'       163.6340  111.7720  139.6930 O.3       1 ANP1101     0.0000 
     21 C1'       164.2700  110.8980  137.5160 C.3       1 ANP1101     0.0000 
     22 N9        165.6610  110.4630  137.5610 N.pl3     1 ANP1101     0.0000 
     23 C8        166.4810  110.1620  136.5020 C.2       1 ANP1101     0.0000 
     24 N7        167.6850  109.8010  136.8830 N.2       1 ANP1101     0.0000 
     25 C5        167.6510  109.8710  138.2700 C.ar      1 ANP1101     0.0000 
     26 C6        168.6160  109.6120  139.2620 C.ar      1 ANP1101     0.0000 
     27 N6        169.8580  109.2130  139.0010 N.pl3     1 ANP1101     0.0000 
     28 N1        168.2420  109.7840  140.5520 N.ar      1 ANP1101     0.0000 
     29 C2        166.9910  110.1860  140.8100 C.ar      1 ANP1101     0.0000 
     30 N3        166.0030  110.4590  139.9630 N.ar      1 ANP1101     0.0000 
     31 C4        166.4050  110.2790  138.6950 C.ar      1 ANP1101     0.0000 
@<TRIPOS>BOND
     1    1    2 ar   
     2    1    3 ar   
     3    1    4 ar   
     4    1    8 1    
     5    5    6 ar   
     6    5    7 ar   
     7    5    8 1    
     8    5   12 1    
     9    9   10 ar   
    10    9   11 ar   
    11    9   12 1    
    12    9   13 1    
    13   13   14 1    
    14   14   15 1    
    15   15   16 1    
    16   15   17 1    
    17   16   21 1    
    18   17   18 1    
    19   17   19 1    
    20   19   20 1    
    21   19   21 1    
    22   21   22 1    
    23   22   23 1    
    24   22   31 1    
    25   23   24 2    
    26   24   25 1    
    27   25   26 ar   
    28   25   31 ar   
    29   26   27 1    
    30   26   28 ar   
    31   28   29 ar   
    32   29   30 ar   
    33   30   31 ar   
@<TRIPOS>SUBSTRUCTURE
     1 ANP1101     1 GROUP   
@<TRIPOS>SET
ATOM$ORANGE STATIC     ATOMS   COLORGROUP SYSTEM 
20 14 14 15 15 17 17 19 19 21 21 23 23 25 25 26 26 29 \
29 31 31 

