#    Name: 6pxa_8_TCH_CAVITY_N1_8
#    Modification time : Fri May 22 19:39:05 2020

@<TRIPOS>MOLECULE
6pxa_8_TCH_CAVITY_N1_8
   97     0     6     0     0
SMALL
NO_CHARGES


@<TRIPOS>ATOM
      1 OG         19.1500  -66.4200  -16.5000 O.3       1 SER1        0.0000 
      2 OG         18.1400  -67.3200  -15.8500 O.3       1 SER1        0.0000 
      3 OG         20.3600  -66.5400  -14.7600 O.3       1 SER1        0.0000 
      4 N          20.0400  -68.9000  -18.5700 N.am      2 ALA2        0.0000 
      5 N          19.0300  -69.8000  -17.9300 N.am      2 ALA2        0.0000 
      6 N          21.1400  -69.8000  -18.1000 N.am      2 ALA2        0.0000 
      7 N          19.0500  -67.2100  -17.7700 N.am      2 ALA2        0.0000 
      8 N          18.0400  -68.1100  -17.1200 N.am      2 ALA2        0.0000 
      9 N          21.1600  -67.2100  -17.9400 N.am      2 ALA2        0.0000 
     10 N          20.1500  -68.1100  -17.3000 N.am      2 ALA2        0.0000 
     11 N          19.1400  -69.0100  -16.6600 N.am      2 ALA2        0.0000 
     12 N          18.1300  -69.9200  -16.0100 N.am      2 ALA2        0.0000 
     13 N          21.2500  -69.0200  -16.8300 N.am      2 ALA2        0.0000 
     14 N          19.2300  -70.8200  -15.5400 N.am      2 ALA2        0.0000 
     15 N          18.2200  -71.7200  -14.9000 N.am      2 ALA2        0.0000 
     16 O          17.2100  -72.6200  -14.2600 O.2       2 ALA2        0.0000 
     17 N          18.2300  -69.1300  -14.7400 N.am      2 ALA2        0.0000 
     18 N          17.2200  -70.0300  -14.1000 N.am      2 ALA2        0.0000 
     19 N          22.3700  -67.3300  -16.2100 N.am      2 ALA2        0.0000 
     20 N          21.3600  -68.2300  -15.5600 N.am      2 ALA2        0.0000 
     21 N          18.3300  -70.9300  -13.6300 N.am      2 ALA2        0.0000 
     22 N          21.4500  -70.0300  -14.4500 N.am      2 ALA2        0.0000 
     23 N          22.4800  -66.5400  -14.9300 N.am      2 ALA2        0.0000 
     24 N          21.4700  -67.4400  -14.2900 N.am      2 ALA2        0.0000 
     25 NZ         18.5100  -74.5400  -11.4100 N.4       3 LYS4        0.0000 
     26 CZ         17.9900  -75.8900  -17.6000 C.ar      4 PHE5        0.0000 
     27 CZ         18.0800  -77.7000  -16.4900 C.ar      4 PHE5        0.0000 
     28 CZ         17.0700  -78.6000  -15.8500 C.ar      4 PHE5        0.0000 
     29 CZ         20.0300  -71.4900  -18.7300 C.ar      4 PHE5        0.0000 
     30 CZ         19.0200  -72.4000  -18.0900 C.ar      4 PHE5        0.0000 
     31 CZ         16.9900  -74.2000  -16.8000 C.ar      4 PHE5        0.0000 
     32 CZ         20.1200  -73.3000  -17.6200 C.ar      4 PHE5        0.0000 
     33 CZ         18.1000  -75.1000  -16.3300 C.ar      4 PHE5        0.0000 
     34 CZ         17.0800  -76.0000  -15.6900 C.ar      4 PHE5        0.0000 
     35 CZ         21.2200  -74.2000  -17.1500 C.ar      4 PHE5        0.0000 
     36 CZ         18.1900  -76.9100  -15.2200 C.ar      4 PHE5        0.0000 
     37 CZ         17.1800  -77.8100  -14.5700 C.ar      4 PHE5        0.0000 
     38 CZ         16.1700  -78.7100  -13.9300 C.ar      4 PHE5        0.0000 
     39 CZ         19.2900  -77.8100  -14.7500 C.ar      4 PHE5        0.0000 
     40 CZ         18.2800  -78.7100  -14.1100 C.ar      4 PHE5        0.0000 
     41 CZ         17.2700  -79.6100  -13.4600 C.ar      4 PHE5        0.0000 
     42 CZ         17.1000  -73.4100  -15.5300 C.ar      4 PHE5        0.0000 
     43 CZ         18.2000  -74.3100  -15.0600 C.ar      4 PHE5        0.0000 
     44 CZ         17.1900  -75.2100  -14.4200 C.ar      4 PHE5        0.0000 
     45 CZ         17.2800  -77.0200  -13.3000 C.ar      4 PHE5        0.0000 
     46 CZ         16.2700  -77.9200  -12.6600 C.ar      4 PHE5        0.0000 
     47 CZ         21.4200  -75.2200  -14.7700 C.ar      4 PHE5        0.0000 
     48 CZ         20.4100  -76.1200  -14.1300 C.ar      4 PHE5        0.0000 
     49 CZ         19.4000  -77.0200  -13.4800 C.ar      4 PHE5        0.0000 
     50 CZ         18.3900  -77.9200  -12.8400 C.ar      4 PHE5        0.0000 
     51 CZ         21.3700  -65.6300  -15.4000 C.ar      4 PHE5        0.0000 
     52 CA         19.0000  -74.9900  -18.2500 C.3       5 GLY6        0.0000 
     53 CA         20.1000  -75.8900  -17.7800 C.3       5 GLY6        0.0000 
     54 CA         19.0900  -76.7900  -17.1400 C.3       5 GLY6        0.0000 
     55 CA         19.1800  -78.6000  -16.0200 C.3       5 GLY6        0.0000 
     56 CA         18.1700  -79.5000  -15.3800 C.3       5 GLY6        0.0000 
     57 CA         17.1600  -80.4000  -14.7300 C.3       5 GLY6        0.0000 
     58 CA         18.2600  -81.3000  -14.2700 C.3       5 GLY6        0.0000 
     59 CA         18.0000  -73.3000  -17.4400 C.3       5 GLY6        0.0000 
     60 CA         20.2100  -75.1000  -16.5100 C.3       5 GLY6        0.0000 
     61 CA         19.2000  -76.0100  -15.8600 C.3       5 GLY6        0.0000 
     62 CA         21.3100  -76.0100  -16.0400 C.3       5 GLY6        0.0000 
     63 CA         20.3000  -76.9100  -15.4000 C.3       5 GLY6        0.0000 
     64 CA         18.3700  -80.5200  -13.0000 C.3       5 GLY6        0.0000 
     65 CA         18.0200  -70.7000  -17.2800 C.3       5 GLY6        0.0000 
     66 CA         18.1100  -72.5100  -16.1700 C.3       5 GLY6        0.0000 
     67 CA         21.2400  -71.6100  -16.9900 C.3       5 GLY6        0.0000 
     68 CA         21.3300  -73.4100  -15.8800 C.3       5 GLY6        0.0000 
     69 CA         22.4300  -74.3200  -15.4100 C.3       5 GLY6        0.0000 
     70 CA         22.3500  -69.9200  -16.3700 C.3       5 GLY6        0.0000 
     71 CA         21.3400  -70.8200  -15.7200 C.3       5 GLY6        0.0000 
     72 CA         17.3000  -74.4300  -13.1400 C.3       5 GLY6        0.0000 
     73 CA         22.4500  -71.7200  -15.2500 C.3       5 GLY6        0.0000 
     74 CA         21.4400  -72.6300  -14.6100 C.3       5 GLY6        0.0000 
     75 CA         20.1600  -65.5200  -17.1400 C.3       5 GLY6        0.0000 
     76 CA         21.2700  -66.4200  -16.6700 C.3       5 GLY6        0.0000 
     77 CA         17.3100  -71.8300  -12.9800 C.3       5 GLY6        0.0000 
     78 CA         19.3500  -67.4400  -14.1100 C.3       5 GLY6        0.0000 
     79 DU         19.1100  -74.2000  -16.9800 H         6 CUB7        0.0000 
     80 DU         20.1300  -70.7100  -17.4600 H         6 CUB7        0.0000 
     81 DU         19.1200  -71.6100  -16.8200 H         6 CUB7        0.0000 
     82 DU         20.2300  -72.5100  -16.3500 H         6 CUB7        0.0000 
     83 DU         20.3200  -74.3200  -15.2400 H         6 CUB7        0.0000 
     84 DU         19.3100  -75.2200  -14.5900 H         6 CUB7        0.0000 
     85 DU         18.3000  -76.1200  -13.9500 H         6 CUB7        0.0000 
     86 DU         20.2400  -69.9200  -16.1900 H         6 CUB7        0.0000 
     87 DU         20.3300  -71.7200  -15.0800 H         6 CUB7        0.0000 
     88 DU         18.3100  -73.5200  -13.7900 H         6 CUB7        0.0000 
     89 DU         20.4200  -73.5300  -13.9700 H         6 CUB7        0.0000 
     90 DU         19.4100  -74.4300  -13.3200 H         6 CUB7        0.0000 
     91 DU         18.4000  -75.3300  -12.6800 H         6 CUB7        0.0000 
     92 DU         20.2600  -67.3200  -16.0300 H         6 CUB7        0.0000 
     93 DU         19.2500  -68.2300  -15.3800 H         6 CUB7        0.0000 
     94 DU         20.3500  -69.1300  -14.9200 H         6 CUB7        0.0000 
     95 DU         19.3400  -70.0300  -14.2700 H         6 CUB7        0.0000 
     96 DU         20.4600  -68.3400  -13.6500 H         6 CUB7        0.0000 
     97 DU         19.4400  -69.2400  -13.0000 H         6 CUB7        0.0000 
@<TRIPOS>BOND
@<TRIPOS>SUBSTRUCTURE
     1 SER1        1 GROUP   
     2 ALA2        4 GROUP   
     3 LYS4       25 GROUP   
     4 PHE5       26 GROUP   
     5 GLY6       52 GROUP   
     6 CUB7       79 GROUP   
@<TRIPOS>SET

