#    Name: 6pxa_11_TCH
#    Modification time : Fri May 22 19:39:30 2020

@<TRIPOS>MOLECULE
6pxa_11_TCH
   35    38     1     0     0
SMALL
NO_CHARGES


@<TRIPOS>ATOM
      1 C1         23.4190  -71.5760   57.2060 C.3       1 TCH301      0.0000 
      2 C2         23.5620  -72.8540   58.1190 C.3       1 TCH301      0.0000 
      3 C3         23.5810  -72.5070   59.6310 C.3       1 TCH301      0.0000 
      4 O3         24.7900  -71.9150   59.8840 O.3       1 TCH301      0.0000 
      5 C4         22.4150  -71.5370   60.0660 C.3       1 TCH301      0.0000 
      6 C5         21.4710  -71.1650   58.8930 C.3       1 TCH301      0.0000 
      7 C6         20.3670  -70.1700   59.3550 C.3       1 TCH301      0.0000 
      8 C7         20.8580  -68.6680   59.5020 C.3       1 TCH301      0.0000 
      9 O7         21.6130  -68.5440   60.6530 O.3       1 TCH301      0.0000 
     10 C8         21.6840  -68.1960   58.2750 C.3       1 TCH301      0.0000 
     11 C9         22.8210  -69.2340   57.9180 C.3       1 TCH301      0.0000 
     12 C10        22.2710  -70.6450   57.6470 C.3       1 TCH301      0.0000 
     13 C11        23.6380  -68.6780   56.7350 C.3       1 TCH301      0.0000 
     14 C12        24.1660  -67.3560   56.9600 C.3       1 TCH301      0.0000 
     15 O12        25.1730  -67.3400   57.9420 O.3       1 TCH301      0.0000 
     16 C13        23.0430  -66.3160   57.5310 C.3       1 TCH301      0.0000 
     17 C14        22.4260  -66.8530   58.6020 C.3       1 TCH301      0.0000 
     18 C15        21.3690  -65.7270   59.0420 C.3       1 TCH301      0.0000 
     19 C16        22.1290  -64.4950   58.8540 C.3       1 TCH301      0.0000 
     20 C17        23.4590  -64.8880   58.1900 C.3       1 TCH301      0.0000 
     21 C18        22.0610  -66.0160   56.3890 C.3       1 TCH301      0.0000 
     22 C19        21.2850  -70.5670   56.4820 C.3       1 TCH301      0.0000 
     23 O1S        26.1590  -60.0170   65.0540 O.co2     1 TCH301      0.0000 
     24 C20        23.8690  -63.8440   57.2710 C.3       1 TCH301      0.0000 
     25 C21        25.2210  -64.1080   56.5490 C.3       1 TCH301      0.0000 
     26 C22        24.0950  -62.6090   58.1870 C.3       1 TCH301      0.0000 
     27 C23        25.3850  -62.6930   59.0050 C.3       1 TCH301      0.0000 
     28 C24        25.4970  -61.4360   59.8620 C.2       1 TCH301      0.0000 
     29 N24        24.8110  -61.4280   61.1310 N.am      1 TCH301      0.0000 
     30 O24        26.1000  -60.4840   59.4800 O.2       1 TCH301      0.0000 
     31 C25        24.8480  -60.2900   62.0290 C.3       1 TCH301      0.0000 
     32 C26        24.0480  -60.6430   63.2770 C.3       1 TCH301      0.0000 
     33 S26        24.5940  -59.6460   64.6960 S.o2      1 TCH301      0.0000 
     34 O2S        24.5130  -58.0490   64.2600 O.co2     1 TCH301      0.0000 
     35 O3S        23.5350  -59.9370   65.9160 O.co2     1 TCH301      0.0000 
@<TRIPOS>BOND
     1    1    2 1    
     2    1   12 1    
     3    2    3 1    
     4    3    4 1    
     5    3    5 1    
     6    5    6 1    
     7    6    7 1    
     8    6   12 1    
     9    7    8 1    
    10    8    9 1    
    11    8   10 1    
    12   10   11 1    
    13   10   17 1    
    14   11   12 1    
    15   11   13 1    
    16   12   22 1    
    17   13   14 1    
    18   14   15 1    
    19   14   16 1    
    20   16   17 1    
    21   16   20 1    
    22   16   21 1    
    23   17   18 1    
    24   18   19 1    
    25   19   20 1    
    26   20   24 1    
    27   23   33 ar   
    28   24   25 1    
    29   24   26 1    
    30   26   27 1    
    31   27   28 1    
    32   28   29 am   
    33   28   30 2    
    34   29   31 1    
    35   31   32 1    
    36   32   33 1    
    37   33   34 ar   
    38   33   35 ar   
@<TRIPOS>SUBSTRUCTURE
     1 TCH301      1 GROUP   
@<TRIPOS>SET

