#    Name: 6pxa_6_TCH
#    Modification time : Fri May 22 19:38:48 2020

@<TRIPOS>MOLECULE
6pxa_6_TCH
   35    38     1     0     0
SMALL
NO_CHARGES


@<TRIPOS>ATOM
      1 C1         -6.8900   10.4940  -92.5510 C.3       1 TCH301      0.0000 
      2 C2         -7.8350   11.4280  -93.4060 C.3       1 TCH301      0.0000 
      3 C3         -7.0800   12.1480  -94.5590 C.3       1 TCH301      0.0000 
      4 O3         -7.9280   13.0880  -95.1020 O.3       1 TCH301      0.0000 
      5 C4         -5.7610   12.8640  -94.0720 C.3       1 TCH301      0.0000 
      6 C5         -4.8730   12.0000  -93.1260 C.3       1 TCH301      0.0000 
      7 C6         -3.6770   12.8330  -92.5720 C.3       1 TCH301      0.0000 
      8 C7         -4.0310   13.7500  -91.3330 C.3       1 TCH301      0.0000 
      9 O7         -4.7470   14.8510  -91.7690 O.3       1 TCH301      0.0000 
     10 C8         -4.8490   13.0040  -90.2510 C.3       1 TCH301      0.0000 
     11 C9         -6.0980   12.2690  -90.8900 C.3       1 TCH301      0.0000 
     12 C10        -5.6790   11.2690  -91.9880 C.3       1 TCH301      0.0000 
     13 C11        -6.9030   11.6320  -89.7380 C.3       1 TCH301      0.0000 
     14 C12        -7.3100   12.5620  -88.7170 C.3       1 TCH301      0.0000 
     15 O12        -8.2990   13.4570  -89.1800 O.3       1 TCH301      0.0000 
     16 C13        -6.0530   13.4670  -88.1680 C.3       1 TCH301      0.0000 
     17 C14        -5.3950   14.0410  -89.1960 C.3       1 TCH301      0.0000 
     18 C15        -4.1690   14.7990  -88.4760 C.3       1 TCH301      0.0000 
     19 C16        -4.8290   15.4460  -87.3630 C.3       1 TCH301      0.0000 
     20 C17        -6.2330   14.8140  -87.2600 C.3       1 TCH301      0.0000 
     21 C18        -5.1390   12.4900  -87.4160 C.3       1 TCH301      0.0000 
     22 C19        -4.7520   10.2310  -91.3570 C.3       1 TCH301      0.0000 
     23 O1S        -8.4930   23.1390  -86.5490 O.co2     1 TCH301      0.0000 
     24 C20        -6.5780   14.6110  -85.8570 C.3       1 TCH301      0.0000 
     25 C21        -7.9680   13.9410  -85.6450 C.3       1 TCH301      0.0000 
     26 C22        -6.6210   16.0210  -85.1890 C.3       1 TCH301      0.0000 
     27 C23        -7.8760   16.8210  -85.5310 C.3       1 TCH301      0.0000 
     28 C24        -7.8070   18.2590  -85.0220 C.2       1 TCH301      0.0000 
     29 N24        -6.9500   19.2140  -85.6960 N.am      1 TCH301      0.0000 
     30 O24        -8.4520   18.6030  -84.0920 O.2       1 TCH301      0.0000 
     31 C25        -6.8860   20.5790  -85.2220 C.3       1 TCH301      0.0000 
     32 C26        -6.2590   21.4270  -86.3120 C.3       1 TCH301      0.0000 
     33 S26        -6.8880   23.1220  -86.1620 S.o2      1 TCH301      0.0000 
     34 O2S        -6.7420   23.5670  -84.5810 O.co2     1 TCH301      0.0000 
     35 O3S        -5.9930   24.0270  -87.2110 O.co2     1 TCH301      0.0000 
@<TRIPOS>BOND
     1    1    2 1    
     2    1   12 1    
     3    2    3 1    
     4    3    4 1    
     5    3    5 1    
     6    5    6 1    
     7    6    7 1    
     8    6   12 1    
     9    7    8 1    
    10    8    9 1    
    11    8   10 1    
    12   10   11 1    
    13   10   17 1    
    14   11   12 1    
    15   11   13 1    
    16   12   22 1    
    17   13   14 1    
    18   14   15 1    
    19   14   16 1    
    20   16   17 1    
    21   16   20 1    
    22   16   21 1    
    23   17   18 1    
    24   18   19 1    
    25   19   20 1    
    26   20   24 1    
    27   23   33 ar   
    28   24   25 1    
    29   24   26 1    
    30   26   27 1    
    31   27   28 1    
    32   28   29 am   
    33   28   30 2    
    34   29   31 1    
    35   31   32 1    
    36   32   33 1    
    37   33   34 ar   
    38   33   35 ar   
@<TRIPOS>SUBSTRUCTURE
     1 TCH301      1 GROUP   
@<TRIPOS>SET

