#    Name: 6pxa_2_TCH_CAVITY_N1_6
#    Modification time : Fri May 22 19:38:11 2020

@<TRIPOS>MOLECULE
6pxa_2_TCH_CAVITY_N1_6
  102     0     6     0     0
SMALL
NO_CHARGES


@<TRIPOS>ATOM
      1 OG         -7.5300  -18.3700   -5.1200 O.3       1 SER1        0.0000 
      2 OG         -8.5400  -19.2700   -4.4700 O.3       1 SER1        0.0000 
      3 OG         -6.4200  -19.2800   -4.6500 O.3       1 SER1        0.0000 
      4 OG         -5.3200  -20.1800   -4.1800 O.3       1 SER1        0.0000 
      5 OG         -7.4200  -17.5800   -3.8400 O.3       1 SER1        0.0000 
      6 OG         -6.3200  -18.4900   -3.3800 O.3       1 SER1        0.0000 
      7 O         -10.7600  -20.0600   -5.5700 O.2       2 ALA2        0.0000 
      8 N         -10.6500  -19.2700   -4.2900 N.am      2 ALA2        0.0000 
      9 N          -9.5500  -20.1800   -3.8300 N.am      2 ALA2        0.0000 
     10 N         -10.5600  -21.0800   -3.1800 N.am      2 ALA2        0.0000 
     11 N          -9.4600  -21.9800   -2.7100 N.am      2 ALA2        0.0000 
     12 N          -6.3300  -21.0800   -3.5400 N.am      2 ALA2        0.0000 
     13 N          -7.3400  -21.9800   -2.8900 N.am      2 ALA2        0.0000 
     14 N          -6.2400  -22.8900   -2.4300 N.am      2 ALA2        0.0000 
     15 N         -10.5400  -18.4800   -3.0200 N.am      2 ALA2        0.0000 
     16 N          -8.4300  -18.4900   -3.2000 N.am      2 ALA2        0.0000 
     17 N          -9.4400  -19.3900   -2.5600 N.am      2 ALA2        0.0000 
     18 N         -10.4500  -20.2900   -1.9100 N.am      2 ALA2        0.0000 
     19 N          -9.3500  -21.1900   -1.4400 N.am      2 ALA2        0.0000 
     20 N          -6.2300  -20.2900   -2.2700 N.am      2 ALA2        0.0000 
     21 N          -7.2400  -21.1900   -1.6200 N.am      2 ALA2        0.0000 
     22 N          -6.1300  -22.1000   -1.1500 N.am      2 ALA2        0.0000 
     23 N          -7.2200  -18.6000   -1.4600 N.am      2 ALA2        0.0000 
     24 N          -8.2300  -19.5000   -0.8200 N.am      2 ALA2        0.0000 
     25 N          -7.1300  -20.4000   -0.3500 N.am      2 ALA2        0.0000 
     26 N          -6.0300  -21.3100    0.1200 N.am      2 ALA2        0.0000 
     27 N          -7.1100  -17.8100   -0.1900 N.am      2 ALA2        0.0000 
     28 NZ         -6.2600  -25.4800   -2.5900 N.4       3 LYS4        0.0000 
     29 NZ         -5.0500  -25.5900   -0.8500 N.4       3 LYS4        0.0000 
     30 CZ         -9.7500  -19.1600   -6.2100 C.ar      4 PHE5        0.0000 
     31 CZ         -8.6500  -20.0600   -5.7400 C.ar      4 PHE5        0.0000 
     32 CZ        -10.0700  -24.9100    2.7000 C.ar      4 PHE5        0.0000 
     33 CZ         -5.9300  -23.1100    1.2300 C.ar      4 PHE5        0.0000 
     34 CZ         -5.8400  -24.9200    2.3400 C.ar      4 PHE5        0.0000 
     35 CZ         -7.8600  -26.7200    3.6300 C.ar      4 PHE5        0.0000 
     36 CZ         -5.7500  -26.7200    3.4500 C.ar      4 PHE5        0.0000 
     37 CZ         -6.7600  -27.6200    4.1000 C.ar      4 PHE5        0.0000 
     38 CZ         -8.1200  -18.7100    0.4500 C.ar      4 PHE5        0.0000 
     39 CZ         -7.0200  -19.6200    0.9200 C.ar      4 PHE5        0.0000 
     40 CZ         -8.0300  -20.5200    1.5700 C.ar      4 PHE5        0.0000 
     41 CZ         -9.0400  -21.4200    2.2100 C.ar      4 PHE5        0.0000 
     42 CZ         -6.9300  -21.4200    2.0300 C.ar      4 PHE5        0.0000 
     43 CZ         -7.9400  -22.3200    2.6800 C.ar      4 PHE5        0.0000 
     44 CZ         -9.9600  -24.1200    3.9700 C.ar      4 PHE5        0.0000 
     45 CZ         -5.8300  -22.3200    2.5000 C.ar      4 PHE5        0.0000 
     46 CZ         -5.7400  -24.1300    3.6100 C.ar      4 PHE5        0.0000 
     47 CZ         -6.8200  -20.6300    3.3100 C.ar      4 PHE5        0.0000 
     48 CZ         -7.8300  -21.5300    3.9500 C.ar      4 PHE5        0.0000 
     49 CZ         -5.6300  -23.3400    4.8800 C.ar      4 PHE5        0.0000 
     50 CA         -8.6600  -22.6600   -5.9000 C.3       5 GLY6        0.0000 
     51 CA         -7.5600  -23.5600   -5.4400 C.3       5 GLY6        0.0000 
     52 CA         -7.5400  -20.9700   -5.2800 C.3       5 GLY6        0.0000 
     53 CA         -6.4400  -21.8700   -4.8100 C.3       5 GLY6        0.0000 
     54 CA         -7.4500  -22.7700   -4.1600 C.3       5 GLY6        0.0000 
     55 CA         -5.3400  -22.7700   -4.3400 C.3       5 GLY6        0.0000 
     56 CA         -6.3500  -23.6700   -3.7000 C.3       5 GLY6        0.0000 
     57 CA         -9.6400  -18.3700   -4.9400 C.3       5 GLY6        0.0000 
     58 CA         -9.5300  -17.5800   -3.6700 C.3       5 GLY6        0.0000 
     59 CA        -10.3600  -22.0900   -0.8000 C.3       5 GLY6        0.0000 
     60 CA         -5.0300  -23.0000   -0.6900 C.3       5 GLY6        0.0000 
     61 CA         -4.9400  -24.8000    0.4200 C.3       5 GLY6        0.0000 
     62 CA         -5.9500  -25.7100    1.0700 C.3       5 GLY6        0.0000 
     63 CA         -9.2400  -20.4000   -0.1700 C.3       5 GLY6        0.0000 
     64 CA         -6.1200  -19.5000   -0.9900 C.3       5 GLY6        0.0000 
     65 CA         -9.1500  -22.2100    0.9400 C.3       5 GLY6        0.0000 
     66 CA        -10.1600  -23.1100    1.5800 C.3       5 GLY6        0.0000 
     67 CA        -11.1700  -24.0100    2.2300 C.3       5 GLY6        0.0000 
     68 CA         -4.9200  -22.2100    0.5800 C.3       5 GLY6        0.0000 
     69 CA         -6.0100  -18.7100    0.2800 C.3       5 GLY6        0.0000 
     70 CA         -5.9200  -20.5200    1.3900 C.3       5 GLY6        0.0000 
     71 CA         -8.9500  -23.2200    3.3200 C.3       5 GLY6        0.0000 
     72 CA         -4.8200  -21.4200    1.8600 C.3       5 GLY6        0.0000 
     73 CA         -7.8500  -24.1300    3.7900 C.3       5 GLY6        0.0000 
     74 CA         -6.7500  -25.0300    4.2600 C.3       5 GLY6        0.0000 
     75 CA         -8.8400  -22.4300    4.5900 C.3       5 GLY6        0.0000 
     76 CA         -5.7200  -21.5400    3.7700 C.3       5 GLY6        0.0000 
     77 CA         -6.7300  -22.4400    4.4200 C.3       5 GLY6        0.0000 
     78 CA         -6.6400  -24.2400    5.5300 C.3       5 GLY6        0.0000 
     79 DU         -9.6600  -20.9600   -5.1000 H         6 CUB7        0.0000 
     80 DU         -8.5500  -21.8700   -4.6300 H         6 CUB7        0.0000 
     81 DU         -9.5600  -22.7700   -3.9900 H         6 CUB7        0.0000 
     82 DU         -8.4600  -23.6700   -3.5200 H         6 CUB7        0.0000 
     83 DU         -7.4400  -20.1800   -4.0000 H         6 CUB7        0.0000 
     84 DU         -8.4500  -21.0800   -3.3600 H         6 CUB7        0.0000 
     85 DU         -8.3500  -22.8800   -2.2500 H         6 CUB7        0.0000 
     86 DU         -7.2500  -23.7900   -1.7800 H         6 CUB7        0.0000 
     87 DU         -6.1500  -24.6900   -1.3100 H         6 CUB7        0.0000 
     88 DU         -7.3300  -19.3900   -2.7300 H         6 CUB7        0.0000 
     89 DU         -8.3400  -20.2900   -2.0900 H         6 CUB7        0.0000 
     90 DU         -8.2500  -22.0900   -0.9800 H         6 CUB7        0.0000 
     91 DU         -9.2600  -23.0000   -0.3300 H         6 CUB7        0.0000 
     92 DU         -7.1400  -23.0000   -0.5100 H         6 CUB7        0.0000 
     93 DU         -6.0400  -23.9000   -0.0400 H         6 CUB7        0.0000 
     94 DU         -7.0500  -24.8000    0.6000 H         6 CUB7        0.0000 
     95 DU         -8.1400  -21.3100    0.3000 H         6 CUB7        0.0000 
     96 DU         -7.0400  -22.2100    0.7600 H         6 CUB7        0.0000 
     97 DU         -8.0500  -23.1100    1.4100 H         6 CUB7        0.0000 
     98 DU         -9.0600  -24.0100    2.0500 H         6 CUB7        0.0000 
     99 DU         -6.9500  -24.0100    1.8700 H         6 CUB7        0.0000 
    100 DU         -7.9600  -24.9200    2.5200 H         6 CUB7        0.0000 
    101 DU         -6.8500  -25.8200    2.9900 H         6 CUB7        0.0000 
    102 DU         -6.8400  -23.2300    3.1500 H         6 CUB7        0.0000 
@<TRIPOS>BOND
@<TRIPOS>SUBSTRUCTURE
     1 SER1        1 GROUP   
     2 ALA2        7 GROUP   
     3 LYS4       28 GROUP   
     4 PHE5       30 GROUP   
     5 GLY6       50 GROUP   
     6 CUB7       79 GROUP   
@<TRIPOS>SET

