#    Name: 6pxa_5_TCH
#    Modification time : Fri May 22 19:38:37 2020

@<TRIPOS>MOLECULE
6pxa_5_TCH
   35    38     1     0     0
SMALL
NO_CHARGES


@<TRIPOS>ATOM
      1 C1         -6.4430  -22.7390  -71.1160 C.3       1 TCH301      0.0000 
      2 C2         -6.5810  -24.1730  -70.4560 C.3       1 TCH301      0.0000 
      3 C3         -6.3550  -25.4100  -71.3800 C.3       1 TCH301      0.0000 
      4 O3         -7.5700  -25.8350  -71.8860 O.3       1 TCH301      0.0000 
      5 C4         -5.3450  -25.1580  -72.5620 C.3       1 TCH301      0.0000 
      6 C5         -4.4520  -23.9170  -72.3250 C.3       1 TCH301      0.0000 
      7 C6         -3.3640  -23.8050  -73.4270 C.3       1 TCH301      0.0000 
      8 C7         -3.9330  -23.2920  -74.8100 C.3       1 TCH301      0.0000 
      9 O7         -4.6680  -24.2860  -75.4180 O.3       1 TCH301      0.0000 
     10 C8         -4.8110  -22.0280  -74.6270 C.3       1 TCH301      0.0000 
     11 C9         -5.9230  -22.2100  -73.5190 C.3       1 TCH301      0.0000 
     12 C10        -5.3190  -22.6170  -72.1660 C.3       1 TCH301      0.0000 
     13 C11        -6.7210  -20.8900  -73.4390 C.3       1 TCH301      0.0000 
     14 C12        -7.2760  -20.4580  -74.6920 C.3       1 TCH301      0.0000 
     15 O12        -8.2590  -21.3640  -75.1380 O.3       1 TCH301      0.0000 
     16 C13        -6.1510  -20.4350  -75.8820 C.3       1 TCH301      0.0000 
     17 C14        -5.5650  -21.6500  -75.9530 C.3       1 TCH301      0.0000 
     18 C15        -4.5060  -21.5160  -77.1520 C.3       1 TCH301      0.0000 
     19 C16        -5.2670  -20.7930  -78.1500 C.3       1 TCH301      0.0000 
     20 C17        -6.5450  -20.2820  -77.4580 C.3       1 TCH301      0.0000 
     21 C18        -5.1220  -19.3480  -75.5240 C.3       1 TCH301      0.0000 
     22 C19        -4.4030  -21.4870  -71.6900 C.3       1 TCH301      0.0000 
     23 O1S        -9.4090  -23.9300  -84.7150 O.co2     1 TCH301      0.0000 
     24 C20        -6.8940  -18.9430  -77.9380 C.3       1 TCH301      0.0000 
     25 C21        -8.1620  -18.3900  -77.2430 C.3       1 TCH301      0.0000 
     26 C22        -7.2100  -19.1030  -79.4490 C.3       1 TCH301      0.0000 
     27 C23        -8.4980  -19.8680  -79.7740 C.3       1 TCH301      0.0000 
     28 C24        -8.6630  -20.0380  -81.2940 C.2       1 TCH301      0.0000 
     29 N24        -7.9740  -21.1280  -81.9460 N.am      1 TCH301      0.0000 
     30 O24        -9.3280  -19.2980  -81.9360 O.2       1 TCH301      0.0000 
     31 C25        -8.0640  -21.3600  -83.3730 C.3       1 TCH301      0.0000 
     32 C26        -7.2020  -22.5860  -83.6650 C.3       1 TCH301      0.0000 
     33 S26        -7.8770  -23.4570  -85.1040 S.o2      1 TCH301      0.0000 
     34 O2S        -7.8940  -22.4420  -86.3910 O.co2     1 TCH301      0.0000 
     35 O3S        -6.8310  -24.6820  -85.4070 O.co2     1 TCH301      0.0000 
@<TRIPOS>BOND
     1    1    2 1    
     2    1   12 1    
     3    2    3 1    
     4    3    4 1    
     5    3    5 1    
     6    5    6 1    
     7    6    7 1    
     8    6   12 1    
     9    7    8 1    
    10    8    9 1    
    11    8   10 1    
    12   10   11 1    
    13   10   17 1    
    14   11   12 1    
    15   11   13 1    
    16   12   22 1    
    17   13   14 1    
    18   14   15 1    
    19   14   16 1    
    20   16   17 1    
    21   16   20 1    
    22   16   21 1    
    23   17   18 1    
    24   18   19 1    
    25   19   20 1    
    26   20   24 1    
    27   23   33 ar   
    28   24   25 1    
    29   24   26 1    
    30   26   27 1    
    31   27   28 1    
    32   28   29 am   
    33   28   30 2    
    34   29   31 1    
    35   31   32 1    
    36   32   33 1    
    37   33   34 ar   
    38   33   35 ar   
@<TRIPOS>SUBSTRUCTURE
     1 TCH301      1 GROUP   
@<TRIPOS>SET

