#    Name: 6pxa_2_TCH
#    Modification time : Fri May 22 19:38:10 2020

@<TRIPOS>MOLECULE
6pxa_2_TCH
   35    38     1     0     0
SMALL
NO_CHARGES


@<TRIPOS>ATOM
      1 C1         -8.4300  -22.5620    2.4600 C.3       1 TCH301      0.0000 
      2 C2         -9.4890  -23.7240    2.2560 C.3       1 TCH301      0.0000 
      3 C3         -8.7860  -25.1010    2.1450 C.3       1 TCH301      0.0000 
      4 O3         -9.7270  -26.0660    1.8500 O.3       1 TCH301      0.0000 
      5 C4         -7.6600  -25.1130    1.0440 C.3       1 TCH301      0.0000 
      6 C5         -6.6390  -23.9650    1.2340 C.3       1 TCH301      0.0000 
      7 C6         -5.5890  -23.9610    0.0920 C.3       1 TCH301      0.0000 
      8 C7         -6.1450  -23.4470   -1.3070 C.3       1 TCH301      0.0000 
      9 O7         -6.9650  -24.3980   -1.8900 O.3       1 TCH301      0.0000 
     10 C8         -6.9200  -22.1180   -1.1780 C.3       1 TCH301      0.0000 
     11 C9         -8.0040  -22.2510   -0.0340 C.3       1 TCH301      0.0000 
     12 C10        -7.3750  -22.5880    1.3390 C.3       1 TCH301      0.0000 
     13 C11        -8.8630  -20.9690   -0.0130 C.3       1 TCH301      0.0000 
     14 C12        -9.4070  -20.5580   -1.2830 C.3       1 TCH301      0.0000 
     15 O12       -10.4930  -21.3720   -1.6880 O.3       1 TCH301      0.0000 
     16 C13        -8.3080  -20.5830   -2.5060 C.3       1 TCH301      0.0000 
     17 C14        -7.6730  -21.7800   -2.5230 C.3       1 TCH301      0.0000 
     18 C15        -6.6350  -21.6310   -3.7400 C.3       1 TCH301      0.0000 
     19 C16        -7.4550  -20.9900   -4.7580 C.3       1 TCH301      0.0000 
     20 C17        -8.7500  -20.5220   -4.0690 C.3       1 TCH301      0.0000 
     21 C18        -7.3300  -19.4180   -2.2780 C.3       1 TCH301      0.0000 
     22 C19        -6.3220  -21.5520    1.7180 C.3       1 TCH301      0.0000 
     23 O1S        -9.4780  -25.1610  -11.9360 O.co2     1 TCH301      0.0000 
     24 C20        -9.1320  -19.2100   -4.5760 C.3       1 TCH301      0.0000 
     25 C21       -10.3680  -18.5650   -3.8750 C.3       1 TCH301      0.0000 
     26 C22        -9.4750  -19.4520   -6.0750 C.3       1 TCH301      0.0000 
     27 C23       -10.8020  -20.1750   -6.3050 C.3       1 TCH301      0.0000 
     28 C24       -10.9340  -20.4220   -7.7990 C.2       1 TCH301      0.0000 
     29 N24       -10.4690  -21.6730   -8.3490 N.am      1 TCH301      0.0000 
     30 O24       -11.3900  -19.5980   -8.5220 O.2       1 TCH301      0.0000 
     31 C25       -10.5860  -21.8830   -9.7740 C.3       1 TCH301      0.0000 
     32 C26        -9.6630  -23.0290  -10.1570 C.3       1 TCH301      0.0000 
     33 S26       -10.4330  -23.8810  -11.5460 S.o2      1 TCH301      0.0000 
     34 O2S       -11.9750  -24.2370  -11.0870 O.co2     1 TCH301      0.0000 
     35 O3S       -10.4300  -22.8810  -12.8620 O.co2     1 TCH301      0.0000 
@<TRIPOS>BOND
     1    1    2 1    
     2    1   12 1    
     3    2    3 1    
     4    3    4 1    
     5    3    5 1    
     6    5    6 1    
     7    6    7 1    
     8    6   12 1    
     9    7    8 1    
    10    8    9 1    
    11    8   10 1    
    12   10   11 1    
    13   10   17 1    
    14   11   12 1    
    15   11   13 1    
    16   12   22 1    
    17   13   14 1    
    18   14   15 1    
    19   14   16 1    
    20   16   17 1    
    21   16   20 1    
    22   16   21 1    
    23   17   18 1    
    24   18   19 1    
    25   19   20 1    
    26   20   24 1    
    27   23   33 ar   
    28   24   25 1    
    29   24   26 1    
    30   26   27 1    
    31   27   28 1    
    32   28   29 am   
    33   28   30 2    
    34   29   31 1    
    35   31   32 1    
    36   32   33 1    
    37   33   34 ar   
    38   33   35 ar   
@<TRIPOS>SUBSTRUCTURE
     1 TCH301      1 GROUP   
@<TRIPOS>SET

