#    Name: 6pxa_7_TCH
#    Modification time : Fri May 22 19:38:56 2020

@<TRIPOS>MOLECULE
6pxa_7_TCH
   35    38     1     0     0
SMALL
NO_CHARGES


@<TRIPOS>ATOM
      1 C1         25.0280  -71.4420  -55.1820 C.3       1 TCH301      0.0000 
      2 C2         26.0470  -72.3080  -56.0110 C.3       1 TCH301      0.0000 
      3 C3         25.3640  -72.9990  -57.2260 C.3       1 TCH301      0.0000 
      4 O3         26.2620  -73.8940  -57.7730 O.3       1 TCH301      0.0000 
      5 C4         24.0110  -73.7360  -56.8800 C.3       1 TCH301      0.0000 
      6 C5         23.0540  -72.9190  -55.9660 C.3       1 TCH301      0.0000 
      7 C6         21.8460  -73.7950  -55.5230 C.3       1 TCH301      0.0000 
      8 C7         22.1750  -74.8340  -54.3740 C.3       1 TCH301      0.0000 
      9 O7         22.9480  -75.8520  -54.8860 O.3       1 TCH301      0.0000 
     10 C8         22.9380  -74.1760  -53.2040 C.3       1 TCH301      0.0000 
     11 C9         24.2050  -73.3980  -53.7600 C.3       1 TCH301      0.0000 
     12 C10        23.8080  -72.2800  -54.7440 C.3       1 TCH301      0.0000 
     13 C11        25.0310  -72.8730  -52.5680 C.3       1 TCH301      0.0000 
     14 C12        25.3690  -73.8830  -51.6050 C.3       1 TCH301      0.0000 
     15 O12        26.2780  -74.8130  -52.1530 O.3       1 TCH301      0.0000 
     16 C13        24.0400  -74.7090  -51.0960 C.3       1 TCH301      0.0000 
     17 C14        23.4170  -75.2660  -52.1610 C.3       1 TCH301      0.0000 
     18 C15        22.1550  -76.0250  -51.5060 C.3       1 TCH301      0.0000 
     19 C16        22.7120  -76.6120  -50.3010 C.3       1 TCH301      0.0000 
     20 C17        24.1220  -76.0170  -50.1250 C.3       1 TCH301      0.0000 
     21 C18        23.1190  -73.6830  -50.4100 C.3       1 TCH301      0.0000 
     22 C19        22.8670  -71.2970  -54.0410 C.3       1 TCH301      0.0000 
     23 O1S        23.4960  -85.0650  -50.5820 O.co2     1 TCH301      0.0000 
     24 C20        24.3680  -75.7480  -48.7130 C.3       1 TCH301      0.0000 
     25 C21        25.7200  -75.0320  -48.4230 C.3       1 TCH301      0.0000 
     26 C22        24.4450  -77.1410  -48.0230 C.3       1 TCH301      0.0000 
     27 C23        25.5920  -77.9730  -48.5820 C.3       1 TCH301      0.0000 
     28 C24        25.5400  -79.4200  -48.1050 C.2       1 TCH301      0.0000 
     29 N24        24.8500  -80.4100  -48.9100 N.am      1 TCH301      0.0000 
     30 O24        26.0550  -79.7270  -47.0840 O.2       1 TCH301      0.0000 
     31 C25        24.7790  -81.7980  -48.4850 C.3       1 TCH301      0.0000 
     32 C26        24.0450  -82.5830  -49.5620 C.3       1 TCH301      0.0000 
     33 S26        24.5040  -84.3410  -49.4970 S.o2      1 TCH301      0.0000 
     34 O2S        26.0720  -84.5230  -49.9810 O.co2     1 TCH301      0.0000 
     35 O3S        24.3210  -84.9170  -47.9570 O.co2     1 TCH301      0.0000 
@<TRIPOS>BOND
     1    1    2 1    
     2    1   12 1    
     3    2    3 1    
     4    3    4 1    
     5    3    5 1    
     6    5    6 1    
     7    6    7 1    
     8    6   12 1    
     9    7    8 1    
    10    8    9 1    
    11    8   10 1    
    12   10   11 1    
    13   10   17 1    
    14   11   12 1    
    15   11   13 1    
    16   12   22 1    
    17   13   14 1    
    18   14   15 1    
    19   14   16 1    
    20   16   17 1    
    21   16   20 1    
    22   16   21 1    
    23   17   18 1    
    24   18   19 1    
    25   19   20 1    
    26   20   24 1    
    27   23   33 ar   
    28   24   25 1    
    29   24   26 1    
    30   26   27 1    
    31   27   28 1    
    32   28   29 am   
    33   28   30 2    
    34   29   31 1    
    35   31   32 1    
    36   32   33 1    
    37   33   34 ar   
    38   33   35 ar   
@<TRIPOS>SUBSTRUCTURE
     1 TCH301      1 GROUP   
@<TRIPOS>SET

