#    Name: 6pxa_10_TCH
#    Modification time : Fri May 22 19:39:20 2020

@<TRIPOS>MOLECULE
6pxa_10_TCH
   35    38     1     0     0
SMALL
NO_CHARGES


@<TRIPOS>ATOM
      1 C1         23.0070  -71.3690   17.8390 C.3       1 TCH301      0.0000 
      2 C2         23.9550  -72.3760   17.0920 C.3       1 TCH301      0.0000 
      3 C3         23.2130  -73.0670   15.9160 C.3       1 TCH301      0.0000 
      4 O3         24.0820  -73.9680   15.3560 O.3       1 TCH301      0.0000 
      5 C4         21.8870  -73.7820   16.3830 C.3       1 TCH301      0.0000 
      6 C5         20.9830  -72.8770   17.2680 C.3       1 TCH301      0.0000 
      7 C6         19.7850  -73.6880   17.8440 C.3       1 TCH301      0.0000 
      8 C7         20.1240  -74.6020   19.0970 C.3       1 TCH301      0.0000 
      9 O7         20.7650  -75.7540   18.6670 O.3       1 TCH301      0.0000 
     10 C8         20.9990  -73.8740   20.1510 C.3       1 TCH301      0.0000 
     11 C9         22.2320  -73.1590   19.4670 C.3       1 TCH301      0.0000 
     12 C10        21.7930  -72.1390   18.3920 C.3       1 TCH301      0.0000 
     13 C11        23.1420  -72.5530   20.5560 C.3       1 TCH301      0.0000 
     14 C12        23.5200  -73.4320   21.6280 C.3       1 TCH301      0.0000 
     15 O12        24.5240  -74.3470   21.2470 O.3       1 TCH301      0.0000 
     16 C13        22.2690  -74.3270   22.1920 C.3       1 TCH301      0.0000 
     17 C14        21.6020  -74.9130   21.1680 C.3       1 TCH301      0.0000 
     18 C15        20.4260  -75.7320   21.8970 C.3       1 TCH301      0.0000 
     19 C16        21.1140  -76.3040   23.0470 C.3       1 TCH301      0.0000 
     20 C17        22.5080  -75.6420   23.1250 C.3       1 TCH301      0.0000 
     21 C18        21.3560  -73.3690   22.9730 C.3       1 TCH301      0.0000 
     22 C19        20.8700  -71.0960   19.0230 C.3       1 TCH301      0.0000 
     23 O1S        24.2430  -84.3310   23.9880 O.co2     1 TCH301      0.0000 
     24 C20        22.8810  -75.3820   24.5120 C.3       1 TCH301      0.0000 
     25 C21        24.2890  -74.7360   24.6910 C.3       1 TCH301      0.0000 
     26 C22        22.9420  -76.7630   25.2390 C.3       1 TCH301      0.0000 
     27 C23        24.0710  -77.6520   24.7200 C.3       1 TCH301      0.0000 
     28 C24        24.0200  -79.0490   25.3250 C.2       1 TCH301      0.0000 
     29 N24        23.1360  -80.0260   24.7430 N.am      1 TCH301      0.0000 
     30 O24        24.6720  -79.3380   26.2660 O.2       1 TCH301      0.0000 
     31 C25        23.0870  -81.3550   25.3090 C.3       1 TCH301      0.0000 
     32 C26        22.3840  -82.2220   24.2790 C.3       1 TCH301      0.0000 
     33 S26        22.7250  -83.9860   24.5460 S.o2      1 TCH301      0.0000 
     34 O2S        22.6340  -84.3420   26.1470 O.co2     1 TCH301      0.0000 
     35 O3S        21.5720  -84.7620   23.6680 O.co2     1 TCH301      0.0000 
@<TRIPOS>BOND
     1    1    2 1    
     2    1   12 1    
     3    2    3 1    
     4    3    4 1    
     5    3    5 1    
     6    5    6 1    
     7    6    7 1    
     8    6   12 1    
     9    7    8 1    
    10    8    9 1    
    11    8   10 1    
    12   10   11 1    
    13   10   17 1    
    14   11   12 1    
    15   11   13 1    
    16   12   22 1    
    17   13   14 1    
    18   14   15 1    
    19   14   16 1    
    20   16   17 1    
    21   16   20 1    
    22   16   21 1    
    23   17   18 1    
    24   18   19 1    
    25   19   20 1    
    26   20   24 1    
    27   23   33 ar   
    28   24   25 1    
    29   24   26 1    
    30   26   27 1    
    31   27   28 1    
    32   28   29 am   
    33   28   30 2    
    34   29   31 1    
    35   31   32 1    
    36   32   33 1    
    37   33   34 ar   
    38   33   35 ar   
@<TRIPOS>SUBSTRUCTURE
     1 TCH301      1 GROUP   
@<TRIPOS>SET

