#    Name: 6pxa_9_TCH
#    Modification time : Fri May 22 19:39:11 2020

@<TRIPOS>MOLECULE
6pxa_9_TCH
   35    38     1     0     0
SMALL
NO_CHARGES


@<TRIPOS>ATOM
      1 C1         23.9840  -39.0550  -33.1710 C.3       1 TCH301      0.0000 
      2 C2         24.9920  -37.8430  -33.2630 C.3       1 TCH301      0.0000 
      3 C3         24.2750  -36.4740  -33.3550 C.3       1 TCH301      0.0000 
      4 O3         25.2320  -35.4970  -33.5640 O.3       1 TCH301      0.0000 
      5 C4         23.2230  -36.4450  -34.5320 C.3       1 TCH301      0.0000 
      6 C5         22.2390  -37.6480  -34.4890 C.3       1 TCH301      0.0000 
      7 C6         21.2730  -37.6300  -35.7120 C.3       1 TCH301      0.0000 
      8 C7         21.9320  -38.1080  -37.0710 C.3       1 TCH301      0.0000 
      9 O7         22.8100  -37.1570  -37.5870 O.3       1 TCH301      0.0000 
     10 C8         22.6690  -39.4570  -36.8840 C.3       1 TCH301      0.0000 
     11 C9         23.6880  -39.3770  -35.6710 C.3       1 TCH301      0.0000 
     12 C10        22.9880  -39.0220  -34.3470 C.3       1 TCH301      0.0000 
     13 C11        24.4620  -40.7060  -35.5880 C.3       1 TCH301      0.0000 
     14 C12        25.0660  -41.1640  -36.8120 C.3       1 TCH301      0.0000 
     15 O12        26.2300  -40.4350  -37.1370 O.3       1 TCH301      0.0000 
     16 C13        24.0600  -41.0560  -38.1050 C.3       1 TCH301      0.0000 
     17 C14        23.5060  -39.8220  -38.1670 C.3       1 TCH301      0.0000 
     18 C15        22.5470  -39.9090  -39.4480 C.3       1 TCH301      0.0000 
     19 C16        23.3720  -40.6230  -40.4020 C.3       1 TCH301      0.0000 
     20 C17        24.6060  -41.1370  -39.6400 C.3       1 TCH301      0.0000 
     21 C18        22.9780  -42.1370  -37.9090 C.3       1 TCH301      0.0000 
     22 C19        21.9230  -40.0690  -34.0500 C.3       1 TCH301      0.0000 
     23 O1S        26.5400  -38.7680  -48.4190 O.co2     1 TCH301      0.0000 
     24 C20        24.9890  -42.4580  -40.1370 C.3       1 TCH301      0.0000 
     25 C21        26.1900  -43.1140  -39.3910 C.3       1 TCH301      0.0000 
     26 C22        25.3950  -42.2850  -41.6350 C.3       1 TCH301      0.0000 
     27 C23        26.7540  -41.6430  -41.8980 C.3       1 TCH301      0.0000 
     28 C24        26.9070  -41.3270  -43.3880 C.2       1 TCH301      0.0000 
     29 N24        26.3230  -40.1140  -43.9300 N.am      1 TCH301      0.0000 
     30 O24        27.5020  -42.0430  -44.1240 O.2       1 TCH301      0.0000 
     31 C25        26.5000  -39.8630  -45.3500 C.3       1 TCH301      0.0000 
     32 C26        25.7130  -38.6050  -45.6690 C.3       1 TCH301      0.0000 
     33 S26        26.3960  -37.7770  -47.1250 S.o2      1 TCH301      0.0000 
     34 O2S        25.3390  -36.5470  -47.4080 O.co2     1 TCH301      0.0000 
     35 O3S        27.9150  -37.2450  -46.7490 O.co2     1 TCH301      0.0000 
@<TRIPOS>BOND
     1    1    2 1    
     2    1   12 1    
     3    2    3 1    
     4    3    4 1    
     5    3    5 1    
     6    5    6 1    
     7    6    7 1    
     8    6   12 1    
     9    7    8 1    
    10    8    9 1    
    11    8   10 1    
    12   10   11 1    
    13   10   17 1    
    14   11   12 1    
    15   11   13 1    
    16   12   22 1    
    17   13   14 1    
    18   14   15 1    
    19   14   16 1    
    20   16   17 1    
    21   16   20 1    
    22   16   21 1    
    23   17   18 1    
    24   18   19 1    
    25   19   20 1    
    26   20   24 1    
    27   23   33 ar   
    28   24   25 1    
    29   24   26 1    
    30   26   27 1    
    31   27   28 1    
    32   28   29 am   
    33   28   30 2    
    34   29   31 1    
    35   31   32 1    
    36   32   33 1    
    37   33   34 ar   
    38   33   35 ar   
@<TRIPOS>SUBSTRUCTURE
     1 TCH301      1 GROUP   
@<TRIPOS>SET

