#    Name: 6pxa_1_TCH
#    Modification time : Fri May 22 19:38:02 2020

@<TRIPOS>MOLECULE
6pxa_1_TCH
   35    38     1     0     0
SMALL
NO_CHARGES


@<TRIPOS>ATOM
      1 C1         -5.5400   13.0510   18.9800 C.3       1 TCH301      0.0000 
      2 C2         -6.4120   13.4640   20.2210 C.3       1 TCH301      0.0000 
      3 C3         -5.5200   14.0670   21.3440 C.3       1 TCH301      0.0000 
      4 O3         -6.2910   14.2880   22.4610 O.3       1 TCH301      0.0000 
      5 C4         -4.2990   13.1450   21.7290 C.3       1 TCH301      0.0000 
      6 C5         -3.4820   12.6660   20.5040 C.3       1 TCH301      0.0000 
      7 C6         -2.3470   11.6890   20.9230 C.3       1 TCH301      0.0000 
      8 C7         -2.8550   10.2200   21.2400 C.3       1 TCH301      0.0000 
      9 O7         -3.5290   10.2210   22.4520 O.3       1 TCH301      0.0000 
     10 C8         -3.7750    9.6790   20.1210 C.3       1 TCH301      0.0000 
     11 C9         -4.9470   10.7030   19.8310 C.3       1 TCH301      0.0000 
     12 C10        -4.4040   12.0760   19.3810 C.3       1 TCH301      0.0000 
     13 C11        -5.9230   10.0740   18.8150 C.3       1 TCH301      0.0000 
     14 C12        -6.3900    8.7480   19.1410 C.3       1 TCH301      0.0000 
     15 O12        -7.2860    8.7570   20.2220 O.3       1 TCH301      0.0000 
     16 C13        -5.1740    7.7500   19.5990 C.3       1 TCH301      0.0000 
     17 C14        -4.4330    8.3300   20.5730 C.3       1 TCH301      0.0000 
     18 C15        -3.2900    7.2410   20.8770 C.3       1 TCH301      0.0000 
     19 C16        -4.0180    5.9860   20.8080 C.3       1 TCH301      0.0000 
     20 C17        -5.4450    6.3320   20.3470 C.3       1 TCH301      0.0000 
     21 C18        -4.3320    7.4660   18.3460 C.3       1 TCH301      0.0000 
     22 C19        -3.5290   11.8910   18.1330 C.3       1 TCH301      0.0000 
     23 O1S        -7.3860    1.8860   27.7800 O.co2     1 TCH301      0.0000 
     24 C20        -5.9980    5.2380   19.5580 C.3       1 TCH301      0.0000 
     25 C21        -7.4380    5.4760   19.0200 C.3       1 TCH301      0.0000 
     26 C22        -6.1410    4.0910   20.5880 C.3       1 TCH301      0.0000 
     27 C23        -7.2330    4.3570   21.6150 C.3       1 TCH301      0.0000 
     28 C24        -7.2880    3.2140   22.6190 C.2       1 TCH301      0.0000 
     29 N24        -6.3620    3.1970   23.7220 N.am      1 TCH301      0.0000 
     30 O24        -8.0700    2.3480   22.4890 O.2       1 TCH301      0.0000 
     31 C25        -6.4020    2.1240   24.6990 C.3       1 TCH301      0.0000 
     32 C26        -5.4240    2.5040   25.7940 C.3       1 TCH301      0.0000 
     33 S26        -5.8250    1.6090   27.3200 S.o2      1 TCH301      0.0000 
     34 O2S        -5.6650    0.0100   26.9480 O.co2     1 TCH301      0.0000 
     35 O3S        -4.7500    2.1230   28.4610 O.co2     1 TCH301      0.0000 
@<TRIPOS>BOND
     1    1    2 1    
     2    1   12 1    
     3    2    3 1    
     4    3    4 1    
     5    3    5 1    
     6    5    6 1    
     7    6    7 1    
     8    6   12 1    
     9    7    8 1    
    10    8    9 1    
    11    8   10 1    
    12   10   11 1    
    13   10   17 1    
    14   11   12 1    
    15   11   13 1    
    16   12   22 1    
    17   13   14 1    
    18   14   15 1    
    19   14   16 1    
    20   16   17 1    
    21   16   20 1    
    22   16   21 1    
    23   17   18 1    
    24   18   19 1    
    25   19   20 1    
    26   20   24 1    
    27   23   33 ar   
    28   24   25 1    
    29   24   26 1    
    30   26   27 1    
    31   27   28 1    
    32   28   29 am   
    33   28   30 2    
    34   29   31 1    
    35   31   32 1    
    36   32   33 1    
    37   33   34 ar   
    38   33   35 ar   
@<TRIPOS>SUBSTRUCTURE
     1 TCH301      1 GROUP   
@<TRIPOS>SET

