#    Name: 6pxa_12_TCH_CAVITY_N1_ALL
#    Modification time : Fri May 22 19:39:40 2020

@<TRIPOS>MOLECULE
6pxa_12_TCH_CAVITY_N1_ALL
   81     0     5     0     0
SMALL
NO_CHARGES


@<TRIPOS>ATOM
      1 N          23.3200  -38.2600   32.9300 N.am      1 ALA2        0.0000 
      2 N          23.4100  -40.0600   34.0400 N.am      1 ALA2        0.0000 
      3 N          26.5400  -39.1600   33.2200 N.am      1 ALA2        0.0000 
      4 N          25.5300  -40.0600   33.8600 N.am      1 ALA2        0.0000 
      5 N          24.5200  -40.9700   34.5100 N.am      1 ALA2        0.0000 
      6 N          22.3300  -36.5700   33.7300 N.am      1 ALA2        0.0000 
      7 N          23.4300  -37.4700   34.2000 N.am      1 ALA2        0.0000 
      8 N          22.4200  -38.3700   34.8500 N.am      1 ALA2        0.0000 
      9 N          23.5200  -39.2700   35.3100 N.am      1 ALA2        0.0000 
     10 N          23.6100  -41.0800   36.4300 N.am      1 ALA2        0.0000 
     11 O          21.4200  -36.6800   35.6500 O.2       1 ALA2        0.0000 
     12 NZ         22.2300  -34.7600   32.6200 N.4       2 LYS4        0.0000 
     13 NZ         23.3500  -33.0700   33.2500 N.4       2 LYS4        0.0000 
     14 NZ         22.3400  -33.9700   33.8900 N.4       2 LYS4        0.0000 
     15 NZ         23.5500  -34.0900   35.6300 N.4       2 LYS4        0.0000 
     16 NZ         23.6600  -33.3000   36.9000 N.4       2 LYS4        0.0000 
     17 NZ         23.7700  -32.5100   38.1800 N.4       2 LYS4        0.0000 
     18 CZ         24.6200  -40.1800   35.7800 C.ar      3 PHE5        0.0000 
     19 CZ         25.7300  -41.0800   36.2500 C.ar      3 PHE5        0.0000 
     20 CZ         24.7300  -39.3900   37.0500 C.ar      3 PHE5        0.0000 
     21 CZ         23.7200  -40.2900   37.7000 C.ar      3 PHE5        0.0000 
     22 CZ         21.5300  -35.8900   36.9200 C.ar      3 PHE5        0.0000 
     23 CZ         22.6300  -36.7900   37.3900 C.ar      3 PHE5        0.0000 
     24 CZ         21.6200  -37.6900   38.0300 C.ar      3 PHE5        0.0000 
     25 CZ         24.8400  -38.6000   38.3200 C.ar      3 PHE5        0.0000 
     26 CZ         22.6500  -34.2000   37.5500 C.ar      3 PHE5        0.0000 
     27 CZ         22.7400  -36.0000   38.6600 C.ar      3 PHE5        0.0000 
     28 CZ         25.8600  -35.1000   37.8400 C.ar      3 PHE5        0.0000 
     29 CZ         22.7500  -33.4100   38.8200 C.ar      3 PHE5        0.0000 
     30 CZ         24.8700  -33.4100   38.6400 C.ar      3 PHE5        0.0000 
     31 CZ         23.8600  -34.3100   39.2900 C.ar      3 PHE5        0.0000 
     32 CZ         22.8500  -35.2200   39.9300 C.ar      3 PHE5        0.0000 
     33 CZ         25.9700  -34.3200   39.1100 C.ar      3 PHE5        0.0000 
     34 CZ         22.9400  -37.0200   41.0400 C.ar      3 PHE5        0.0000 
     35 CZ         22.8600  -32.6200   40.0900 C.ar      3 PHE5        0.0000 
     36 CZ         24.9800  -32.6200   39.9100 C.ar      3 PHE5        0.0000 
     37 CZ         23.9600  -33.5300   40.5600 C.ar      3 PHE5        0.0000 
     38 CZ         22.9500  -34.4300   41.2000 C.ar      3 PHE5        0.0000 
     39 CA         23.2300  -36.4500   31.8200 C.3       4 GLY6        0.0000 
     40 CA         21.2200  -35.6600   33.2700 C.3       4 GLY6        0.0000 
     41 CA         22.5100  -40.1700   35.9600 C.3       4 GLY6        0.0000 
     42 CA         26.6500  -38.3700   34.4900 C.3       4 GLY6        0.0000 
     43 CA         25.6300  -39.2800   35.1400 C.3       4 GLY6        0.0000 
     44 CA         26.7400  -40.1800   35.6000 C.3       4 GLY6        0.0000 
     45 CA         21.3300  -34.8700   34.5400 C.3       4 GLY6        0.0000 
     46 CA         22.4300  -35.7800   35.0100 C.3       4 GLY6        0.0000 
     47 CA         22.5200  -37.5800   36.1200 C.3       4 GLY6        0.0000 
     48 CA         22.6200  -39.3900   37.2300 C.3       4 GLY6        0.0000 
     49 CA         26.7500  -37.5900   35.7600 C.3       4 GLY6        0.0000 
     50 CA         25.7400  -38.4900   36.4100 C.3       4 GLY6        0.0000 
     51 CA         22.5400  -34.9900   36.2800 C.3       4 GLY6        0.0000 
     52 CA         22.7200  -38.6000   38.5000 C.3       4 GLY6        0.0000 
     53 CA         25.8500  -37.7000   37.6800 C.3       4 GLY6        0.0000 
     54 CA         23.8300  -39.5000   38.9700 C.3       4 GLY6        0.0000 
     55 CA         22.8300  -37.8100   39.7700 C.3       4 GLY6        0.0000 
     56 CA         25.9600  -36.9100   38.9500 C.3       4 GLY6        0.0000 
     57 CA         24.9400  -37.8100   39.5900 C.3       4 GLY6        0.0000 
     58 CA         23.9300  -38.7100   40.2400 C.3       4 GLY6        0.0000 
     59 CA         24.9600  -35.2200   39.7500 C.3       4 GLY6        0.0000 
     60 CA         23.9500  -36.1200   40.4000 C.3       4 GLY6        0.0000 
     61 CA         25.0700  -34.4300   41.0300 C.3       4 GLY6        0.0000 
     62 CA         24.0600  -35.3300   41.6700 C.3       4 GLY6        0.0000 
     63 DU         24.4200  -39.1600   33.4000 H         5 CUB7        0.0000 
     64 DU         23.2500  -33.8600   31.9800 H         5 CUB7        0.0000 
     65 DU         23.3400  -35.6600   33.0900 H         5 CUB7        0.0000 
     66 DU         24.4400  -36.5700   33.5600 H         5 CUB7        0.0000 
     67 DU         25.5400  -37.4700   34.0200 H         5 CUB7        0.0000 
     68 DU         24.5300  -38.3700   34.6700 H         5 CUB7        0.0000 
     69 DU         23.4400  -34.8800   34.3600 H         5 CUB7        0.0000 
     70 DU         23.5400  -36.6800   35.4700 H         5 CUB7        0.0000 
     71 DU         25.6500  -36.6800   35.3000 H         5 CUB7        0.0000 
     72 DU         24.6400  -37.5800   35.9400 H         5 CUB7        0.0000 
     73 DU         23.6300  -38.4800   36.5800 H         5 CUB7        0.0000 
     74 DU         23.6400  -35.8900   36.7400 H         5 CUB7        0.0000 
     75 DU         24.7500  -36.7900   37.2100 H         5 CUB7        0.0000 
     76 DU         23.7300  -37.7000   37.8600 H         5 CUB7        0.0000 
     77 DU         24.7600  -34.2000   37.3700 H         5 CUB7        0.0000 
     78 DU         23.7500  -35.1000   38.0200 H         5 CUB7        0.0000 
     79 DU         24.8500  -36.0100   38.4800 H         5 CUB7        0.0000 
     80 DU         23.8400  -36.9100   39.1300 H         5 CUB7        0.0000 
     81 DU         23.8700  -31.7200   39.4500 H         5 CUB7        0.0000 
@<TRIPOS>BOND
@<TRIPOS>SUBSTRUCTURE
     1 ALA2        1 GROUP   
     2 LYS4       12 GROUP   
     3 PHE5       18 GROUP   
     4 GLY6       39 GROUP   
     5 CUB7       63 GROUP   
@<TRIPOS>SET

