#    Name: 6pxa_5_TCH_CAVITY_N1_ALL
#    Modification time : Fri May 22 19:38:38 2020

@<TRIPOS>MOLECULE
6pxa_5_TCH_CAVITY_N1_ALL
   79     0     5     0     0
SMALL
NO_CHARGES


@<TRIPOS>ATOM
      1 OG         -6.2400  -19.9200  -78.5900 O.3       1 SER1        0.0000 
      2 OG         -5.1200  -18.2300  -77.9600 O.3       1 SER1        0.0000 
      3 OG         -4.0200  -19.1400  -77.4900 O.3       1 SER1        0.0000 
      4 N          -8.3500  -19.9200  -78.4100 N.am      2 ALA2        0.0000 
      5 N          -7.2500  -20.8200  -77.9400 N.am      2 ALA2        0.0000 
      6 N          -3.9400  -23.5300  -76.5400 N.am      2 ALA2        0.0000 
      7 N          -8.2500  -19.1300  -77.1400 N.am      2 ALA2        0.0000 
      8 N          -7.1400  -20.0400  -76.6700 N.am      2 ALA2        0.0000 
      9 N          -5.0300  -20.0400  -76.8500 N.am      2 ALA2        0.0000 
     10 N          -3.9300  -20.9400  -76.3800 N.am      2 ALA2        0.0000 
     11 N          -4.9400  -21.8400  -75.7400 N.am      2 ALA2        0.0000 
     12 N          -3.8300  -22.7500  -75.2700 N.am      2 ALA2        0.0000 
     13 N          -6.0200  -18.3500  -76.0400 N.am      2 ALA2        0.0000 
     14 N          -7.0400  -19.2500  -75.4000 N.am      2 ALA2        0.0000 
     15 N          -3.9100  -18.3500  -76.2200 N.am      2 ALA2        0.0000 
     16 N          -4.9200  -19.2500  -75.5800 N.am      2 ALA2        0.0000 
     17 N          -3.8200  -20.1500  -75.1100 N.am      2 ALA2        0.0000 
     18 N          -4.8300  -21.0500  -74.4700 N.am      2 ALA2        0.0000 
     19 N          -3.7300  -21.9600  -74.0000 N.am      2 ALA2        0.0000 
     20 N          -4.8100  -18.4600  -74.3100 N.am      2 ALA2        0.0000 
     21 N          -5.8300  -19.3600  -73.6600 N.am      2 ALA2        0.0000 
     22 CZ         -7.3400  -19.0200  -79.0500 C.ar      3 PHE5        0.0000 
     23 CZ         -3.6400  -23.7600  -72.8900 C.ar      3 PHE5        0.0000 
     24 CZ         -6.8400  -20.2600  -73.0200 C.ar      3 PHE5        0.0000 
     25 CZ         -5.7300  -21.1700  -72.5500 C.ar      3 PHE5        0.0000 
     26 CZ         -8.7700  -23.8700  -70.6200 C.ar      3 PHE5        0.0000 
     27 CZ         -7.6600  -24.7700  -70.1500 C.ar      3 PHE5        0.0000 
     28 CZ         -3.5300  -22.9700  -71.6200 C.ar      3 PHE5        0.0000 
     29 CZ         -4.5400  -23.8700  -70.9700 C.ar      3 PHE5        0.0000 
     30 CZ         -6.5600  -25.6800  -69.6800 C.ar      3 PHE5        0.0000 
     31 CZ         -3.4400  -24.7800  -70.5000 C.ar      3 PHE5        0.0000 
     32 CZ         -4.6200  -19.4800  -71.9200 C.ar      3 PHE5        0.0000 
     33 CZ         -5.6300  -20.3800  -71.2800 C.ar      3 PHE5        0.0000 
     34 CZ         -6.6400  -21.2800  -70.6300 C.ar      3 PHE5        0.0000 
     35 CZ         -5.5300  -22.1800  -70.1700 C.ar      3 PHE5        0.0000 
     36 CZ         -3.4200  -22.1800  -70.3400 C.ar      3 PHE5        0.0000 
     37 CZ         -4.4300  -23.0900  -69.7000 C.ar      3 PHE5        0.0000 
     38 CZ         -3.3300  -23.9900  -69.2300 C.ar      3 PHE5        0.0000 
     39 CZ         -5.4300  -21.3900  -68.9000 C.ar      3 PHE5        0.0000 
     40 CA         -5.1500  -23.4200  -78.2800 C.3       4 GLY6        0.0000 
     41 CA         -8.4400  -18.1200  -79.5200 C.3       4 GLY6        0.0000 
     42 CA         -5.1400  -20.8300  -78.1200 C.3       4 GLY6        0.0000 
     43 CA         -4.0300  -21.7300  -77.6500 C.3       4 GLY6        0.0000 
     44 CA         -5.0400  -22.6300  -77.0100 C.3       4 GLY6        0.0000 
     45 CA         -7.2300  -18.2300  -77.7800 C.3       4 GLY6        0.0000 
     46 CA         -2.7300  -23.6500  -74.8000 C.3       4 GLY6        0.0000 
     47 CA         -2.6400  -25.4500  -73.6900 C.3       4 GLY6        0.0000 
     48 CA         -7.9500  -21.9500  -73.6400 C.3       4 GLY6        0.0000 
     49 CA         -6.8500  -22.8600  -73.1800 C.3       4 GLY6        0.0000 
     50 CA         -2.6200  -22.8600  -73.5300 C.3       4 GLY6        0.0000 
     51 CA         -2.5300  -24.6600  -72.4200 C.3       4 GLY6        0.0000 
     52 CA         -3.5400  -25.5700  -71.7800 C.3       4 GLY6        0.0000 
     53 CA         -4.7200  -20.2700  -73.1900 C.3       4 GLY6        0.0000 
     54 CA         -6.7400  -22.0700  -71.9100 C.3       4 GLY6        0.0000 
     55 CA         -7.7600  -22.9700  -71.2600 C.3       4 GLY6        0.0000 
     56 CA         -3.6200  -21.1700  -72.7300 C.3       4 GLY6        0.0000 
     57 CA         -2.5200  -22.0700  -72.2600 C.3       4 GLY6        0.0000 
     58 CA         -7.6500  -22.1800  -69.9900 C.3       4 GLY6        0.0000 
     59 CA         -3.5100  -20.3800  -71.4600 C.3       4 GLY6        0.0000 
     60 CA         -4.5200  -21.2800  -70.8100 C.3       4 GLY6        0.0000 
     61 CA         -6.5500  -23.0800  -69.5200 C.3       4 GLY6        0.0000 
     62 CA         -5.4400  -23.9900  -69.0600 C.3       4 GLY6        0.0000 
     63 DU         -6.1500  -21.7300  -77.4800 H         5 CUB7        0.0000 
     64 DU         -6.1300  -19.1300  -77.3200 H         5 CUB7        0.0000 
     65 DU         -6.0400  -20.9400  -76.2000 H         5 CUB7        0.0000 
     66 DU         -7.0500  -21.8400  -75.5600 H         5 CUB7        0.0000 
     67 DU         -5.9500  -22.7400  -75.0900 H         5 CUB7        0.0000 
     68 DU         -4.8500  -23.6500  -74.6300 H         5 CUB7        0.0000 
     69 DU         -3.7400  -24.5500  -74.1600 H         5 CUB7        0.0000 
     70 DU         -5.9300  -20.1500  -74.9300 H         5 CUB7        0.0000 
     71 DU         -6.9400  -21.0500  -74.2900 H         5 CUB7        0.0000 
     72 DU         -5.8400  -21.9600  -73.8200 H         5 CUB7        0.0000 
     73 DU         -4.7400  -22.8600  -73.3500 H         5 CUB7        0.0000 
     74 DU         -4.6500  -24.6600  -72.2400 H         5 CUB7        0.0000 
     75 DU         -4.6300  -22.0700  -72.0800 H         5 CUB7        0.0000 
     76 DU         -5.6400  -22.9700  -71.4400 H         5 CUB7        0.0000 
     77 DU         -6.6500  -23.8700  -70.7900 H         5 CUB7        0.0000 
     78 DU         -5.5500  -24.7800  -70.3300 H         5 CUB7        0.0000 
     79 DU         -4.4500  -25.6800  -69.8600 H         5 CUB7        0.0000 
@<TRIPOS>BOND
@<TRIPOS>SUBSTRUCTURE
     1 SER1        1 GROUP   
     2 ALA2        4 GROUP   
     3 PHE5       22 GROUP   
     4 GLY6       40 GROUP   
     5 CUB7       63 GROUP   
@<TRIPOS>SET

