#    Name: 6pxa_12_TCH
#    Modification time : Fri May 22 19:39:39 2020

@<TRIPOS>MOLECULE
6pxa_12_TCH
   35    38     1     0     0
SMALL
NO_CHARGES


@<TRIPOS>ATOM
      1 C1         25.5140  -37.4240   37.7550 C.3       1 TCH301      0.0000 
      2 C2         26.5660  -36.2860   37.4210 C.3       1 TCH301      0.0000 
      3 C3         25.8610  -34.9050   37.3070 C.3       1 TCH301      0.0000 
      4 O3         26.7710  -33.9220   36.9780 O.3       1 TCH301      0.0000 
      5 C4         24.7740  -34.9930   36.1820 C.3       1 TCH301      0.0000 
      6 C5         23.6840  -36.0170   36.5430 C.3       1 TCH301      0.0000 
      7 C6         22.5380  -35.9900   35.4900 C.3       1 TCH301      0.0000 
      8 C7         22.9080  -36.7380   34.1320 C.3       1 TCH301      0.0000 
      9 O7         23.7220  -35.9240   33.3680 O.3       1 TCH301      0.0000 
     10 C8         23.6190  -38.1050   34.3440 C.3       1 TCH301      0.0000 
     11 C9         24.8080  -37.9680   35.3820 C.3       1 TCH301      0.0000 
     12 C10        24.3400  -37.4300   36.7510 C.3       1 TCH301      0.0000 
     13 C11        25.5860  -39.3060   35.4420 C.3       1 TCH301      0.0000 
     14 C12        26.0550  -39.7960   34.1670 C.3       1 TCH301      0.0000 
     15 O12        27.1020  -38.9870   33.6510 O.3       1 TCH301      0.0000 
     16 C13        24.8510  -39.8240   33.0540 C.3       1 TCH301      0.0000 
     17 C14        24.2650  -38.6010   32.9930 C.3       1 TCH301      0.0000 
     18 C15        23.1210  -38.7880   31.8790 C.3       1 TCH301      0.0000 
     19 C16        23.7970  -39.5900   30.8770 C.3       1 TCH301      0.0000 
     20 C17        25.1410  -40.0580   31.4670 C.3       1 TCH301      0.0000 
     21 C18        23.8300  -40.8870   33.4870 C.3       1 TCH301      0.0000 
     22 C19        23.2800  -38.3520   37.3540 C.3       1 TCH301      0.0000 
     23 O1S        26.0630  -38.2070   22.3530 O.co2     1 TCH301      0.0000 
     24 C20        25.4130  -41.4160   30.9930 C.3       1 TCH301      0.0000 
     25 C21        26.7400  -42.0450   31.5020 C.3       1 TCH301      0.0000 
     26 C22        25.5580  -41.3110   29.4440 C.3       1 TCH301      0.0000 
     27 C23        26.8090  -40.5720   28.9710 C.3       1 TCH301      0.0000 
     28 C24        26.8790  -40.4630   27.4490 C.2       1 TCH301      0.0000 
     29 N24        26.3080  -39.3000   26.7990 N.am      1 TCH301      0.0000 
     30 O24        27.4090  -41.3060   26.8050 O.2       1 TCH301      0.0000 
     31 C25        26.3370  -39.1130   25.3560 C.3       1 TCH301      0.0000 
     32 C26        25.4790  -37.8870   25.1070 C.3       1 TCH301      0.0000 
     33 S26        26.0540  -37.1090   23.5780 S.o2      1 TCH301      0.0000 
     34 O2S        24.9940  -35.8840   23.2910 O.co2     1 TCH301      0.0000 
     35 O3S        27.5980  -36.5870   23.8120 O.co2     1 TCH301      0.0000 
@<TRIPOS>BOND
     1    1    2 1    
     2    1   12 1    
     3    2    3 1    
     4    3    4 1    
     5    3    5 1    
     6    5    6 1    
     7    6    7 1    
     8    6   12 1    
     9    7    8 1    
    10    8    9 1    
    11    8   10 1    
    12   10   11 1    
    13   10   17 1    
    14   11   12 1    
    15   11   13 1    
    16   12   22 1    
    17   13   14 1    
    18   14   15 1    
    19   14   16 1    
    20   16   17 1    
    21   16   20 1    
    22   16   21 1    
    23   17   18 1    
    24   18   19 1    
    25   19   20 1    
    26   20   24 1    
    27   23   33 ar   
    28   24   25 1    
    29   24   26 1    
    30   26   27 1    
    31   27   28 1    
    32   28   29 am   
    33   28   30 2    
    34   29   31 1    
    35   31   32 1    
    36   32   33 1    
    37   33   34 ar   
    38   33   35 ar   
@<TRIPOS>SUBSTRUCTURE
     1 TCH301      1 GROUP   
@<TRIPOS>SET

