#    Name: 6pxa_8_TCH
#    Modification time : Fri May 22 19:39:04 2020

@<TRIPOS>MOLECULE
6pxa_8_TCH
   35    38     1     0     0
SMALL
NO_CHARGES


@<TRIPOS>ATOM
      1 C1         20.6030  -74.3480  -16.3240 C.3       1 TCH301      0.0000 
      2 C2         21.3860  -74.6950  -14.9930 C.3       1 TCH301      0.0000 
      3 C3         20.4640  -75.3170  -13.8990 C.3       1 TCH301      0.0000 
      4 O3         21.1730  -75.4800  -12.7280 O.3       1 TCH301      0.0000 
      5 C4         19.2000  -74.4160  -13.6160 C.3       1 TCH301      0.0000 
      6 C5         18.4410  -74.0650  -14.9220 C.3       1 TCH301      0.0000 
      7 C6         17.2310  -73.1450  -14.6160 C.3       1 TCH301      0.0000 
      8 C7         17.6610  -71.6500  -14.2850 C.3       1 TCH301      0.0000 
      9 O7         18.1850  -71.5970  -13.0030 O.3       1 TCH301      0.0000 
     10 C8         18.6740  -71.0610  -15.3050 C.3       1 TCH301      0.0000 
     11 C9         19.8710  -72.0610  -15.5690 C.3       1 TCH301      0.0000 
     12 C10        19.3910  -73.4580  -16.0050 C.3       1 TCH301      0.0000 
     13 C11        20.8720  -71.4150  -16.5570 C.3       1 TCH301      0.0000 
     14 C12        21.3400  -70.1120  -16.1720 C.3       1 TCH301      0.0000 
     15 O12        22.2080  -70.1550  -15.0590 O.3       1 TCH301      0.0000 
     16 C13        20.1190  -69.1290  -15.7080 C.3       1 TCH301      0.0000 
     17 C14        19.3580  -69.7440  -14.7710 C.3       1 TCH301      0.0000 
     18 C15        18.2490  -68.6380  -14.4150 C.3       1 TCH301      0.0000 
     19 C16        19.0150  -67.4010  -14.4010 C.3       1 TCH301      0.0000 
     20 C17        20.4180  -67.7220  -14.9360 C.3       1 TCH301      0.0000 
     21 C18        19.2880  -68.8260  -16.9620 C.3       1 TCH301      0.0000 
     22 C19        18.5670  -73.3560  -17.2740 C.3       1 TCH301      0.0000 
     23 O1S        22.1910  -63.3570   -7.4810 O.co2     1 TCH301      0.0000 
     24 C20        20.9280  -66.5970  -15.7230 C.3       1 TCH301      0.0000 
     25 C21        22.3230  -66.8240  -16.3860 C.3       1 TCH301      0.0000 
     26 C22        21.0710  -65.3930  -14.7410 C.3       1 TCH301      0.0000 
     27 C23        22.2490  -65.5000  -13.7730 C.3       1 TCH301      0.0000 
     28 C24        22.2450  -64.3410  -12.7720 C.2       1 TCH301      0.0000 
     29 N24        21.2740  -64.3360  -11.7000 N.am      1 TCH301      0.0000 
     30 O24        23.0150  -63.4520  -12.8810 O.2       1 TCH301      0.0000 
     31 C25        21.2150  -63.2710  -10.7160 C.3       1 TCH301      0.0000 
     32 C26        20.3280  -63.7400   -9.5650 C.3       1 TCH301      0.0000 
     33 S26        20.7290  -62.8460   -8.0390 S.o2      1 TCH301      0.0000 
     34 O2S        20.8640  -61.2260   -8.3600 O.co2     1 TCH301      0.0000 
     35 O3S        19.4760  -63.1300   -7.0140 O.co2     1 TCH301      0.0000 
@<TRIPOS>BOND
     1    1    2 1    
     2    1   12 1    
     3    2    3 1    
     4    3    4 1    
     5    3    5 1    
     6    5    6 1    
     7    6    7 1    
     8    6   12 1    
     9    7    8 1    
    10    8    9 1    
    11    8   10 1    
    12   10   11 1    
    13   10   17 1    
    14   11   12 1    
    15   11   13 1    
    16   12   22 1    
    17   13   14 1    
    18   14   15 1    
    19   14   16 1    
    20   16   17 1    
    21   16   20 1    
    22   16   21 1    
    23   17   18 1    
    24   18   19 1    
    25   19   20 1    
    26   20   24 1    
    27   23   33 ar   
    28   24   25 1    
    29   24   26 1    
    30   26   27 1    
    31   27   28 1    
    32   28   29 am   
    33   28   30 2    
    34   29   31 1    
    35   31   32 1    
    36   32   33 1    
    37   33   34 ar   
    38   33   35 ar   
@<TRIPOS>SUBSTRUCTURE
     1 TCH301      1 GROUP   
@<TRIPOS>SET

