#    Name: 6pxa_3_TCH
#    Modification time : Fri May 22 19:38:17 2020

@<TRIPOS>MOLECULE
6pxa_3_TCH
   35    38     1     0     0
SMALL
NO_CHARGES


@<TRIPOS>ATOM
      1 C1         -9.1440    9.6370  -20.2410 C.3       1 TCH301      0.0000 
      2 C2        -10.1960   10.5600  -20.9650 C.3       1 TCH301      0.0000 
      3 C3         -9.6000   11.1980  -22.2470 C.3       1 TCH301      0.0000 
      4 O3        -10.5400   12.0530  -22.7800 O.3       1 TCH301      0.0000 
      5 C4         -8.2470   11.9610  -21.9520 C.3       1 TCH301      0.0000 
      6 C5         -7.2470   11.1670  -21.0600 C.3       1 TCH301      0.0000 
      7 C6         -6.0420   12.0490  -20.6300 C.3       1 TCH301      0.0000 
      8 C7         -6.3460   13.0460  -19.4390 C.3       1 TCH301      0.0000 
      9 O7         -7.1620   14.0730  -19.8740 O.3       1 TCH301      0.0000 
     10 C8         -7.0320   12.3340  -18.2550 C.3       1 TCH301      0.0000 
     11 C9         -8.2970   11.5300  -18.7630 C.3       1 TCH301      0.0000 
     12 C10        -7.9260   10.4780  -19.8230 C.3       1 TCH301      0.0000 
     13 C11        -8.9960   10.9320  -17.5270 C.3       1 TCH301      0.0000 
     14 C12        -9.3670   11.9120  -16.5440 C.3       1 TCH301      0.0000 
     15 O12       -10.3920   12.7410  -17.0430 O.3       1 TCH301      0.0000 
     16 C13        -8.0980   12.8660  -16.1120 C.3       1 TCH301      0.0000 
     17 C14        -7.5390   13.4080  -17.2180 C.3       1 TCH301      0.0000 
     18 C15        -6.3010   14.2540  -16.6440 C.3       1 TCH301      0.0000 
     19 C16        -6.8940   14.9110  -15.4970 C.3       1 TCH301      0.0000 
     20 C17        -8.2540   14.2380  -15.2430 C.3       1 TCH301      0.0000 
     21 C18        -7.0950   11.9540  -15.3900 C.3       1 TCH301      0.0000 
     22 C19        -6.9190    9.5180  -19.2000 C.3       1 TCH301      0.0000 
     23 O1S        -8.4560   23.2340  -13.1690 O.co2     1 TCH301      0.0000 
     24 C20        -8.4420   14.1020  -13.8070 C.3       1 TCH301      0.0000 
     25 C21        -9.7330   13.3350  -13.4030 C.3       1 TCH301      0.0000 
     26 C22        -8.5500   15.5600  -13.2630 C.3       1 TCH301      0.0000 
     27 C23        -9.8360   16.2970  -13.6400 C.3       1 TCH301      0.0000 
     28 C24        -9.7830   17.7510  -13.1720 C.2       1 TCH301      0.0000 
     29 N24        -8.9630   18.6890  -13.9110 N.am      1 TCH301      0.0000 
     30 O24       -10.3900   18.1150  -12.2190 O.2       1 TCH301      0.0000 
     31 C25        -8.8770   20.0750  -13.5040 C.3       1 TCH301      0.0000 
     32 C26        -8.2790   20.8450  -14.6730 C.3       1 TCH301      0.0000 
     33 S26        -8.7980   22.5870  -14.6440 S.o2      1 TCH301      0.0000 
     34 O2S        -7.9710   23.3100  -15.8690 O.co2     1 TCH301      0.0000 
     35 O3S       -10.4250   22.6850  -14.9090 O.co2     1 TCH301      0.0000 
@<TRIPOS>BOND
     1    1    2 1    
     2    1   12 1    
     3    2    3 1    
     4    3    4 1    
     5    3    5 1    
     6    5    6 1    
     7    6    7 1    
     8    6   12 1    
     9    7    8 1    
    10    8    9 1    
    11    8   10 1    
    12   10   11 1    
    13   10   17 1    
    14   11   12 1    
    15   11   13 1    
    16   12   22 1    
    17   13   14 1    
    18   14   15 1    
    19   14   16 1    
    20   16   17 1    
    21   16   20 1    
    22   16   21 1    
    23   17   18 1    
    24   18   19 1    
    25   19   20 1    
    26   20   24 1    
    27   23   33 ar   
    28   24   25 1    
    29   24   26 1    
    30   26   27 1    
    31   27   28 1    
    32   28   29 am   
    33   28   30 2    
    34   29   31 1    
    35   31   32 1    
    36   32   33 1    
    37   33   34 ar   
    38   33   35 ar   
@<TRIPOS>SUBSTRUCTURE
     1 TCH301      1 GROUP   
@<TRIPOS>SET

