#    Name: 6pxa_4_TCH
#    Modification time : Fri May 22 19:38:27 2020

@<TRIPOS>MOLECULE
6pxa_4_TCH
   35    38     1     0     0
SMALL
NO_CHARGES


@<TRIPOS>ATOM
      1 C1         -4.3660   12.4600  -53.0620 C.3       1 TCH301      0.0000 
      2 C2         -5.2680   12.9350  -51.8600 C.3       1 TCH301      0.0000 
      3 C3         -4.4380   13.4150  -50.6390 C.3       1 TCH301      0.0000 
      4 O3         -5.2580   13.5390  -49.5370 O.3       1 TCH301      0.0000 
      5 C4         -3.2870   12.4110  -50.2610 C.3       1 TCH301      0.0000 
      6 C5         -2.3930   12.0400  -51.4730 C.3       1 TCH301      0.0000 
      7 C6         -1.2420   11.0840  -51.0780 C.3       1 TCH301      0.0000 
      8 C7         -1.7260    9.6090  -50.7640 C.3       1 TCH301      0.0000 
      9 O7         -2.4310    9.5840  -49.5760 O.3       1 TCH301      0.0000 
     10 C8         -2.6270    9.0640  -51.8980 C.3       1 TCH301      0.0000 
     11 C9         -3.7930   10.0830  -52.2420 C.3       1 TCH301      0.0000 
     12 C10        -3.2520   11.4710  -52.6440 C.3       1 TCH301      0.0000 
     13 C11        -4.7010    9.4440  -53.3160 C.3       1 TCH301      0.0000 
     14 C12        -5.2060    8.1380  -52.9640 C.3       1 TCH301      0.0000 
     15 O12        -6.1880    8.1970  -51.9490 O.3       1 TCH301      0.0000 
     16 C13        -4.0020    7.1400  -52.4530 C.3       1 TCH301      0.0000 
     17 C14        -3.2910    7.7090  -51.4550 C.3       1 TCH301      0.0000 
     18 C15        -2.1450    6.6160  -51.1600 C.3       1 TCH301      0.0000 
     19 C16        -2.8880    5.3670  -51.1940 C.3       1 TCH301      0.0000 
     20 C17        -4.2850    5.6930  -51.7490 C.3       1 TCH301      0.0000 
     21 C18        -3.0940    6.9340  -53.6770 C.3       1 TCH301      0.0000 
     22 C19        -2.3120   11.3290  -53.8400 C.3       1 TCH301      0.0000 
     23 O1S        -6.2970    0.7430  -44.7020 O.co2     1 TCH301      0.0000 
     24 C20        -4.7210    4.5890  -52.6050 C.3       1 TCH301      0.0000 
     25 C21        -6.0450    4.8300  -53.3930 C.3       1 TCH301      0.0000 
     26 C22        -4.9890    3.3870  -51.6510 C.3       1 TCH301      0.0000 
     27 C23        -6.1670    3.6320  -50.7200 C.3       1 TCH301      0.0000 
     28 C24        -6.2700    2.5210  -49.6800 C.2       1 TCH301      0.0000 
     29 N24        -5.1370    2.2520  -48.8230 N.am      1 TCH301      0.0000 
     30 O24        -7.2580    1.8810  -49.5730 O.2       1 TCH301      0.0000 
     31 C25        -5.2160    1.2010  -47.8250 C.3       1 TCH301      0.0000 
     32 C26        -4.4190    1.6600  -46.6100 C.3       1 TCH301      0.0000 
     33 S26        -4.7290    0.5860  -45.1830 S.o2      1 TCH301      0.0000 
     34 O2S        -4.4520   -0.9800  -45.6540 O.co2     1 TCH301      0.0000 
     35 O3S        -3.6600    1.0590  -44.0310 O.co2     1 TCH301      0.0000 
@<TRIPOS>BOND
     1    1    2 1    
     2    1   12 1    
     3    2    3 1    
     4    3    4 1    
     5    3    5 1    
     6    5    6 1    
     7    6    7 1    
     8    6   12 1    
     9    7    8 1    
    10    8    9 1    
    11    8   10 1    
    12   10   11 1    
    13   10   17 1    
    14   11   12 1    
    15   11   13 1    
    16   12   22 1    
    17   13   14 1    
    18   14   15 1    
    19   14   16 1    
    20   16   17 1    
    21   16   20 1    
    22   16   21 1    
    23   17   18 1    
    24   18   19 1    
    25   19   20 1    
    26   20   24 1    
    27   23   33 ar   
    28   24   25 1    
    29   24   26 1    
    30   26   27 1    
    31   27   28 1    
    32   28   29 am   
    33   28   30 2    
    34   29   31 1    
    35   31   32 1    
    36   32   33 1    
    37   33   34 ar   
    38   33   35 ar   
@<TRIPOS>SUBSTRUCTURE
     1 TCH301      1 GROUP   
@<TRIPOS>SET

