#    Name: 6ofb_2_DND
#    Modification time : Fri May 22 19:37:29 2020

@<TRIPOS>MOLECULE
6ofb_2_DND
   44    48     1     0     0
SMALL
NO_CHARGES


@<TRIPOS>ATOM
      1 PN        -13.1880   57.0110   60.0160 P.3       1 DND901      0.0000 
      2 O11       -11.7390   57.4450   60.0380 O.co2     1 DND901      0.0000 
      3 O12       -14.1190   57.3540   61.1580 O.co2     1 DND901      0.0000 
      4 O3P       -13.2240   55.4100   59.8100 O.3       1 DND901      0.0000 
      5 O5D       -13.8550   57.6080   58.6680 O.3       1 DND901      0.0000 
      6 C5D       -13.0310   58.3080   57.7260 C.3       1 DND901      0.0000 
      7 C4D       -13.6330   59.6210   57.2090 C.3       1 DND901      0.0000 
      8 O4D       -12.7360   60.2110   56.2580 O.3       1 DND901      0.0000 
      9 C3D       -14.9800   59.4730   56.5050 C.3       1 DND901      0.0000 
     10 O3D       -15.9600   60.2580   57.1990 O.3       1 DND901      0.0000 
     11 C2D       -14.7690   59.9960   55.0870 C.3       1 DND901      0.0000 
     12 O2D       -15.8470   60.8280   54.6340 O.3       1 DND901      0.0000 
     13 C1D       -13.4720   60.7810   55.1700 C.3       1 DND901      0.0000 
     14 N1N       -12.6810   60.6780   53.9440 N.pl3     1 DND901      0.0000 
     15 C6N       -12.9940   59.8230   52.9540 C.ar      1 DND901      0.0000 
     16 C5N       -12.2090   59.7530   51.8030 C.ar      1 DND901      0.0000 
     17 C4N       -11.0910   60.5740   51.6900 C.ar      1 DND901      0.0000 
     18 C3N       -10.8080   61.4490   52.7340 C.ar      1 DND901      0.0000 
     19 C2N       -11.6160   61.4720   53.8540 C.ar      1 DND901      0.0000 
     20 C7N        -9.6270   62.3670   52.7150 C.2       1 DND901      0.0000 
     21 O7N        -9.8220   63.6030   52.6780 O.co2     1 DND901      0.0000 
     22 O8N        -8.4840   61.8640   52.7810 O.co2     1 DND901      0.0000 
     23 PA        -12.2380   54.3260   60.5130 P.3       1 DND901      0.0000 
     24 O13       -13.1080   53.1790   60.9720 O.co2     1 DND901      0.0000 
     25 O14       -11.1530   54.0150   59.5080 O.co2     1 DND901      0.0000 
     26 O5B       -11.5310   54.9560   61.8310 O.3       1 DND901      0.0000 
     27 C5B       -12.2560   55.3240   63.0100 C.3       1 DND901      0.0000 
     28 C4B       -12.1500   54.2910   64.1400 C.3       1 DND901      0.0000 
     29 O4B       -12.3440   54.9280   65.4180 O.3       1 DND901      0.0000 
     30 C3B       -13.2410   53.2330   64.0190 C.3       1 DND901      0.0000 
     31 O3B       -12.6920   51.9160   64.1490 O.3       1 DND901      0.0000 
     32 C2B       -14.1880   53.4980   65.1740 C.3       1 DND901      0.0000 
     33 O2B       -14.7320   52.2590   65.6440 O.3       1 DND901      0.0000 
     34 C1B       -13.3080   54.2060   66.2090 C.3       1 DND901      0.0000 
     35 N9A       -14.0720   55.0550   67.2010 N.pl3     1 DND901      0.0000 
     36 C4A       -13.6660   55.4460   68.4290 C.ar      1 DND901      0.0000 
     37 N3A       -12.5330   55.2740   69.1300 N.ar      1 DND901      0.0000 
     38 C2A       -12.3670   55.7860   70.3690 C.ar      1 DND901      0.0000 
     39 N1A       -13.3130   56.5080   70.9950 N.ar      1 DND901      0.0000 
     40 C6A       -14.4910   56.7440   70.3730 C.ar      1 DND901      0.0000 
     41 C5A       -14.6920   56.1840   69.0090 C.ar      1 DND901      0.0000 
     42 N7A       -15.7150   56.2310   68.1350 N.2       1 DND901      0.0000 
     43 C8A       -15.3270   55.5260   67.0420 C.2       1 DND901      0.0000 
     44 N6A       -15.4740   57.4690   70.9620 N.pl3     1 DND901      0.0000 
@<TRIPOS>BOND
     1    1    2 ar   
     2    1    3 ar   
     3    1    4 1    
     4    1    5 1    
     5    4   23 1    
     6    5    6 1    
     7    6    7 1    
     8    7    8 1    
     9    7    9 1    
    10    8   13 1    
    11    9   10 1    
    12    9   11 1    
    13   11   12 1    
    14   11   13 1    
    15   13   14 1    
    16   14   15 ar   
    17   14   19 ar   
    18   15   16 ar   
    19   16   17 ar   
    20   17   18 ar   
    21   18   19 ar   
    22   18   20 1    
    23   20   21 ar   
    24   20   22 ar   
    25   23   24 ar   
    26   23   25 ar   
    27   23   26 1    
    28   26   27 1    
    29   27   28 1    
    30   28   29 1    
    31   28   30 1    
    32   29   34 1    
    33   30   31 1    
    34   30   32 1    
    35   32   33 1    
    36   32   34 1    
    37   34   35 1    
    38   35   36 1    
    39   35   43 1    
    40   36   37 ar   
    41   36   41 ar   
    42   37   38 ar   
    43   38   39 ar   
    44   39   40 ar   
    45   40   41 ar   
    46   40   44 1    
    47   41   42 1    
    48   42   43 2    
@<TRIPOS>SUBSTRUCTURE
     1 DND901      1 GROUP   
@<TRIPOS>SET

