#    Name: 6ofb_1_DND
#    Modification time : Fri May 22 19:37:17 2020

@<TRIPOS>MOLECULE
6ofb_1_DND
   44    48     1     0     0
SMALL
NO_CHARGES


@<TRIPOS>ATOM
      1 PN         11.1400   52.6800   63.1930 P.3       1 DND901      0.0000 
      2 O11         9.7000   52.6330   63.6560 O.co2     1 DND901      0.0000 
      3 O12        12.1010   53.7090   63.7470 O.co2     1 DND901      0.0000 
      4 O3P        11.1400   52.8160   61.5840 O.3       1 DND901      0.0000 
      5 O5D        11.7900   51.2260   63.4770 O.3       1 DND901      0.0000 
      6 C5D        10.9600   50.1710   63.9820 C.3       1 DND901      0.0000 
      7 C4D        11.5770   49.3790   65.1430 C.3       1 DND901      0.0000 
      8 O4D        10.6720   48.3390   65.5400 O.3       1 DND901      0.0000 
      9 C3D        12.9060   48.7000   64.8180 C.3       1 DND901      0.0000 
     10 O3D        13.9150   49.1970   65.7090 O.3       1 DND901      0.0000 
     11 C2D        12.6750   47.2070   65.0360 C.3       1 DND901      0.0000 
     12 O2D        13.7600   46.5720   65.7280 O.3       1 DND901      0.0000 
     13 C1D        11.3960   47.1440   65.8510 C.3       1 DND901      0.0000 
     14 N1N        10.5780   45.9800   65.5100 N.pl3     1 DND901      0.0000 
     15 C6N        10.8540   45.1880   64.4590 C.ar      1 DND901      0.0000 
     16 C5N        10.0440   44.0900   64.1660 C.ar      1 DND901      0.0000 
     17 C4N         8.9400   43.8250   64.9710 C.ar      1 DND901      0.0000 
     18 C3N         8.6950   44.6650   66.0530 C.ar      1 DND901      0.0000 
     19 C2N         9.5270   45.7420   66.2920 C.ar      1 DND901      0.0000 
     20 C7N         7.5320   44.4720   66.9730 C.2       1 DND901      0.0000 
     21 O7N         7.7500   44.1720   68.1690 O.co2     1 DND901      0.0000 
     22 O8N         6.3810   44.6610   66.5220 O.co2     1 DND901      0.0000 
     23 PA         10.1480   53.7480   60.6960 P.3       1 DND901      0.0000 
     24 O13        11.0050   54.4240   59.6520 O.co2     1 DND901      0.0000 
     25 O14         9.0370   52.8490   60.2060 O.co2     1 DND901      0.0000 
     26 O5B         9.4810   54.9140   61.6060 O.3       1 DND901      0.0000 
     27 C5B        10.2370   55.9770   62.1970 C.3       1 DND901      0.0000 
     28 C4B        10.1350   57.3010   61.4280 C.3       1 DND901      0.0000 
     29 O4B        10.3680   58.4130   62.3150 O.3       1 DND901      0.0000 
     30 C3B        11.2020   57.3890   60.3430 C.3       1 DND901      0.0000 
     31 O3B        10.6310   57.8030   59.0960 O.3       1 DND901      0.0000 
     32 C2B        12.1780   58.4460   60.8230 C.3       1 DND901      0.0000 
     33 O2B        12.7080   59.1580   59.6990 O.3       1 DND901      0.0000 
     34 C1B        11.3340   59.3230   61.7530 C.3       1 DND901      0.0000 
     35 N9A        12.1340   60.1010   62.7740 N.pl3     1 DND901      0.0000 
     36 C4A        11.7620   61.2250   63.4250 C.ar      1 DND901      0.0000 
     37 N3A        10.6400   61.9650   63.4300 N.ar      1 DND901      0.0000 
     38 C2A        10.5100   63.0700   64.1960 C.ar      1 DND901      0.0000 
     39 N1A        11.4830   63.5150   65.0110 N.ar      1 DND901      0.0000 
     40 C6A        12.6520   62.8380   65.0830 C.ar      1 DND901      0.0000 
     41 C5A        12.8140   61.6200   64.2440 C.ar      1 DND901      0.0000 
     42 N7A        13.8190   60.7390   64.0820 N.2       1 DND901      0.0000 
     43 C8A        13.3950   59.8260   63.1720 C.2       1 DND901      0.0000 
     44 N6A        13.6610   63.2450   65.8930 N.pl3     1 DND901      0.0000 
@<TRIPOS>BOND
     1    1    2 ar   
     2    1    3 ar   
     3    1    4 1    
     4    1    5 1    
     5    4   23 1    
     6    5    6 1    
     7    6    7 1    
     8    7    8 1    
     9    7    9 1    
    10    8   13 1    
    11    9   10 1    
    12    9   11 1    
    13   11   12 1    
    14   11   13 1    
    15   13   14 1    
    16   14   15 ar   
    17   14   19 ar   
    18   15   16 ar   
    19   16   17 ar   
    20   17   18 ar   
    21   18   19 ar   
    22   18   20 1    
    23   20   21 ar   
    24   20   22 ar   
    25   23   24 ar   
    26   23   25 ar   
    27   23   26 1    
    28   26   27 1    
    29   27   28 1    
    30   28   29 1    
    31   28   30 1    
    32   29   34 1    
    33   30   31 1    
    34   30   32 1    
    35   32   33 1    
    36   32   34 1    
    37   34   35 1    
    38   35   36 1    
    39   35   43 1    
    40   36   37 ar   
    41   36   41 ar   
    42   37   38 ar   
    43   38   39 ar   
    44   39   40 ar   
    45   40   41 ar   
    46   40   44 1    
    47   41   42 1    
    48   42   43 2    
@<TRIPOS>SUBSTRUCTURE
     1 DND901      1 GROUP   
@<TRIPOS>SET

