#    Name: 5wgd_1_EST
#    Modification time : Fri May 22 19:12:14 2020

@<TRIPOS>MOLECULE
5wgd_1_EST
   20    23     1     0     0
SMALL
NO_CHARGES


@<TRIPOS>ATOM
      1 C1         61.4060   -2.4290   59.7530 C.ar      1 EST601      0.0000 
      2 C2         60.5960   -2.2230   58.6720 C.ar      1 EST601      0.0000 
      3 C3         59.2300   -2.3820   58.7240 C.ar      1 EST601      0.0000 
      4 O3         58.4970   -2.1440   57.6400 O.3       1 EST601      0.0000 
      5 C4         58.6380   -2.7810   59.8870 C.ar      1 EST601      0.0000 
      6 C5         59.4000   -2.9960   61.0160 C.ar      1 EST601      0.0000 
      7 C6         58.7610   -3.4260   62.3150 C.3       1 EST601      0.0000 
      8 C7         59.7570   -3.9570   63.3130 C.3       1 EST601      0.0000 
      9 C8         61.0010   -3.1090   63.4470 C.3       1 EST601      0.0000 
     10 C9         61.7470   -3.0700   62.1320 C.3       1 EST601      0.0000 
     11 C10        60.8720   -2.8200   60.9470 C.ar      1 EST601      0.0000 
     12 C11        62.9140   -2.1050   62.2690 C.3       1 EST601      0.0000 
     13 C12        63.8820   -2.6600   63.2970 C.3       1 EST601      0.0000 
     14 C13        63.2160   -2.8240   64.6650 C.3       1 EST601      0.0000 
     15 C14        61.9880   -3.6690   64.4680 C.3       1 EST601      0.0000 
     16 C15        61.5430   -3.9890   65.8810 C.3       1 EST601      0.0000 
     17 C16        62.7950   -4.0290   66.7010 C.3       1 EST601      0.0000 
     18 C17        63.9300   -3.5630   65.8020 C.3       1 EST601      0.0000 
     19 O17        64.9000   -2.8400   66.4990 O.3       1 EST601      0.0000 
     20 C18        62.8050   -1.4870   65.1690 C.3       1 EST601      0.0000 
@<TRIPOS>BOND
     1    1    2 ar   
     2    1   11 ar   
     3    2    3 ar   
     4    3    4 1    
     5    3    5 ar   
     6    5    6 ar   
     7    6    7 1    
     8    6   11 ar   
     9    7    8 1    
    10    8    9 1    
    11    9   10 1    
    12    9   15 1    
    13   10   11 1    
    14   10   12 1    
    15   12   13 1    
    16   13   14 1    
    17   14   15 1    
    18   14   18 1    
    19   14   20 1    
    20   15   16 1    
    21   16   17 1    
    22   17   18 1    
    23   18   19 1    
@<TRIPOS>SUBSTRUCTURE
     1 EST601      1 GROUP   
@<TRIPOS>SET

