#    Name: 5wgd_2_EST
#    Modification time : Fri May 22 19:12:18 2020

@<TRIPOS>MOLECULE
5wgd_2_EST
   20    23     1     0     0
SMALL
NO_CHARGES


@<TRIPOS>ATOM
      1 C1         50.8940    5.3260   91.9480 C.ar      1 EST601      0.0000 
      2 C2         49.5860    5.1840   92.3160 C.ar      1 EST601      0.0000 
      3 C3         48.5540    5.3720   91.4370 C.ar      1 EST601      0.0000 
      4 O3         47.3090    5.2320   91.8800 O.3       1 EST601      0.0000 
      5 C4         48.8520    5.7550   90.1410 C.ar      1 EST601      0.0000 
      6 C5         50.1410    5.9000   89.7020 C.ar      1 EST601      0.0000 
      7 C6         50.4470    6.2990   88.2670 C.3       1 EST601      0.0000 
      8 C7         51.8950    6.6870   88.0730 C.3       1 EST601      0.0000 
      9 C8         52.8760    5.7730   88.7690 C.3       1 EST601      0.0000 
     10 C9         52.6500    5.8460   90.2620 C.3       1 EST601      0.0000 
     11 C10        51.2340    5.6820   90.6620 C.ar      1 EST601      0.0000 
     12 C11        53.5930    4.8850   90.9580 C.3       1 EST601      0.0000 
     13 C12        55.0440    5.2350   90.6770 C.3       1 EST601      0.0000 
     14 C13        55.3080    5.2460   89.1810 C.3       1 EST601      0.0000 
     15 C14        54.3190    6.1760   88.5220 C.3       1 EST601      0.0000 
     16 C15        54.8160    6.3620   87.1170 C.3       1 EST601      0.0000 
     17 C16        56.3110    6.3120   87.2690 C.3       1 EST601      0.0000 
     18 C17        56.6170    5.8340   88.6840 C.3       1 EST601      0.0000 
     19 O17        57.6870    4.9380   88.6630 O.3       1 EST601      0.0000 
     20 C18        55.2130    3.8480   88.6280 C.3       1 EST601      0.0000 
@<TRIPOS>BOND
     1    1    2 ar   
     2    1   11 ar   
     3    2    3 ar   
     4    3    4 1    
     5    3    5 ar   
     6    5    6 ar   
     7    6    7 1    
     8    6   11 ar   
     9    7    8 1    
    10    8    9 1    
    11    9   10 1    
    12    9   15 1    
    13   10   11 1    
    14   10   12 1    
    15   12   13 1    
    16   13   14 1    
    17   14   15 1    
    18   14   18 1    
    19   14   20 1    
    20   15   16 1    
    21   16   17 1    
    22   17   18 1    
    23   18   19 1    
@<TRIPOS>SUBSTRUCTURE
     1 EST601      1 GROUP   
@<TRIPOS>SET

