#    Name: 6h78_5_ATP
#    Modification time : Fri May 22 19:26:10 2020

@<TRIPOS>MOLECULE
6h78_5_ATP
   31    33     1     0     1
SMALL
NO_CHARGES


@<TRIPOS>ATOM
      1 PG        -32.5180   20.4640   43.6490 P.3       1 ATP401      0.0000 
      2 O1G       -31.9260   21.4570   42.6930 O.co2     1 ATP401      0.0000 
      3 O2G       -31.9250   20.6020   45.0080 O.co2     1 ATP401      0.0000 
      4 O3G       -34.0370   20.4460   43.5540 O.co2     1 ATP401      0.0000 
      5 PB        -32.3370   18.0610   41.8570 P.3       1 ATP401      0.0000 
      6 O1B       -31.2360   18.2880   40.8100 O.co2     1 ATP401      0.0000 
      7 O2B       -33.7730   18.3390   41.3900 O.co2     1 ATP401      0.0000 
      8 O3B       -31.9730   18.9600   43.1870 O.3       1 ATP401      0.0000 
      9 PA        -33.6360   15.9090   43.2760 P.3       1 ATP401      0.0000 
     10 O1A       -34.6290   16.9650   43.7230 O.co2     1 ATP401      0.0000 
     11 O2A       -33.1830   14.8860   44.2580 O.co2     1 ATP401      0.0000 
     12 O3A       -32.3550   16.5950   42.5350 O.3       1 ATP401      0.0000 
     13 O5'       -34.4390   15.2410   42.0750 O.3       1 ATP401      0.0000 
     14 C5'       -34.5590   13.8610   41.8400 C.3       1 ATP401      0.0000 
     15 C4'       -34.1450   13.6670   40.3800 C.3       1 ATP401      0.0000 
     16 O4'       -35.2690   13.4360   39.5130 O.3       1 ATP401      0.0000 
     17 C3'       -33.4130   14.8620   39.7820 C.3       1 ATP401      0.0000 
     18 O3'       -32.1570   14.4320   39.2830 O.3       1 ATP401      0.0000 
     19 C2'       -34.2520   15.2310   38.5870 C.3       1 ATP401      0.0000 
     20 O2'       -33.4250   15.7340   37.5430 O.3       1 ATP401      0.0000 
     21 C1'       -34.9430   13.9260   38.2200 C.3       1 ATP401      0.0000 
     22 N9        -36.0450   14.1970   37.2520 N.pl3     1 ATP401      0.0000 
     23 C8        -36.9920   15.1170   37.4190 C.2       1 ATP401      0.0000 
     24 N7        -37.8160   15.1570   36.3560 N.2       1 ATP401      0.0000 
     25 C5        -37.4200   14.2660   35.4450 C.ar      1 ATP401      0.0000 
     26 C6        -37.8770   13.8510   34.0810 C.ar      1 ATP401      0.0000 
     27 N6        -38.9440   14.3990   33.4520 N.pl3     1 ATP401      0.0000 
     28 N1        -37.1760   12.8700   33.4830 N.ar      1 ATP401      0.0000 
     29 C2        -36.0940   12.3180   34.0940 C.ar      1 ATP401      0.0000 
     30 N3        -35.6140   12.6660   35.3110 N.ar      1 ATP401      0.0000 
     31 C4        -36.2360   13.6280   36.0420 C.ar      1 ATP401      0.0000 
@<TRIPOS>BOND
     1    1    2 ar   
     2    1    3 ar   
     3    1    4 ar   
     4    1    8 1    
     5    5    6 ar   
     6    5    7 ar   
     7    5    8 1    
     8    5   12 1    
     9    9   10 ar   
    10    9   11 ar   
    11    9   12 1    
    12    9   13 1    
    13   13   14 1    
    14   14   15 1    
    15   15   16 1    
    16   15   17 1    
    17   16   21 1    
    18   17   18 1    
    19   17   19 1    
    20   19   20 1    
    21   19   21 1    
    22   21   22 1    
    23   22   23 1    
    24   22   31 1    
    25   23   24 2    
    26   24   25 1    
    27   25   26 ar   
    28   25   31 ar   
    29   26   27 1    
    30   26   28 ar   
    31   28   29 ar   
    32   29   30 ar   
    33   30   31 ar   
@<TRIPOS>SUBSTRUCTURE
     1 ATP401      1 GROUP   
@<TRIPOS>SET
ATOM$ORANGE STATIC     ATOMS   COLORGROUP SYSTEM 
20 14 14 15 15 17 17 19 19 21 21 23 23 25 25 26 26 29 \
29 31 31 

