#    Name: 6h78_5_ATP_CAVITY_N1_8
#    Modification time : Fri May 22 19:26:11 2020

@<TRIPOS>MOLECULE
6h78_5_ATP_CAVITY_N1_8
   57     0     5     0     0
SMALL
NO_CHARGES


@<TRIPOS>ATOM
      1 N         -41.9200   20.2700   43.0700 N.am      1 ALA2        0.0000 
      2 N         -41.6100   20.8000   41.7000 N.am      1 ALA2        0.0000 
      3 N         -40.2900   21.3000   42.1900 N.am      1 ALA2        0.0000 
      4 N         -40.2400   24.4300   43.4000 N.am      1 ALA2        0.0000 
      5 O         -39.9300   24.9600   42.0300 O.2       1 ALA2        0.0000 
      6 O         -38.6100   25.4700   42.5300 O.2       1 ALA2        0.0000 
      7 O         -36.9600   24.1400   44.0300 O.2       1 ALA2        0.0000 
      8 O         -36.3200   22.8300   43.6800 O.2       1 ALA2        0.0000 
      9 N         -37.2900   25.9800   43.0200 N.am      1 ALA2        0.0000 
     10 N         -36.6500   24.6700   42.6600 N.am      1 ALA2        0.0000 
     11 N         -36.9800   26.5000   41.6500 N.am      1 ALA2        0.0000 
     12 O         -35.0000   23.3400   44.1700 O.2       1 ALA2        0.0000 
     13 N         -35.0200   25.7000   41.7900 N.am      1 ALA2        0.0000 
     14 OD1       -37.3200   20.4900   44.2000 O.co2     2 ASP3        0.0000 
     15 OD1       -37.0100   21.0100   42.8200 O.co2     2 ASP3        0.0000 
     16 OD1       -36.7000   21.5400   41.4500 O.co2     2 ASP3        0.0000 
     17 OD1       -35.6900   21.5200   43.3200 O.co2     2 ASP3        0.0000 
     18 OD1       -35.3700   22.0500   41.9500 O.co2     2 ASP3        0.0000 
     19 OD1       -34.3600   22.0300   43.8100 O.co2     2 ASP3        0.0000 
     20 OD1       -34.0500   22.5500   42.4400 O.co2     2 ASP3        0.0000 
     21 OD1       -33.4100   21.2400   42.0900 O.co2     2 ASP3        0.0000 
     22 NZ        -41.2400   22.0900   43.9200 N.4       3 LYS4        0.0000 
     23 NZ        -39.9100   22.6000   44.4100 N.4       3 LYS4        0.0000 
     24 NZ        -39.2800   21.2900   44.0600 N.4       3 LYS4        0.0000 
     25 NZ        -38.3300   20.5000   42.3300 N.4       3 LYS4        0.0000 
     26 NZ        -38.0200   21.0300   40.9600 N.4       3 LYS4        0.0000 
     27 CA        -42.3100   21.3400   38.4600 C.3       4 GLY6        0.0000 
     28 CA        -41.3000   21.3200   40.3300 C.3       4 GLY6        0.0000 
     29 CA        -40.9900   21.8500   38.9600 C.3       4 GLY6        0.0000 
     30 CA        -40.9300   22.6100   42.5500 C.3       4 GLY6        0.0000 
     31 CA        -40.3000   23.6600   39.8100 C.3       4 GLY6        0.0000 
     32 CA        -38.9800   24.1700   40.3000 C.3       4 GLY6        0.0000 
     33 CA        -38.5900   23.1100   44.9100 C.3       4 GLY6        0.0000 
     34 CA        -37.9600   21.8000   44.5500 C.3       4 GLY6        0.0000 
     35 CA        -38.9200   24.9400   43.9000 C.3       4 GLY6        0.0000 
     36 CA        -38.3000   25.9900   41.1600 C.3       4 GLY6        0.0000 
     37 CA        -36.0000   21.0000   44.6900 C.3       4 GLY6        0.0000 
     38 CA        -37.6000   25.4500   44.3900 C.3       4 GLY6        0.0000 
     39 CA        -34.6700   21.5000   45.1800 C.3       4 GLY6        0.0000 
     40 CA        -35.3300   25.1700   43.1600 C.3       4 GLY6        0.0000 
     41 CA        -34.6900   23.8600   42.8000 C.3       4 GLY6        0.0000 
     42 DU        -40.6100   23.1400   41.1800 H         5 CUB7        0.0000 
     43 DU        -39.9800   21.8300   40.8200 H         5 CUB7        0.0000 
     44 DU        -39.6700   22.3500   39.4500 H         5 CUB7        0.0000 
     45 DU        -39.6000   23.1200   43.0400 H         5 CUB7        0.0000 
     46 DU        -38.9700   21.8100   42.6900 H         5 CUB7        0.0000 
     47 DU        -39.2900   23.6500   41.6700 H         5 CUB7        0.0000 
     48 DU        -38.6600   22.3400   41.3200 H         5 CUB7        0.0000 
     49 DU        -38.3400   22.8600   39.9500 H         5 CUB7        0.0000 
     50 DU        -38.2800   23.6300   43.5400 H         5 CUB7        0.0000 
     51 DU        -37.6400   22.3200   43.1800 H         5 CUB7        0.0000 
     52 DU        -37.9700   24.1600   42.1700 H         5 CUB7        0.0000 
     53 DU        -37.3300   22.8500   41.8100 H         5 CUB7        0.0000 
     54 DU        -37.6600   24.6800   40.8000 H         5 CUB7        0.0000 
     55 DU        -37.0200   23.3700   40.4400 H         5 CUB7        0.0000 
     56 DU        -36.0100   23.3600   42.3100 H         5 CUB7        0.0000 
     57 DU        -36.3400   25.1900   41.2900 H         5 CUB7        0.0000 
@<TRIPOS>BOND
@<TRIPOS>SUBSTRUCTURE
     1 ALA2        1 GROUP   
     2 ASP3       14 GROUP   
     3 LYS4       22 GROUP   
     4 GLY6       27 GROUP   
     5 CUB7       42 GROUP   
@<TRIPOS>SET

