#    Name: 6h78_4_ATP
#    Modification time : Fri May 22 19:25:58 2020

@<TRIPOS>MOLECULE
6h78_4_ATP
   31    33     1     0     1
SMALL
NO_CHARGES


@<TRIPOS>ATOM
      1 PG        -18.4280   70.5540   14.7290 P.3       1 ATP401      0.0000 
      2 O1G       -18.8770   70.6530   13.3040 O.co2     1 ATP401      0.0000 
      3 O2G       -19.4400   70.7850   15.7940 O.co2     1 ATP401      0.0000 
      4 O3G       -17.1850   71.3300   14.9810 O.co2     1 ATP401      0.0000 
      5 PB        -17.0080   68.2300   13.9700 P.3       1 ATP401      0.0000 
      6 O1B       -17.0360   68.7800   12.5600 O.co2     1 ATP401      0.0000 
      7 O2B       -15.6800   68.3660   14.7230 O.co2     1 ATP401      0.0000 
      8 O3B       -18.0650   69.0010   14.9040 O.3       1 ATP401      0.0000 
      9 PA        -18.9450   66.2080   13.3160 P.3       1 ATP401      0.0000 
     10 O1A       -19.6050   67.2490   12.4640 O.co2     1 ATP401      0.0000 
     11 O2A       -19.6650   65.5760   14.4790 O.co2     1 ATP401      0.0000 
     12 O3A       -17.5870   66.7470   13.9810 O.3       1 ATP401      0.0000 
     13 O5'       -18.5080   64.9810   12.3950 O.3       1 ATP401      0.0000 
     14 C5'       -17.8470   65.0820   11.1480 C.3       1 ATP401      0.0000 
     15 C4'       -16.5310   64.3330   11.2370 C.3       1 ATP401      0.0000 
     16 O4'       -16.0460   63.9810    9.9270 O.3       1 ATP401      0.0000 
     17 C3'       -15.5140   65.2960   11.8240 C.3       1 ATP401      0.0000 
     18 O3'       -14.9460   64.6610   12.9790 O.3       1 ATP401      0.0000 
     19 C2'       -14.5310   65.5910   10.6880 C.3       1 ATP401      0.0000 
     20 O2'       -13.1540   65.7170   11.0940 O.3       1 ATP401      0.0000 
     21 C1'       -14.6880   64.3710    9.8020 C.3       1 ATP401      0.0000 
     22 N9        -14.2180   64.7050    8.4440 N.pl3     1 ATP401      0.0000 
     23 C8        -14.6020   65.7460    7.6800 C.2       1 ATP401      0.0000 
     24 N7        -13.9260   65.7410    6.5040 N.2       1 ATP401      0.0000 
     25 C5        -13.0610   64.7180    6.5030 C.ar      1 ATP401      0.0000 
     26 C6        -12.0400   64.1600    5.5750 C.ar      1 ATP401      0.0000 
     27 N6        -11.7860   64.6940    4.3730 N.pl3     1 ATP401      0.0000 
     28 N1        -11.3730   63.0680    5.9680 N.ar      1 ATP401      0.0000 
     29 C2        -11.6140   62.4940    7.1750 C.ar      1 ATP401      0.0000 
     30 N3        -12.5060   62.9530    8.0710 N.ar      1 ATP401      0.0000 
     31 C4        -13.2570   64.0380    7.7930 C.ar      1 ATP401      0.0000 
@<TRIPOS>BOND
     1    1    2 ar   
     2    1    3 ar   
     3    1    4 ar   
     4    1    8 1    
     5    5    6 ar   
     6    5    7 ar   
     7    5    8 1    
     8    5   12 1    
     9    9   10 ar   
    10    9   11 ar   
    11    9   12 1    
    12    9   13 1    
    13   13   14 1    
    14   14   15 1    
    15   15   16 1    
    16   15   17 1    
    17   16   21 1    
    18   17   18 1    
    19   17   19 1    
    20   19   20 1    
    21   19   21 1    
    22   21   22 1    
    23   22   23 1    
    24   22   31 1    
    25   23   24 2    
    26   24   25 1    
    27   25   26 ar   
    28   25   31 ar   
    29   26   27 1    
    30   26   28 ar   
    31   28   29 ar   
    32   29   30 ar   
    33   30   31 ar   
@<TRIPOS>SUBSTRUCTURE
     1 ATP401      1 GROUP   
@<TRIPOS>SET
ATOM$ORANGE STATIC     ATOMS   COLORGROUP SYSTEM 
20 14 14 15 15 17 17 19 19 21 21 23 23 25 25 26 26 29 \
29 31 31 

