#    Name: 6h78_5_ATP_CAVITY_N1_6
#    Modification time : Fri May 22 19:26:11 2020

@<TRIPOS>MOLECULE
6h78_5_ATP_CAVITY_N1_6
   31     0     5     0     0
SMALL
NO_CHARGES


@<TRIPOS>ATOM
      1 O         -36.9600   24.1400   44.0300 O.2       1 ALA2        0.0000 
      2 O         -36.3200   22.8300   43.6800 O.2       1 ALA2        0.0000 
      3 N         -36.6500   24.6700   42.6600 N.am      1 ALA2        0.0000 
      4 O         -35.0000   23.3400   44.1700 O.2       1 ALA2        0.0000 
      5 N         -35.0200   25.7000   41.7900 N.am      1 ALA2        0.0000 
      6 OD1       -37.3200   20.4900   44.2000 O.co2     2 ASP3        0.0000 
      7 OD1       -37.0100   21.0100   42.8200 O.co2     2 ASP3        0.0000 
      8 OD1       -36.7000   21.5400   41.4500 O.co2     2 ASP3        0.0000 
      9 OD1       -35.6900   21.5200   43.3200 O.co2     2 ASP3        0.0000 
     10 OD1       -35.3700   22.0500   41.9500 O.co2     2 ASP3        0.0000 
     11 OD1       -34.3600   22.0300   43.8100 O.co2     2 ASP3        0.0000 
     12 OD1       -34.0500   22.5500   42.4400 O.co2     2 ASP3        0.0000 
     13 OD1       -33.4100   21.2400   42.0900 O.co2     2 ASP3        0.0000 
     14 NZ        -39.2800   21.2900   44.0600 N.4       3 LYS4        0.0000 
     15 NZ        -38.3300   20.5000   42.3300 N.4       3 LYS4        0.0000 
     16 NZ        -38.0200   21.0300   40.9600 N.4       3 LYS4        0.0000 
     17 CA        -38.5900   23.1100   44.9100 C.3       4 GLY6        0.0000 
     18 CA        -37.9600   21.8000   44.5500 C.3       4 GLY6        0.0000 
     19 CA        -36.0000   21.0000   44.6900 C.3       4 GLY6        0.0000 
     20 CA        -34.6700   21.5000   45.1800 C.3       4 GLY6        0.0000 
     21 CA        -35.3300   25.1700   43.1600 C.3       4 GLY6        0.0000 
     22 CA        -34.6900   23.8600   42.8000 C.3       4 GLY6        0.0000 
     23 DU        -38.9700   21.8100   42.6900 H         5 CUB7        0.0000 
     24 DU        -38.6600   22.3400   41.3200 H         5 CUB7        0.0000 
     25 DU        -38.2800   23.6300   43.5400 H         5 CUB7        0.0000 
     26 DU        -37.6400   22.3200   43.1800 H         5 CUB7        0.0000 
     27 DU        -37.9700   24.1600   42.1700 H         5 CUB7        0.0000 
     28 DU        -37.3300   22.8500   41.8100 H         5 CUB7        0.0000 
     29 DU        -37.0200   23.3700   40.4400 H         5 CUB7        0.0000 
     30 DU        -36.0100   23.3600   42.3100 H         5 CUB7        0.0000 
     31 DU        -36.3400   25.1900   41.2900 H         5 CUB7        0.0000 
@<TRIPOS>BOND
@<TRIPOS>SUBSTRUCTURE
     1 ALA2        1 GROUP   
     2 ASP3        6 GROUP   
     3 LYS4       14 GROUP   
     4 GLY6       17 GROUP   
     5 CUB7       23 GROUP   
@<TRIPOS>SET

