#    Name: 6h78_5_ATP_CAVITY_N1_4
#    Modification time : Fri May 22 19:26:11 2020

@<TRIPOS>MOLECULE
6h78_5_ATP_CAVITY_N1_4
   14     0     4     0     0
SMALL
NO_CHARGES


@<TRIPOS>ATOM
      1 O         -36.3200   22.8300   43.6800 O.2       1 ALA2        0.0000 
      2 O         -35.0000   23.3400   44.1700 O.2       1 ALA2        0.0000 
      3 OD1       -37.3200   20.4900   44.2000 O.co2     2 ASP3        0.0000 
      4 OD1       -37.0100   21.0100   42.8200 O.co2     2 ASP3        0.0000 
      5 OD1       -36.7000   21.5400   41.4500 O.co2     2 ASP3        0.0000 
      6 OD1       -35.6900   21.5200   43.3200 O.co2     2 ASP3        0.0000 
      7 OD1       -35.3700   22.0500   41.9500 O.co2     2 ASP3        0.0000 
      8 OD1       -34.3600   22.0300   43.8100 O.co2     2 ASP3        0.0000 
      9 OD1       -34.0500   22.5500   42.4400 O.co2     2 ASP3        0.0000 
     10 OD1       -33.4100   21.2400   42.0900 O.co2     2 ASP3        0.0000 
     11 CA        -36.0000   21.0000   44.6900 C.3       3 GLY6        0.0000 
     12 CA        -34.6700   21.5000   45.1800 C.3       3 GLY6        0.0000 
     13 CA        -34.6900   23.8600   42.8000 C.3       3 GLY6        0.0000 
     14 DU        -36.0100   23.3600   42.3100 H         4 CUB7        0.0000 
@<TRIPOS>BOND
@<TRIPOS>SUBSTRUCTURE
     1 ALA2        1 GROUP   
     2 ASP3        3 GROUP   
     3 GLY6       11 GROUP   
     4 CUB7       14 GROUP   
@<TRIPOS>SET

