#    Name: 6h78_4_ATP_CAVITY_N1_4
#    Modification time : Fri May 22 19:26:00 2020

@<TRIPOS>MOLECULE
6h78_4_ATP_CAVITY_N1_4
   69     0     6     0     0
SMALL
NO_CHARGES


@<TRIPOS>ATOM
      1 OG        -12.6000   68.7300    5.8900 O.3       1 SER1        0.0000 
      2 O         -20.3900   64.8600   12.4900 O.2       2 ALA2        0.0000 
      3 O         -19.0700   65.3600   12.9900 O.2       2 ALA2        0.0000 
      4 N         -18.1200   64.5800   11.2600 N.am      2 ALA2        0.0000 
      5 N         -17.4800   63.2700   10.9000 N.am      2 ALA2        0.0000 
      6 O         -17.8100   65.1000    9.8900 O.2       2 ALA2        0.0000 
      7 N         -17.1700   63.7900    9.5300 N.am      2 ALA2        0.0000 
      8 O         -14.2700   62.2100    7.9400 O.2       2 ALA2        0.0000 
      9 O         -15.2300   65.3500    7.2800 O.2       2 ALA2        0.0000 
     10 N         -12.3100   61.4100    8.0800 N.am      2 ALA2        0.0000 
     11 O         -13.6000   66.3900    6.4100 O.2       2 ALA2        0.0000 
     12 O         -13.2900   66.9100    5.0400 O.2       2 ALA2        0.0000 
     13 N         -13.6100   68.7500    4.0300 N.am      2 ALA2        0.0000 
     14 N         -12.9800   67.4400    3.6700 N.am      2 ALA2        0.0000 
     15 N         -10.6700   62.4400    7.2000 N.am      2 ALA2        0.0000 
     16 N         -11.3300   66.1100    5.1800 N.am      2 ALA2        0.0000 
     17 O         -11.6500   67.9500    4.1600 O.2       2 ALA2        0.0000 
     18 OD1       -20.7200   66.6900   11.4800 O.co2     3 ASP3        0.0000 
     19 OD1       -19.7100   66.6700   13.3400 O.co2     3 ASP3        0.0000 
     20 OD1       -18.7600   65.8900   11.6100 O.co2     3 ASP3        0.0000 
     21 OD1       -18.3900   67.1800   13.8400 O.co2     3 ASP3        0.0000 
     22 OD1       -17.4400   66.4000   12.1100 O.co2     3 ASP3        0.0000 
     23 OD1       -16.4300   66.3800   13.9700 O.co2     3 ASP3        0.0000 
     24 OD1       -16.1200   66.9100   12.6000 O.co2     3 ASP3        0.0000 
     25 OD1       -15.4800   65.6000   12.2500 O.co2     3 ASP3        0.0000 
     26 NZ        -16.1600   63.7800   11.4000 N.4       4 LYS4        0.0000 
     27 NZ        -16.4900   65.6100   10.3800 N.4       4 LYS4        0.0000 
     28 NZ        -15.5400   64.8300    8.6500 N.4       4 LYS4        0.0000 
     29 NZ        -15.1700   66.1200   10.8800 N.4       4 LYS4        0.0000 
     30 NZ        -14.5300   64.8100   10.5200 N.4       4 LYS4        0.0000 
     31 NZ        -14.8600   66.6500    9.5100 N.4       4 LYS4        0.0000 
     32 NZ        -13.5800   64.0300    8.7900 N.4       4 LYS4        0.0000 
     33 CZ        -14.2200   65.3400    9.1500 C.ar      5 PHE5        0.0000 
     34 CZ        -13.9100   65.8600    7.7800 C.ar      5 PHE5        0.0000 
     35 CZ        -13.2700   64.5500    7.4200 C.ar      5 PHE5        0.0000 
     36 CZ        -12.6300   63.2400    7.0600 C.ar      5 PHE5        0.0000 
     37 CZ        -12.9600   65.0800    6.0500 C.ar      5 PHE5        0.0000 
     38 CZ        -12.2600   64.5400    9.2900 C.ar      5 PHE5        0.0000 
     39 CZ        -11.3100   63.7500    7.5600 C.ar      5 PHE5        0.0000 
     40 CZ        -11.0000   64.2800    6.1900 C.ar      5 PHE5        0.0000 
     41 CZ        -11.9600   67.4200    5.5300 C.ar      5 PHE5        0.0000 
     42 CA        -22.3500   65.6600   12.3500 C.3       6 GLY6        0.0000 
     43 CA        -21.7100   64.3500   12.0000 C.3       6 GLY6        0.0000 
     44 CA        -22.0400   66.1800   10.9800 C.3       6 GLY6        0.0000 
     45 CA        -21.4000   64.8700   10.6300 C.3       6 GLY6        0.0000 
     46 CA        -21.0300   66.1700   12.8500 C.3       6 GLY6        0.0000 
     47 CA        -20.0800   65.3800   11.1200 C.3       6 GLY6        0.0000 
     48 CA        -18.4300   64.0500   12.6300 C.3       6 GLY6        0.0000 
     49 CA        -18.0600   65.3500   14.8500 C.3       6 GLY6        0.0000 
     50 CA        -17.7500   65.8700   13.4800 C.3       6 GLY6        0.0000 
     51 CA        -17.1100   64.5600   13.1200 C.3       6 GLY6        0.0000 
     52 CA        -16.8000   65.0900   11.7500 C.3       6 GLY6        0.0000 
     53 CA        -15.8500   64.3000   10.0300 C.3       6 GLY6        0.0000 
     54 CA        -14.9000   63.5200    8.3000 C.3       6 GLY6        0.0000 
     55 CA        -14.5900   64.0400    6.9300 C.3       6 GLY6        0.0000 
     56 CA        -13.9500   62.7300    6.5700 C.3       6 GLY6        0.0000 
     57 CA        -14.2800   64.5700    5.5600 C.3       6 GLY6        0.0000 
     58 CA        -13.6400   63.2600    5.2000 C.3       6 GLY6        0.0000 
     59 CA        -13.0100   61.9500    4.8400 C.3       6 GLY6        0.0000 
     60 CA        -13.3300   63.7800    3.8300 C.3       6 GLY6        0.0000 
     61 CA        -12.9400   62.7200    8.4400 C.3       6 GLY6        0.0000 
     62 CA        -12.0000   61.9300    6.7100 C.3       6 GLY6        0.0000 
     63 CA        -12.3200   63.7700    5.6900 C.3       6 GLY6        0.0000 
     64 CA        -11.6800   62.4600    5.3400 C.3       6 GLY6        0.0000 
     65 CA        -12.6500   65.6000    4.6800 C.3       6 GLY6        0.0000 
     66 CA        -12.0100   64.2900    4.3200 C.3       6 GLY6        0.0000 
     67 CA        -12.3400   66.1300    3.3100 C.3       6 GLY6        0.0000 
     68 CA        -12.6600   67.9600    2.3000 C.3       6 GLY6        0.0000 
     69 CA        -11.6200   63.2300    8.9300 C.3       6 GLY6        0.0000 
@<TRIPOS>BOND
@<TRIPOS>SUBSTRUCTURE
     1 SER1        1 GROUP   
     2 ALA2        2 GROUP   
     3 ASP3       18 GROUP   
     4 LYS4       26 GROUP   
     5 PHE5       33 GROUP   
     6 GLY6       42 GROUP   
@<TRIPOS>SET

