#    Name: 6gyr_2_01K
#    Modification time : Fri May 22 19:32:37 2020

@<TRIPOS>MOLECULE
6gyr_2_01K
  113   116     1     0     0
SMALL
NO_CHARGES


@<TRIPOS>ATOM
      1 O1          4.1390  -15.6790   59.9690 O.co2     1 01K1704     0.0000 
      2 P2          4.5490  -16.9440   59.3430 P.3       1 01K1704     0.0000 
      3 O3          4.2120  -16.7980   57.7660 O.3       1 01K1704     0.0000 
      4 P4          3.7900  -17.9910   56.8510 P.3       1 01K1704     0.0000 
      5 O5          2.4830  -18.2990   57.7360 O.3       1 01K1704     0.0000 
      6 C6          1.2720  -18.4570   57.0710 C.3       1 01K1704     0.0000 
      7 C7          0.2270  -18.9270   58.0630 C.3       1 01K1704     0.0000 
      8 C8         -0.3260  -17.7930   58.9030 C.3       1 01K1704     0.0000 
      9 C9         -0.8580  -19.5660   57.2240 C.3       1 01K1704     0.0000 
     10 C10         0.8490  -20.0060   58.9120 C.3       1 01K1704     0.0000 
     11 O11         1.6600  -19.3020   59.8810 O.3       1 01K1704     0.0000 
     12 C12        -0.0820  -20.8400   59.7670 C.2       1 01K1704     0.0000 
     13 N13        -0.2090  -20.5870   61.0600 N.am      1 01K1704     0.0000 
     14 C14        -1.1380  -21.4350   61.8820 C.3       1 01K1704     0.0000 
     15 C15        -2.5660  -21.2540   61.4860 C.3       1 01K1704     0.0000 
     16 C16        -2.9670  -19.8160   61.7390 C.2       1 01K1704     0.0000 
     17 N17        -4.0480  -19.3760   61.0870 N.am      1 01K1704     0.0000 
     18 C18        -4.4760  -18.0010   61.2940 C.3       1 01K1704     0.0000 
     19 C19        -5.8790  -17.8460   60.8230 C.3       1 01K1704     0.0000 
     20 S20        -6.4080  -16.1330   61.0090 S.3       1 01K1704     0.0000 
     21 C21        -8.1360  -16.3370   60.3720 C.3       1 01K1704     0.0000 
     22 C22        -8.8100  -17.4570   61.1580 C.2       1 01K1704     0.0000 
     23 NZ         -9.2990  -17.1630   62.3620 N.am      1 01K1704     0.0000 
     24 CE         -9.9440  -18.2470   63.1080 C.3       1 01K1704     0.0000 
     25 CD        -10.1300  -17.9680   64.5940 C.3       1 01K1704     0.0000 
     26 CG        -10.9480  -19.1760   65.0610 C.3       1 01K1704     0.0000 
     27 CB        -11.4060  -18.9970   66.5100 C.3       1 01K1704     0.0000 
     28 CA        -10.4050  -19.0600   67.6440 C.3       1 01K1704     0.0000 
     29 N         -11.0790  -18.6130   68.8890 N.am      1 01K1704     0.0000 
     30 C         -10.0110  -20.5280   67.9390 C.2       1 01K1704     0.0000 
     31 O          -9.0250  -20.8010   68.6430 O.2       1 01K1704     0.0000 
     32 O33        -2.3450  -19.1350   62.5440 O.2       1 01K1704     0.0000 
     33 O34        -0.6830  -21.7530   59.2250 O.2       1 01K1704     0.0000 
     34 O35         4.6570  -19.1850   56.6960 O.co2     1 01K1704     0.0000 
     35 O36         3.3480  -17.2490   55.6600 O.co2     1 01K1704     0.0000 
     36 O37         4.0530  -18.2610   59.8820 O.co2     1 01K1704     0.0000 
     37 O38         6.0130  -17.1070   59.3790 O.3       1 01K1704     0.0000 
     38 C40         8.3480  -16.4840   59.0950 C.3       1 01K1704     0.0000 
     39 C41         9.1000  -17.7600   59.4900 C.3       1 01K1704     0.0000 
     40 O45        11.8860  -16.9000   57.7300 O.co2     1 01K1704     0.0000 
     41 O46        10.0370  -18.4670   57.0950 O.co2     1 01K1704     0.0000 
     42 C54         8.2140  -16.5640   63.9920 C.ar      1 01K1704     0.0000 
     43 C63       -13.2340  -19.9610   68.7790 C.3       1 01K1704     0.0000 
     44 C61       -12.2770  -18.9490   69.4390 C.2       1 01K1704     0.0000 
     45 O62       -12.6460  -18.4320   70.4890 O.2       1 01K1704     0.0000 
     46 N64       -10.8350  -21.4600   67.4500 N.am      1 01K1704     0.0000 
     47 O32        -8.8410  -18.5950   60.7190 O.2       1 01K1704     0.0000 
     48 C39         6.8720  -16.2740   58.6600 C.3       1 01K1704     0.0000 
     49 O60         7.6700  -16.5040   60.4130 O.3       1 01K1704     0.0000 
     50 O42        10.4740  -17.8330   59.5430 O.3       1 01K1704     0.0000 
     51 P43        11.0760  -18.0910   58.0770 P.3       1 01K1704     0.0000 
     52 O44        11.8780  -19.4350   58.4180 O.co2     1 01K1704     0.0000 
     53 C47         8.3170  -18.1330   60.6750 Du        1 01K1704     0.0000 
     54 O48         9.0090  -19.2130   61.3250 Du        1 01K1704     0.0000 
     55 C49         8.6130  -16.7730   61.4060 C.3       1 01K1704     0.0000 
     56 N50         7.9360  -16.7760   62.7060 N.pl3     1 01K1704     0.0000 
     57 C51         6.6880  -17.2120   62.6410 C.2       1 01K1704     0.0000 
     58 N52         6.1530  -17.2100   63.8410 N.2       1 01K1704     0.0000 
     59 C53         7.0890  -16.7940   64.6800 C.ar      1 01K1704     0.0000 
     60 N55         9.2960  -16.0800   64.6290 N.ar      1 01K1704     0.0000 
     61 C56         9.2560  -15.8920   66.0100 C.ar      1 01K1704     0.0000 
     62 N57         8.0790  -16.1810   66.7000 N.ar      1 01K1704     0.0000 
     63 C58         7.0340  -16.6200   65.9980 C.ar      1 01K1704     0.0000 
     64 N59         5.8690  -16.9110   66.5600 N.pl3     1 01K1704     0.0000 
     65 H6          1.1290  -17.4840   56.7130 H         1 01K1704     0.0000 
     66 H6A         1.5460  -19.1690   56.3540 H         1 01K1704     0.0000 
     67 H8          0.5830  -17.4660   59.4070 H         1 01K1704     0.0000 
     68 H8A        -0.5880  -16.9040   58.3930 H         1 01K1704     0.0000 
     69 H8B        -0.9180  -18.0600   59.7370 H         1 01K1704     0.0000 
     70 H9         -1.6080  -20.0120   57.8770 H         1 01K1704     0.0000 
     71 H9A        -0.4210  -20.3400   56.5920 H         1 01K1704     0.0000 
     72 H9B        -1.3270  -18.8070   56.5970 H         1 01K1704     0.0000 
     73 H10         1.4760  -20.6530   58.2990 H         1 01K1704     0.0000 
     74 HO11        2.1520  -19.9630   60.4470 H         1 01K1704     0.0000 
     75 HN13        0.2640  -19.8530   61.5470 H         1 01K1704     0.0000 
     76 H14        -0.8010  -22.3980   61.7010 H         1 01K1704     0.0000 
     77 H14A       -0.9560  -21.1130   62.8500 H         1 01K1704     0.0000 
     78 H15        -3.1970  -21.9180   62.0770 H         1 01K1704     0.0000 
     79 H15A       -2.6840  -21.4840   60.4270 H         1 01K1704     0.0000 
     80 HN17       -4.5790  -19.9090   60.4280 H         1 01K1704     0.0000 
     81 H18        -3.8280  -17.3280   60.7310 H         1 01K1704     0.0000 
     82 H18A       -4.4200  -17.7570   62.3550 H         1 01K1704     0.0000 
     83 H19        -6.5320  -18.4910   61.4120 H         1 01K1704     0.0000 
     84 H19A       -5.9420  -18.1310   59.7730 H         1 01K1704     0.0000 
     85 H21        -8.5150  -15.3790   60.5570 H         1 01K1704     0.0000 
     86 H21A       -7.9360  -16.5620   59.3680 H         1 01K1704     0.0000 
     87 HNZ        -9.3060  -16.2590   62.7880 H         1 01K1704     0.0000 
     88 HE         -9.3420  -19.1480   63.0020 H         1 01K1704     0.0000 
     89 HEA       -10.9230  -18.4350   62.6700 H         1 01K1704     0.0000 
     90 HD        -10.6860  -17.0420   64.7510 H         1 01K1704     0.0000 
     91 HDA        -9.1680  -17.9340   65.1080 H         1 01K1704     0.0000 
     92 HG        -10.3350  -20.0740   64.9870 H         1 01K1704     0.0000 
     93 HGA       -11.8230  -19.2850   64.4200 H         1 01K1704     0.0000 
     94 HB        -12.1560  -19.7610   66.7010 H         1 01K1704     0.0000 
     95 HBA       -11.8980  -18.0290   66.5690 H         1 01K1704     0.0000 
     96 HA         -9.5280  -18.4460   67.4380 H         1 01K1704     0.0000 
     97 HN        -10.5650  -17.9390   69.4210 H         1 01K1704     0.0000 
     98 H40         8.9760  -15.5980   59.0030 H         1 01K1704     0.0000 
     99 H41         8.8610  -18.4980   58.7250 H         1 01K1704     0.0000 
    100 H63       -12.6550  -20.6920   68.2130 H         1 01K1704     0.0000 
    101 H63A      -13.9110  -19.4350   68.1060 H         1 01K1704     0.0000 
    102 H63B      -13.8110  -20.4720   69.5490 H         1 01K1704     0.0000 
    103 HN64      -10.6410  -22.4290   67.6030 H         1 01K1704     0.0000 
    104 HN6A      -11.6240  -21.1890   66.8980 H         1 01K1704     0.0000 
    105 H39         6.5910  -15.2350   58.8340 H         1 01K1704     0.0000 
    106 H39A        6.7770  -16.4970   57.5970 H         1 01K1704     0.0000 
    107 H47         7.2600  -18.2800   60.4560 H         1 01K1704     0.0000 
    108 HO48        9.9240  -18.9110   61.5920 H         1 01K1704     0.0000 
    109 H49         9.6270  -16.4050   61.2500 H         1 01K1704     0.0000 
    110 H51         6.1740  -17.5090   61.7260 H         1 01K1704     0.0000 
    111 H56        10.1370  -15.5400   66.5450 H         1 01K1704     0.0000 
    112 HN59        5.7490  -16.8060   67.5470 H         1 01K1704     0.0000 
    113 HN5A        5.1090  -17.2360   65.9960 H         1 01K1704     0.0000 
@<TRIPOS>BOND
     1    1    2 ar   
     2    2    3 1    
     3    2   36 ar   
     4    2   37 1    
     5    3    4 1    
     6    4    5 1    
     7    4   34 ar   
     8    4   35 ar   
     9    5    6 1    
    10    6    7 1    
    11    6   66 1    
    12    6   65 1    
    13    7    8 1    
    14    7    9 1    
    15    7   10 1    
    16    8   67 1    
    17    8   68 1    
    18    8   69 1    
    19    9   70 1    
    20    9   71 1    
    21    9   72 1    
    22   10   11 1    
    23   10   12 1    
    24   10   73 1    
    25   11   74 1    
    26   12   13 am   
    27   12   33 2    
    28   13   14 1    
    29   13   75 1    
    30   14   15 1    
    31   14   76 1    
    32   14   77 1    
    33   15   16 1    
    34   15   78 1    
    35   15   79 1    
    36   16   17 am   
    37   16   32 2    
    38   17   18 1    
    39   17   80 1    
    40   18   19 1    
    41   18   81 1    
    42   18   82 1    
    43   19   20 1    
    44   19   83 1    
    45   19   84 1    
    46   20   21 1    
    47   21   22 1    
    48   21   85 1    
    49   21   86 1    
    50   22   23 am   
    51   22   47 2    
    52   23   24 1    
    53   23   87 1    
    54   24   25 1    
    55   24   88 1    
    56   24   89 1    
    57   25   26 1    
    58   25   90 1    
    59   25   91 1    
    60   26   27 1    
    61   26   92 1    
    62   26   93 1    
    63   27   28 1    
    64   27   94 1    
    65   27   95 1    
    66   28   29 1    
    67   28   30 1    
    68   28   96 1    
    69   29   44 am   
    70   29   97 1    
    71   30   31 2    
    72   30   46 am   
    73   37   48 1    
    74   38   39 1    
    75   38   48 1    
    76   38   49 1    
    77   38   98 1    
    78   39   50 1    
    79   39   53 du   
    80   39   99 1    
    81   40   51 ar   
    82   41   51 ar   
    83   42   56 1    
    84   42   59 ar   
    85   42   60 ar   
    86   43   44 1    
    87   43  100 1    
    88   43  101 1    
    89   43  102 1    
    90   44   45 2    
    91   46  103 1    
    92   46  104 1    
    93   48  105 1    
    94   48  106 1    
    95   49   53 du   
    96   49   55 1    
    97   50   51 1    
    98   51   52 ar   
    99   53   54 du   
   100   53   55 du   
   101   53  107 1    
   102   54  108 1    
   103   55   56 1    
   104   55  109 1    
   105   56   57 1    
   106   57   58 2    
   107   57  110 1    
   108   58   59 1    
   109   59   63 ar   
   110   60   61 ar   
   111   61   62 ar   
   112   61  111 1    
   113   62   63 ar   
   114   63   64 1    
   115   64  112 1    
   116   64  113 1    
@<TRIPOS>SUBSTRUCTURE
     1 01K1704     1 GROUP   
@<TRIPOS>SET

