#    Name: 6gyr_4_01K
#    Modification time : Fri May 22 19:33:13 2020

@<TRIPOS>MOLECULE
6gyr_4_01K
  113   115     1     0     0
SMALL
NO_CHARGES


@<TRIPOS>ATOM
      1 O1         24.1420  -27.3750   57.2340 O.co2     1 01K1704     0.0000 
      2 P2         24.2440  -25.8940   57.2660 P.3       1 01K1704     0.0000 
      3 O3         24.8280  -25.4400   55.8460 O.3       1 01K1704     0.0000 
      4 P4         25.2410  -23.9390   55.4160 P.3       1 01K1704     0.0000 
      5 O5         26.5700  -23.6360   56.2570 O.3       1 01K1704     0.0000 
      6 C6         27.7480  -24.4350   56.1750 C.3       1 01K1704     0.0000 
      7 C7         28.9290  -23.7950   56.9400 C.3       1 01K1704     0.0000 
      8 C8         29.9180  -24.9410   57.1600 C.3       1 01K1704     0.0000 
      9 C9         29.6290  -22.7020   56.1740 C.3       1 01K1704     0.0000 
     10 C10        28.3840  -23.3730   58.3240 C.3       1 01K1704     0.0000 
     11 O11        27.6140  -24.4480   58.8960 O.3       1 01K1704     0.0000 
     12 C12        29.3530  -22.7720   59.3690 C.2       1 01K1704     0.0000 
     13 N13        29.9030  -23.6740   60.2240 N.am      1 01K1704     0.0000 
     14 C14        30.8660  -23.3720   61.3250 C.3       1 01K1704     0.0000 
     15 C15        32.2700  -23.7400   60.9250 C.3       1 01K1704     0.0000 
     16 C16        32.2800  -25.1980   60.5280 C.2       1 01K1704     0.0000 
     17 N17        32.9840  -25.3880   59.4160 N.am      1 01K1704     0.0000 
     18 C18        33.1790  -26.6810   58.7810 C.3       1 01K1704     0.0000 
     19 C19        34.6390  -26.9460   58.7360 C.3       1 01K1704     0.0000 
     20 S20        34.9900  -28.4950   57.8760 S.3       1 01K1704     0.0000 
     21 C21        36.7160  -28.0130   57.5370 C.3       1 01K1704     0.0000 
     22 C22        37.5160  -27.3100   58.6680 C.2       1 01K1704     0.0000 
     23 NZ         38.0980  -28.0420   59.6450 N.am      1 01K1704     0.0000 
     24 CE         38.8690  -27.3420   60.7280 C.3       1 01K1704     0.0000 
     25 CD         39.8920  -28.3910   61.2720 C.3       1 01K1704     0.0000 
     26 CG         39.4600  -29.1350   62.5520 C.3       1 01K1704     0.0000 
     27 CB         39.9980  -28.2110   63.6650 C.3       1 01K1704     0.0000 
     28 CA         39.4940  -28.5830   65.0910 C.3       1 01K1704     0.0000 
     29 N          39.6580  -29.9900   65.6440 N.am      1 01K1704     0.0000 
     30 C          39.9350  -27.4410   66.0600 C.2       1 01K1704     0.0000 
     31 O          39.1200  -27.0120   66.8770 O.2       1 01K1704     0.0000 
     32 O33        31.6430  -26.0500   61.1290 O.2       1 01K1704     0.0000 
     33 O34        29.5260  -21.5570   59.4350 O.2       1 01K1704     0.0000 
     34 O35        24.1360  -23.0650   55.8730 O.co2     1 01K1704     0.0000 
     35 O36        25.5790  -23.9490   53.9810 O.co2     1 01K1704     0.0000 
     36 O37        25.0340  -25.2230   58.3160 O.co2     1 01K1704     0.0000 
     37 O38        22.7810  -25.1840   57.2650 O.3       1 01K1704     0.0000 
     38 C40        20.2660  -26.2690   57.0150 C.3       1 01K1704     0.0000 
     39 C41        19.9030  -25.0460   57.8950 C.3       1 01K1704     0.0000 
     40 O45        16.4000  -23.6670   56.7710 O.co2     1 01K1704     0.0000 
     41 O46        18.0810  -24.9820   55.4150 O.co2     1 01K1704     0.0000 
     42 C54        20.7290  -28.1160   61.4130 C.ar      1 01K1704     0.0000 
     43 C63        41.9130  -29.9160   66.7100 C.3       1 01K1704     0.0000 
     44 C61        40.6310  -30.6530   66.3400 C.2       1 01K1704     0.0000 
     45 O62        40.4450  -31.7910   66.7400 O.2       1 01K1704     0.0000 
     46 N64        41.1540  -26.8960   65.8810 N.am      1 01K1704     0.0000 
     47 O32        37.4890  -26.0790   58.7330 O.2       1 01K1704     0.0000 
     48 C39        21.5880  -25.5350   56.5690 C.3       1 01K1704     0.0000 
     49 O60        20.4500  -26.9910   58.2970 O.3       1 01K1704     0.0000 
     50 O42        18.4690  -24.6360   57.9980 O.3       1 01K1704     0.0000 
     51 P43        17.8110  -24.0450   56.5440 P.3       1 01K1704     0.0000 
     52 O44        18.6000  -22.6840   56.1720 O.co2     1 01K1704     0.0000 
     53 C47        20.9920  -24.7760   59.0690 C.3       1 01K1704     0.0000 
     54 O48        20.3980  -23.9390   60.1090 O.3       1 01K1704     0.0000 
     55 C49        20.6760  -26.1310   59.4840 C.3       1 01K1704     0.0000 
     56 N50        21.0510  -27.0950   60.6220 N.pl3     1 01K1704     0.0000 
     57 C51        22.3660  -26.8770   60.7830 C.2       1 01K1704     0.0000 
     58 N52        22.8310  -27.6970   61.7090 N.2       1 01K1704     0.0000 
     59 C53        21.8210  -28.4560   62.1100 C.ar      1 01K1704     0.0000 
     60 N55        19.5750  -28.7330   61.6410 N.ar      1 01K1704     0.0000 
     61 C56        19.5160  -29.7560   62.5890 C.ar      1 01K1704     0.0000 
     62 N57        20.6630  -30.1030   63.2890 N.ar      1 01K1704     0.0000 
     63 C58        21.7900  -29.4320   63.0200 C.ar      1 01K1704     0.0000 
     64 N59        22.9400  -29.7080   63.6430 N.pl3     1 01K1704     0.0000 
     65 H6         28.0240  -24.5520   55.1280 H         1 01K1704     0.0000 
     66 H6A        27.5390  -25.4160   56.6000 H         1 01K1704     0.0000 
     67 H8         29.4050  -25.7770   57.6360 H         1 01K1704     0.0000 
     68 H8A        30.7320  -24.6020   57.8000 H         1 01K1704     0.0000 
     69 H8B        30.3210  -25.2620   56.1990 H         1 01K1704     0.0000 
     70 H9         30.4330  -22.4610   56.8690 H         1 01K1704     0.0000 
     71 H9A        30.1920  -22.9960   55.3290 H         1 01K1704     0.0000 
     72 H9B        29.1390  -21.7670   56.1200 H         1 01K1704     0.0000 
     73 H10        27.6660  -22.5800   58.1150 H         1 01K1704     0.0000 
     74 HO11       27.0800  -24.1030   59.6680 H         1 01K1704     0.0000 
     75 HN13       29.7080  -24.6500   60.1230 H         1 01K1704     0.0000 
     76 H14        30.7470  -22.3510   61.4690 H         1 01K1704     0.0000 
     77 H14A       30.5120  -23.9460   62.1130 H         1 01K1704     0.0000 
     78 H15        32.9470  -23.5850   61.7670 H         1 01K1704     0.0000 
     79 H15A       32.5870  -23.1270   60.0810 H         1 01K1704     0.0000 
     80 HN17       33.4670  -24.6360   58.9680 H         1 01K1704     0.0000 
     81 H18        32.7760  -26.6610   57.7670 H         1 01K1704     0.0000 
     82 H18A       32.6810  -27.4590   59.3620 H         1 01K1704     0.0000 
     83 H19        35.0230  -27.0060   59.7550 H         1 01K1704     0.0000 
     84 H19A       35.1350  -26.1270   58.2150 H         1 01K1704     0.0000 
     85 H21        36.7040  -27.3490   56.6770 H         1 01K1704     0.0000 
     86 H21A       37.2560  -28.9150   57.2600 H         1 01K1704     0.0000 
     87 HNZ        38.1440  -29.0410   59.6530 H         1 01K1704     0.0000 
     88 HE         38.1930  -27.0270   61.5230 H         1 01K1704     0.0000 
     89 HEA        39.3950  -26.4810   60.3150 H         1 01K1704     0.0000 
     90 HD         40.8280  -27.8750   61.4750 H         1 01K1704     0.0000 
     91 HDA        40.0670  -29.1280   60.4900 H         1 01K1704     0.0000 
     92 HG         38.4150  -29.1460   62.4120 H         1 01K1704     0.0000 
     93 HGA        39.9690  -30.0490   62.4110 H         1 01K1704     0.0000 
     94 HB         39.6910  -27.1910   63.4420 H         1 01K1704     0.0000 
     95 HBA        41.0850  -28.2590   63.6560 H         1 01K1704     0.0000 
     96 HA         38.4160  -28.4420   65.0100 H         1 01K1704     0.0000 
     97 HN         38.8520  -30.5660   65.5000 H         1 01K1704     0.0000 
     98 H40        19.5140  -26.4980   56.2590 H         1 01K1704     0.0000 
     99 H41        20.1420  -24.2280   57.2150 H         1 01K1704     0.0000 
    100 H63        41.6970  -28.8560   66.8420 H         1 01K1704     0.0000 
    101 H63A       42.6460  -30.0410   65.9130 H         1 01K1704     0.0000 
    102 H63B       42.3120  -30.3250   67.6380 H         1 01K1704     0.0000 
    103 HN64       41.4670  -26.1630   66.4840 H         1 01K1704     0.0000 
    104 HN6A       41.7710  -27.2710   65.1890 H         1 01K1704     0.0000 
    105 H39        21.9360  -26.1220   55.7250 H         1 01K1704     0.0000 
    106 H39A       21.2340  -24.5950   56.1580 H         1 01K1704     0.0000 
    107 H47        22.0180  -24.6370   58.7300 H         1 01K1704     0.0000 
    108 HO48       19.6020  -24.4030   60.4970 H         1 01K1704     0.0000 
    109 H49        19.6520  -26.0190   59.8420 H         1 01K1704     0.0000 
    110 H51        22.9500  -26.1240   60.2550 H         1 01K1704     0.0000 
    111 H56        18.5780  -30.2760   62.7790 H         1 01K1704     0.0000 
    112 HN59       22.9740  -30.4300   64.3330 H         1 01K1704     0.0000 
    113 HN5A       23.7670  -29.1920   63.4180 H         1 01K1704     0.0000 
@<TRIPOS>BOND
     1    1    2 ar   
     2    2    3 1    
     3    2   36 ar   
     4    2   37 1    
     5    3    4 1    
     6    4    5 1    
     7    4   34 ar   
     8    4   35 ar   
     9    5    6 1    
    10    6    7 1    
    11    6   66 1    
    12    6   65 1    
    13    7    8 1    
    14    7    9 1    
    15    7   10 1    
    16    8   67 1    
    17    8   68 1    
    18    8   69 1    
    19    9   70 1    
    20    9   71 1    
    21    9   72 1    
    22   10   11 1    
    23   10   12 1    
    24   10   73 1    
    25   11   74 1    
    26   12   13 am   
    27   12   33 2    
    28   13   14 1    
    29   13   75 1    
    30   14   15 1    
    31   14   76 1    
    32   14   77 1    
    33   15   16 1    
    34   15   78 1    
    35   15   79 1    
    36   16   17 am   
    37   16   32 2    
    38   17   18 1    
    39   17   80 1    
    40   18   19 1    
    41   18   81 1    
    42   18   82 1    
    43   19   20 1    
    44   19   83 1    
    45   19   84 1    
    46   20   21 1    
    47   21   22 1    
    48   21   85 1    
    49   21   86 1    
    50   22   23 am   
    51   22   47 2    
    52   23   24 1    
    53   23   87 1    
    54   24   25 1    
    55   24   88 1    
    56   24   89 1    
    57   25   26 1    
    58   25   90 1    
    59   25   91 1    
    60   26   27 1    
    61   26   92 1    
    62   26   93 1    
    63   27   28 1    
    64   27   94 1    
    65   27   95 1    
    66   28   29 1    
    67   28   30 1    
    68   28   96 1    
    69   29   44 am   
    70   29   97 1    
    71   30   31 2    
    72   30   46 am   
    73   37   48 1    
    74   53  107 1    
    75   38   39 1    
    76   38   48 1    
    77   38   49 1    
    78   38   98 1    
    79   39   50 1    
    80   39   53 1    
    81   39   99 1    
    82   40   51 ar   
    83   41   51 ar   
    84   42   56 1    
    85   42   59 ar   
    86   42   60 ar   
    87   43   44 1    
    88   43  100 1    
    89   43  101 1    
    90   43  102 1    
    91   44   45 2    
    92   46  103 1    
    93   46  104 1    
    94   48  105 1    
    95   48  106 1    
    96   49   55 1    
    97   50   51 1    
    98   51   52 ar   
    99   53   54 1    
   100   53   55 1    
   101   54  108 1    
   102   55   56 1    
   103   55  109 1    
   104   56   57 1    
   105   57   58 2    
   106   57  110 1    
   107   58   59 1    
   108   59   63 ar   
   109   60   61 ar   
   110   61   62 ar   
   111   61  111 1    
   112   62   63 ar   
   113   63   64 1    
   114   64  112 1    
   115   64  113 1    
@<TRIPOS>SUBSTRUCTURE
     1 01K1704     1 GROUP   
@<TRIPOS>SET

