#    Name: 6gyr_3_01K
#    Modification time : Fri May 22 19:32:48 2020

@<TRIPOS>MOLECULE
6gyr_3_01K
  113   116     1     0     0
SMALL
NO_CHARGES


@<TRIPOS>ATOM
      1 O1        -26.1140   -7.3760   11.4740 O.co2     1 01K1704     0.0000 
      2 P2        -26.2600   -8.8490   11.4560 P.3       1 01K1704     0.0000 
      3 O3        -25.8530   -9.3350   12.9240 O.3       1 01K1704     0.0000 
      4 P4        -25.3680  -10.7250   13.5460 P.3       1 01K1704     0.0000 
      5 O5        -24.1030  -10.9460   12.6830 O.3       1 01K1704     0.0000 
      6 C6        -23.0110  -10.0420   12.6700 C.3       1 01K1704     0.0000 
      7 C7        -21.9080  -10.7370   11.8700 C.3       1 01K1704     0.0000 
      8 C8        -20.8750   -9.6770   11.5010 C.3       1 01K1704     0.0000 
      9 C9        -21.2290  -11.8550   12.6360 C.3       1 01K1704     0.0000 
     10 C10       -22.5610  -11.1920   10.5610 C.3       1 01K1704     0.0000 
     11 O11       -23.1400  -10.0700    9.8790 O.3       1 01K1704     0.0000 
     12 C12       -21.5670  -11.9160    9.6670 C.2       1 01K1704     0.0000 
     13 N13       -21.0740  -11.2220    8.6430 N.am      1 01K1704     0.0000 
     14 C14       -20.1140  -11.8650    7.7480 C.3       1 01K1704     0.0000 
     15 C15       -18.7280  -11.6770    8.3020 C.3       1 01K1704     0.0000 
     16 C16       -18.4550  -10.1900    8.3510 C.2       1 01K1704     0.0000 
     17 N17       -17.5720   -9.8180    9.2650 N.am      1 01K1704     0.0000 
     18 C18       -17.1890   -8.4220    9.4500 C.3       1 01K1704     0.0000 
     19 C19       -15.8350   -8.4440   10.0990 C.3       1 01K1704     0.0000 
     20 S20       -15.1720   -6.7940   10.4910 S.3       1 01K1704     0.0000 
     21 C21       -13.4750   -7.3440   11.0200 C.3       1 01K1704     0.0000 
     22 C22       -12.9260   -8.1210    9.8210 C.2       1 01K1704     0.0000 
     23 NZ        -12.3200   -7.3500    8.8950 N.am      1 01K1704     0.0000 
     24 CE        -11.7160   -7.8820    7.6540 C.3       1 01K1704     0.0000 
     25 CD        -11.3690   -6.5730    6.9610 C.3       1 01K1704     0.0000 
     26 CG        -11.3730   -6.7360    5.4220 C.3       1 01K1704     0.0000 
     27 CB        -10.4680   -7.6300    4.6590 C.3       1 01K1704     0.0000 
     28 CA        -11.1040   -7.5790    3.2140 C.3       1 01K1704     0.0000 
     29 N         -11.2310   -6.2320    2.5640 N.am      1 01K1704     0.0000 
     30 C         -10.4190   -8.5760    2.2820 C.2       1 01K1704     0.0000 
     31 O         -10.4120   -8.4100    1.0630 O.2       1 01K1704     0.0000 
     32 O33       -18.9890   -9.4210    7.5580 O.2       1 01K1704     0.0000 
     33 O34       -21.2380  -13.0720    9.9100 O.2       1 01K1704     0.0000 
     34 O35       -26.3260  -11.8490   13.3310 O.co2     1 01K1704     0.0000 
     35 O36       -24.9250  -10.3590   14.9120 O.co2     1 01K1704     0.0000 
     36 O37       -25.5230   -9.6870   10.4800 O.co2     1 01K1704     0.0000 
     37 O38       -27.7390   -9.2160   11.2500 O.3       1 01K1704     0.0000 
     38 C40       -30.1560   -8.9050   11.7240 C.3       1 01K1704     0.0000 
     39 C41       -30.9060   -9.9190   10.8800 C.3       1 01K1704     0.0000 
     40 O45       -33.8050  -10.0620   12.8980 O.co2     1 01K1704     0.0000 
     41 O46       -31.6110  -11.2050   13.1200 O.co2     1 01K1704     0.0000 
     42 C54       -30.0420   -7.1140    7.2410 C.ar      1 01K1704     0.0000 
     43 C63        -8.8360   -5.9120    1.9650 C.3       1 01K1704     0.0000 
     44 C61       -10.2910   -5.4340    1.9970 C.2       1 01K1704     0.0000 
     45 O62       -10.5850   -4.3520    1.4840 O.2       1 01K1704     0.0000 
     46 N64        -9.7970   -9.5560    2.9040 N.am      1 01K1704     0.0000 
     47 O32       -12.9950   -9.3550    9.7980 O.2       1 01K1704     0.0000 
     48 C39       -28.6980   -8.8400   12.2290 C.3       1 01K1704     0.0000 
     49 O60       -29.4650   -8.4300   10.5100 O.3       1 01K1704     0.0000 
     50 O42       -32.2960  -10.0420   10.8940 O.3       1 01K1704     0.0000 
     51 P43       -32.7530  -10.8630   12.2470 P.3       1 01K1704     0.0000 
     52 O44       -33.2150  -12.2310   11.5530 O.co2     1 01K1704     0.0000 
     53 C47       -30.1250   -9.8320    9.6470 Du        1 01K1704     0.0000 
     54 O48       -30.8620  -10.5430    8.6320 Du        1 01K1704     0.0000 
     55 C49       -30.3950   -8.3260    9.4920 C.3       1 01K1704     0.0000 
     56 N50       -29.7160   -7.8300    8.3030 N.pl3     1 01K1704     0.0000 
     57 C51       -28.4340   -8.1840    8.1800 C.2       1 01K1704     0.0000 
     58 N52       -27.9420   -7.6510    7.0770 N.2       1 01K1704     0.0000 
     59 C53       -28.9330   -6.9690    6.5010 C.ar      1 01K1704     0.0000 
     60 N55       -31.1690   -6.4770    6.9090 N.ar      1 01K1704     0.0000 
     61 C56       -31.2010   -5.7160    5.7430 C.ar      1 01K1704     0.0000 
     62 N57       -30.0520   -5.6130    4.9680 N.ar      1 01K1704     0.0000 
     63 C58       -28.9530   -6.2500    5.3790 C.ar      1 01K1704     0.0000 
     64 N59       -27.8090   -6.1990    4.7010 N.pl3     1 01K1704     0.0000 
     65 H6        -22.6710   -9.8450   13.6870 H         1 01K1704     0.0000 
     66 H6A       -23.2990   -9.1100   12.1820 H         1 01K1704     0.0000 
     67 H8        -21.3720   -8.8420   11.0060 H         1 01K1704     0.0000 
     68 H8A       -20.1340  -10.1100   10.8290 H         1 01K1704     0.0000 
     69 H8B       -20.3810   -9.3210   12.4060 H         1 01K1704     0.0000 
     70 H9        -20.4940  -12.1770   11.8980 H         1 01K1704     0.0000 
     71 H9A       -20.5870  -11.5730   13.4280 H         1 01K1704     0.0000 
     72 H9B       -21.7750  -12.7520   12.7590 H         1 01K1704     0.0000 
     73 H10       -23.3630  -11.8880   10.8070 H         1 01K1704     0.0000 
     74 HO11      -23.6170  -10.3870    9.0600 H         1 01K1704     0.0000 
     75 HN13      -21.3200  -10.2790    8.4190 H         1 01K1704     0.0000 
     76 H14       -20.1760  -11.4120    6.7580 H         1 01K1704     0.0000 
     77 H14A      -20.3360  -12.9300    7.6760 H         1 01K1704     0.0000 
     78 H15       -17.9990  -12.1650    7.6540 H         1 01K1704     0.0000 
     79 H15A      -18.6680  -12.0960    9.3070 H         1 01K1704     0.0000 
     80 HN17      -17.1410  -10.4610    9.8980 H         1 01K1704     0.0000 
     81 H18       -17.9080   -7.9180   10.0980 H         1 01K1704     0.0000 
     82 H18A      -17.1340   -7.9170    8.4840 H         1 01K1704     0.0000 
     83 H19       -15.1400   -8.9470    9.4280 H         1 01K1704     0.0000 
     84 H19A      -15.9060   -9.0180   11.0220 H         1 01K1704     0.0000 
     85 H21       -13.5400   -7.9940   11.8940 H         1 01K1704     0.0000 
     86 H21A      -12.8430   -6.4810   11.2340 H         1 01K1704     0.0000 
     87 HNZ       -12.2850   -6.3540    8.9770 H         1 01K1704     0.0000 
     88 HE        -10.9020   -8.4460    8.0050 H         1 01K1704     0.0000 
     89 HEA       -12.4980   -8.4370    7.2240 H         1 01K1704     0.0000 
     90 HD        -10.3810   -6.2510    7.2840 H         1 01K1704     0.0000 
     91 HDA       -12.1020   -5.8170    7.2420 H         1 01K1704     0.0000 
     92 HG        -12.3500   -7.0330    5.2860 H         1 01K1704     0.0000 
     93 HGA       -11.2050   -5.7570    5.1480 H         1 01K1704     0.0000 
     94 HB        -10.4930   -8.6450    5.0580 H         1 01K1704     0.0000 
     95 HBA        -9.4500   -7.2390    4.6480 H         1 01K1704     0.0000 
     96 HA        -12.1190   -7.9570    3.3410 H         1 01K1704     0.0000 
     97 HN        -12.1590   -5.8610    2.5400 H         1 01K1704     0.0000 
     98 H40       -30.7920   -8.1160   12.1270 H         1 01K1704     0.0000 
     99 H41       -30.6410  -10.8860   11.3080 H         1 01K1704     0.0000 
    100 H63        -8.8120   -7.0010    1.9190 H         1 01K1704     0.0000 
    101 H63A       -8.3240   -5.5760    2.8670 H         1 01K1704     0.0000 
    102 H63B       -8.3370   -5.5000    1.0880 H         1 01K1704     0.0000 
    103 HN64       -9.3190  -10.2580    2.3760 H         1 01K1704     0.0000 
    104 HN6A       -9.8360   -9.6200    3.9010 H         1 01K1704     0.0000 
    105 H39       -28.4880   -7.8210   12.5510 H         1 01K1704     0.0000 
    106 H39A      -28.5990   -9.5050   13.0870 H         1 01K1704     0.0000 
    107 H47       -29.0710  -10.0750    9.7820 H         1 01K1704     0.0000 
    108 HO48      -31.7600  -10.1190    8.5120 H         1 01K1704     0.0000 
    109 H49       -31.4070   -8.0320    9.7720 H         1 01K1704     0.0000 
    110 H51       -27.8810   -8.8090    8.8820 H         1 01K1704     0.0000 
    111 H56       -32.1230   -5.2250    5.4300 H         1 01K1704     0.0000 
    112 HN59      -27.7560   -5.6770    3.8500 H         1 01K1704     0.0000 
    113 HN5A      -27.0040   -6.6830    5.0430 H         1 01K1704     0.0000 
@<TRIPOS>BOND
     1    1    2 ar   
     2    2    3 1    
     3    2   36 ar   
     4    2   37 1    
     5    3    4 1    
     6    4    5 1    
     7    4   34 ar   
     8    4   35 ar   
     9    5    6 1    
    10    6    7 1    
    11    6   66 1    
    12    6   65 1    
    13    7    8 1    
    14    7    9 1    
    15    7   10 1    
    16    8   67 1    
    17    8   68 1    
    18    8   69 1    
    19    9   70 1    
    20    9   71 1    
    21    9   72 1    
    22   10   11 1    
    23   10   12 1    
    24   10   73 1    
    25   11   74 1    
    26   12   13 am   
    27   12   33 2    
    28   13   14 1    
    29   13   75 1    
    30   14   15 1    
    31   14   76 1    
    32   14   77 1    
    33   15   16 1    
    34   15   78 1    
    35   15   79 1    
    36   16   17 am   
    37   16   32 2    
    38   17   18 1    
    39   17   80 1    
    40   18   19 1    
    41   18   81 1    
    42   18   82 1    
    43   19   20 1    
    44   19   83 1    
    45   19   84 1    
    46   20   21 1    
    47   21   22 1    
    48   21   85 1    
    49   21   86 1    
    50   22   23 am   
    51   22   47 2    
    52   23   24 1    
    53   23   87 1    
    54   24   25 1    
    55   24   88 1    
    56   24   89 1    
    57   25   26 1    
    58   25   90 1    
    59   25   91 1    
    60   26   27 1    
    61   26   92 1    
    62   26   93 1    
    63   27   28 1    
    64   27   94 1    
    65   27   95 1    
    66   28   29 1    
    67   28   30 1    
    68   28   96 1    
    69   29   44 am   
    70   29   97 1    
    71   30   31 2    
    72   30   46 am   
    73   37   48 1    
    74   38   39 1    
    75   38   48 1    
    76   38   49 1    
    77   38   98 1    
    78   39   50 1    
    79   39   53 du   
    80   39   99 1    
    81   40   51 ar   
    82   41   51 ar   
    83   42   56 1    
    84   42   59 ar   
    85   42   60 ar   
    86   43   44 1    
    87   43  100 1    
    88   43  101 1    
    89   43  102 1    
    90   44   45 2    
    91   46  103 1    
    92   46  104 1    
    93   48  105 1    
    94   48  106 1    
    95   49   53 du   
    96   49   55 1    
    97   50   51 1    
    98   51   52 ar   
    99   53   54 du   
   100   53   55 du   
   101   53  107 1    
   102   54  108 1    
   103   55   56 1    
   104   55  109 1    
   105   56   57 1    
   106   57   58 2    
   107   57  110 1    
   108   58   59 1    
   109   59   63 ar   
   110   60   61 ar   
   111   61   62 ar   
   112   61  111 1    
   113   62   63 ar   
   114   63   64 1    
   115   64  112 1    
   116   64  113 1    
@<TRIPOS>SUBSTRUCTURE
     1 01K1704     1 GROUP   
@<TRIPOS>SET

