#    Name: 6gyr_1_01K
#    Modification time : Fri May 22 19:32:11 2020

@<TRIPOS>MOLECULE
6gyr_1_01K
  113   116     1     0     0
SMALL
NO_CHARGES


@<TRIPOS>ATOM
      1 O1         53.9670  -18.6310    9.5700 O.co2     1 01K1704     0.0000 
      2 P2         54.5700  -17.4570   10.1520 P.3       1 01K1704     0.0000 
      3 O3         54.1940  -17.7220   11.6820 O.3       1 01K1704     0.0000 
      4 P4         53.8700  -16.4480   12.5840 P.3       1 01K1704     0.0000 
      5 O5         52.4940  -16.2230   11.7710 O.3       1 01K1704     0.0000 
      6 C6         51.3010  -16.0950   12.4650 C.3       1 01K1704     0.0000 
      7 C7         50.2190  -15.6630   11.4700 C.3       1 01K1704     0.0000 
      8 C8         49.6570  -16.8130   10.6480 C.3       1 01K1704     0.0000 
      9 C9         49.1130  -15.0370   12.3190 C.3       1 01K1704     0.0000 
     10 C10        50.8090  -14.5770   10.5880 C.3       1 01K1704     0.0000 
     11 O11        51.6010  -15.2910    9.6190 O.3       1 01K1704     0.0000 
     12 C12        49.8310  -13.7630    9.7250 C.2       1 01K1704     0.0000 
     13 N13        49.8070  -13.9560    8.4080 N.am      1 01K1704     0.0000 
     14 C14        48.8570  -13.1520    7.5850 C.3       1 01K1704     0.0000 
     15 C15        47.3930  -13.3770    7.9710 C.3       1 01K1704     0.0000 
     16 C16        47.0980  -14.8360    7.7390 C.2       1 01K1704     0.0000 
     17 N17        45.8970  -15.2530    8.0730 N.am      1 01K1704     0.0000 
     18 C18        45.5600  -16.6580    7.8680 C.3       1 01K1704     0.0000 
     19 C19        44.3070  -16.9250    8.6580 C.3       1 01K1704     0.0000 
     20 S20        43.7630  -18.6570    8.5840 S.3       1 01K1704     0.0000 
     21 C21        42.2120  -18.3540    9.4500 C.3       1 01K1704     0.0000 
     22 C22        41.3090  -17.2700    8.7600 C.2       1 01K1704     0.0000 
     23 NZ         40.5930  -17.6260    7.6630 N.am      1 01K1704     0.0000 
     24 CE         39.7090  -16.6700    6.9410 C.3       1 01K1704     0.0000 
     25 CD         38.9690  -17.5700    5.9310 C.3       1 01K1704     0.0000 
     26 CG         39.4370  -17.4300    4.4690 C.3       1 01K1704     0.0000 
     27 CB         38.8480  -16.1010    3.9770 C.3       1 01K1704     0.0000 
     28 CA         39.3020  -15.5990    2.5820 C.3       1 01K1704     0.0000 
     29 N          39.1620  -16.4290    1.3360 N.am      1 01K1704     0.0000 
     30 C          38.6490  -14.2180    2.4040 C.2       1 01K1704     0.0000 
     31 O          39.2190  -13.3600    1.7250 O.2       1 01K1704     0.0000 
     32 O33        47.9390  -15.5710    7.2450 O.2       1 01K1704     0.0000 
     33 O34        49.1620  -12.8960   10.2720 O.2       1 01K1704     0.0000 
     34 O35        54.7690  -15.2810   12.4450 O.co2     1 01K1704     0.0000 
     35 O36        53.4950  -16.9890   13.9090 O.co2     1 01K1704     0.0000 
     36 O37        54.1240  -16.1230    9.6380 O.co2     1 01K1704     0.0000 
     37 O38        56.0680  -17.7320   10.2260 O.3       1 01K1704     0.0000 
     38 C40        58.3270  -17.8560   10.4070 C.3       1 01K1704     0.0000 
     39 C41        58.9930  -16.5850   10.0320 Du        1 01K1704     0.0000 
     40 O45        61.4440  -17.5170   11.9040 Du        1 01K1704     0.0000 
     41 O46        60.0520  -15.4210   12.3750 Du        1 01K1704     0.0000 
     42 C54        58.3050  -17.9240    5.5250 C.ar      1 01K1704     0.0000 
     43 C63        36.7740  -16.0540    0.7160 C.3       1 01K1704     0.0000 
     44 C61        38.1430  -16.6810    0.4830 C.2       1 01K1704     0.0000 
     45 O62        38.3190  -17.3320   -0.5420 O.2       1 01K1704     0.0000 
     46 N64        37.4730  -14.0290    3.0440 N.am      1 01K1704     0.0000 
     47 O32        41.3760  -16.1020    9.1280 O.2       1 01K1704     0.0000 
     48 C39        57.1380  -16.9120   10.6160 C.3       1 01K1704     0.0000 
     49 O60        58.2090  -18.2290    9.0060 O.3       1 01K1704     0.0000 
     50 O42        60.3560  -16.4330   10.0030 Du        1 01K1704     0.0000 
     51 P43        60.9630  -16.1690   11.4710 Du        1 01K1704     0.0000 
     52 O44        62.1480  -15.1700   11.1580 Du        1 01K1704     0.0000 
     53 C47        58.1600  -15.9090    8.6780 Du        1 01K1704     0.0000 
     54 O48        58.9840  -14.9380    8.0870 Du        1 01K1704     0.0000 
     55 C49        58.4500  -17.0370    8.0630 C.3       1 01K1704     0.0000 
     56 N50        58.1240  -17.3810    6.6930 N.pl3     1 01K1704     0.0000 
     57 C51        56.8040  -17.0380    6.7310 C.2       1 01K1704     0.0000 
     58 N52        56.2280  -17.2450    5.5700 N.2       1 01K1704     0.0000 
     59 C53        57.1840  -17.7710    4.8030 C.ar      1 01K1704     0.0000 
     60 N55        59.4020  -18.3830    4.9580 N.ar      1 01K1704     0.0000 
     61 C56        59.3640  -18.8000    3.6350 C.ar      1 01K1704     0.0000 
     62 N57        58.1870  -18.6850    2.9210 N.ar      1 01K1704     0.0000 
     63 C58        57.1330  -18.1680    3.5350 C.ar      1 01K1704     0.0000 
     64 N59        55.9650  -18.0250    2.9260 N.pl3     1 01K1704     0.0000 
     65 H6         51.1990  -17.0690   12.8350 H         1 01K1704     0.0000 
     66 H6A        51.5750  -15.3650   13.1660 H         1 01K1704     0.0000 
     67 H8         50.5570  -17.1310   10.1230 H         1 01K1704     0.0000 
     68 H8A        49.4200  -17.7030   11.1680 H         1 01K1704     0.0000 
     69 H8B        49.0410  -16.5590    9.8260 H         1 01K1704     0.0000 
     70 H9         48.3430  -14.6250   11.6660 H         1 01K1704     0.0000 
     71 H9A        49.5330  -14.2400   12.9330 H         1 01K1704     0.0000 
     72 H9B        48.6740  -15.7990   12.9630 H         1 01K1704     0.0000 
     73 H10        51.4410  -13.9120   11.1750 H         1 01K1704     0.0000 
     74 HO11       52.0720  -14.6380    9.0260 H         1 01K1704     0.0000 
     75 HN13       50.3420  -14.6440    7.9190 H         1 01K1704     0.0000 
     76 H14        48.9870  -13.4190    6.5380 H         1 01K1704     0.0000 
     77 H14A       49.0920  -12.0960    7.7090 H         1 01K1704     0.0000 
     78 H15        46.7420  -12.7640    7.3460 H         1 01K1704     0.0000 
     79 H15A       47.2390  -13.1300    9.0220 H         1 01K1704     0.0000 
     80 HN17       45.1820  -14.6820    8.4760 H         1 01K1704     0.0000 
     81 H18        46.3710  -17.2920    8.2280 H         1 01K1704     0.0000 
     82 H18A       45.3800  -16.8470    6.8080 H         1 01K1704     0.0000 
     83 H19        43.5110  -16.2910    8.2700 H         1 01K1704     0.0000 
     84 H19A       44.4900  -16.6600    9.6990 H         1 01K1704     0.0000 
     85 H21        42.4410  -18.0260   10.4620 H         1 01K1704     0.0000 
     86 H21A       41.6590  -19.2890    9.5010 H         1 01K1704     0.0000 
     87 HNZ        40.5430  -18.5700    7.3380 H         1 01K1704     0.0000 
     88 HE         39.1120  -16.2770    7.7030 H         1 01K1704     0.0000 
     89 HEA        40.3860  -15.9950    6.5170 H         1 01K1704     0.0000 
     90 HD         37.9080  -17.3310    5.9760 H         1 01K1704     0.0000 
     91 HDA        39.1030  -18.6060    6.2370 H         1 01K1704     0.0000 
     92 HG         39.0560  -18.2560    3.8680 H         1 01K1704     0.0000 
     93 HGA        40.5270  -17.4000    4.4210 H         1 01K1704     0.0000 
     94 HB         39.1030  -15.3370    4.7080 H         1 01K1704     0.0000 
     95 HBA        37.7660  -16.2070    3.9600 H         1 01K1704     0.0000 
     96 HA         40.3680  -15.4010    2.6940 H         1 01K1704     0.0000 
     97 HN         40.0150  -16.8610    1.0450 H         1 01K1704     0.0000 
     98 H40        58.7640  -18.3900   11.2510 H         1 01K1704     0.0000 
     99 H41        58.7590  -15.9130   10.8580 H         1 01K1704     0.0000 
    100 H63        36.8950  -15.0930    1.2160 H         1 01K1704     0.0000 
    101 H63A       36.1720  -16.7150    1.3390 H         1 01K1704     0.0000 
    102 H63B       36.2750  -15.9040   -0.2420 H         1 01K1704     0.0000 
    103 HN64       36.9970  -13.1530    2.9680 H         1 01K1704     0.0000 
    104 HN6A       37.0710  -14.7710    3.5810 H         1 01K1704     0.0000 
    105 H39        57.3730  -16.1150    9.9620 H         1 01K1704     0.0000 
    106 H39A       57.2070  -16.6980   11.6490 H         1 01K1704     0.0000 
    107 H47        57.0950  -15.7380    8.8320 H         1 01K1704     0.0000 
    108 HO48       59.8370  -15.3630    7.7840 H         1 01K1704     0.0000 
    109 H49        59.5360  -17.0280    7.9730 H         1 01K1704     0.0000 
    110 H51        56.3100  -16.5860    7.5910 H         1 01K1704     0.0000 
    111 H56        60.2530  -19.2230    3.1670 H         1 01K1704     0.0000 
    112 HN59       55.8610  -18.3060    1.9710 H         1 01K1704     0.0000 
    113 HN5A       55.1870  -17.6380    3.4200 H         1 01K1704     0.0000 
@<TRIPOS>BOND
     1    1    2 ar   
     2    2    3 1    
     3    2   36 ar   
     4    2   37 1    
     5    3    4 1    
     6    4    5 1    
     7    4   34 ar   
     8    4   35 ar   
     9    5    6 1    
    10    6    7 1    
    11    6   66 1    
    12    6   65 1    
    13    7    8 1    
    14    7    9 1    
    15    7   10 1    
    16    8   67 1    
    17    8   68 1    
    18    8   69 1    
    19    9   70 1    
    20    9   71 1    
    21    9   72 1    
    22   10   11 1    
    23   10   12 1    
    24   10   73 1    
    25   11   74 1    
    26   12   13 am   
    27   12   33 2    
    28   13   14 1    
    29   13   75 1    
    30   14   15 1    
    31   14   76 1    
    32   14   77 1    
    33   15   16 1    
    34   15   78 1    
    35   15   79 1    
    36   16   17 am   
    37   16   32 2    
    38   17   18 1    
    39   17   80 1    
    40   18   19 1    
    41   18   81 1    
    42   18   82 1    
    43   19   20 1    
    44   19   83 1    
    45   19   84 1    
    46   20   21 1    
    47   21   22 1    
    48   21   85 1    
    49   21   86 1    
    50   22   23 am   
    51   22   47 2    
    52   23   24 1    
    53   23   87 1    
    54   24   25 1    
    55   24   88 1    
    56   24   89 1    
    57   25   26 1    
    58   25   90 1    
    59   25   91 1    
    60   26   27 1    
    61   26   92 1    
    62   26   93 1    
    63   27   28 1    
    64   27   94 1    
    65   27   95 1    
    66   28   29 1    
    67   28   30 1    
    68   28   96 1    
    69   29   44 am   
    70   29   97 1    
    71   30   31 2    
    72   30   46 am   
    73   37   48 1    
    74   38   39 du   
    75   38   48 1    
    76   38   49 1    
    77   38   98 1    
    78   39   48 du   
    79   39   50 du   
    80   39   53 du   
    81   39   99 1    
    82   48  105 1    
    83   40   51 du   
    84   41   51 du   
    85   42   56 1    
    86   42   59 ar   
    87   42   60 ar   
    88   43   44 1    
    89   43  100 1    
    90   43  101 1    
    91   43  102 1    
    92   44   45 2    
    93   46  103 1    
    94   46  104 1    
    95   48  106 1    
    96   49   55 1    
    97   50   51 du   
    98   51   52 du   
    99   53   54 du   
   100   53   55 du   
   101   53  107 1    
   102   54  108 1    
   103   55   56 1    
   104   55  109 1    
   105   56   57 1    
   106   57   58 2    
   107   57  110 1    
   108   58   59 1    
   109   59   63 ar   
   110   60   61 ar   
   111   61   62 ar   
   112   61  111 1    
   113   62   63 ar   
   114   63   64 1    
   115   64  112 1    
   116   64  113 1    
@<TRIPOS>SUBSTRUCTURE
     1 01K1704     1 GROUP   
@<TRIPOS>SET

