#    Name: 6nja_1_ADE_CAVITY_N1_4
#    Modification time : Fri May 22 19:37:24 2020

@<TRIPOS>MOLECULE
6nja_1_ADE_CAVITY_N1_4
   39     0     5     0     0
SMALL
NO_CHARGES


@<TRIPOS>ATOM
      1 OG         62.3700    5.6100   11.4300 O.3       1 SER1        0.0000 
      2 O          62.6700    9.1300    8.6400 O.2       2 ALA2        0.0000 
      3 N          59.2100    9.9900   11.7800 N.am      2 ALA2        0.0000 
      4 O          58.0900   10.6600   12.5100 O.2       2 ALA2        0.0000 
      5 N          64.5800    6.7500   10.6800 N.am      2 ALA2        0.0000 
      6 N          63.6600    9.7700    9.5600 N.am      2 ALA2        0.0000 
      7 N          62.5400   10.4500   10.3000 N.am      2 ALA2        0.0000 
      8 N          60.2100   10.6300   12.7000 N.am      2 ALA2        0.0000 
      9 N          60.3100   11.8100   11.7700 N.am      2 ALA2        0.0000 
     10 NZ         62.5900    5.4600    8.8400 N.4       3 LYS4        0.0000 
     11 NZ         63.5900    6.1100    9.7600 N.4       3 LYS4        0.0000 
     12 CA         61.4700    6.1400    9.5800 C.3       4 GLY6        0.0000 
     13 CA         60.4500    7.9900    9.3900 C.3       4 GLY6        0.0000 
     14 CA         59.2400    7.4900   11.0500 C.3       4 GLY6        0.0000 
     15 CA         59.3400    8.6700   10.1200 C.3       4 GLY6        0.0000 
     16 CA         58.1200    8.1700   11.7900 C.3       4 GLY6        0.0000 
     17 CA         58.2200    9.3400   10.8600 C.3       4 GLY6        0.0000 
     18 CA         63.6900    7.2800    8.8300 C.3       4 GLY6        0.0000 
     19 CA         63.7800    8.4500    7.9100 C.3       4 GLY6        0.0000 
     20 CA         62.4700    6.7800   10.5000 C.3       4 GLY6        0.0000 
     21 CA         62.5700    7.9600    9.5700 C.3       4 GLY6        0.0000 
     22 CA         61.3500    7.4600   11.2300 C.3       4 GLY6        0.0000 
     23 CA         61.4500    8.6300   10.3100 C.3       4 GLY6        0.0000 
     24 CA         61.5500    9.8100    9.3800 C.3       4 GLY6        0.0000 
     25 CA         60.3300    9.3100   11.0400 C.3       4 GLY6        0.0000 
     26 CA         60.4300   10.4800   10.1100 C.3       4 GLY6        0.0000 
     27 CA         59.1100    8.8100   12.7100 C.3       4 GLY6        0.0000 
     28 CA         59.3100   11.1600   10.8500 C.3       4 GLY6        0.0000 
     29 CA         64.7800    9.1000    8.8300 C.3       4 GLY6        0.0000 
     30 CA         63.3600    6.2500   12.3500 C.3       4 GLY6        0.0000 
     31 CA         63.4600    7.4300   11.4200 C.3       4 GLY6        0.0000 
     32 CA         63.5600    8.6000   10.4900 C.3       4 GLY6        0.0000 
     33 CA         62.4400    9.2800   11.2300 C.3       4 GLY6        0.0000 
     34 CA         61.3300    9.9500   11.9600 C.3       4 GLY6        0.0000 
     35 CA         61.4200   11.1300   11.0300 C.3       4 GLY6        0.0000 
     36 CA         64.4600    8.0700   12.3400 C.3       4 GLY6        0.0000 
     37 CA         64.5600    9.2400   11.4100 C.3       4 GLY6        0.0000 
     38 CA         63.4400    9.9200   12.1500 C.3       4 GLY6        0.0000 
     39 DU         64.6800    7.9200    9.7500 H         5 CUB7        0.0000 
@<TRIPOS>BOND
@<TRIPOS>SUBSTRUCTURE
     1 SER1        1 GROUP   
     2 ALA2        2 GROUP   
     3 LYS4       10 GROUP   
     4 GLY6       12 GROUP   
     5 CUB7       39 GROUP   
@<TRIPOS>SET

