#    Name: 6nja_1_ADE
#    Modification time : Fri May 22 19:37:23 2020

@<TRIPOS>MOLECULE
6nja_1_ADE
   10    11     1     0     0
SMALL
NO_CHARGES


@<TRIPOS>ATOM
      1 N9         61.6120    9.9690   10.5780 N.pl3     1 ADE1101     0.0000 
      2 C8         61.6480    8.7230   10.0170 C.2       1 ADE1101     0.0000 
      3 N7         60.5640    8.0260   10.2240 N.2       1 ADE1101     0.0000 
      4 C5         59.7530    8.8710   10.9550 C.ar      1 ADE1101     0.0000 
      5 C6         58.4610    8.7120   11.4830 C.ar      1 ADE1101     0.0000 
      6 N6         57.7490    7.5990   11.3620 N.pl3     1 ADE1101     0.0000 
      7 N1         57.9470    9.7460   12.1760 N.ar      1 ADE1101     0.0000 
      8 C2         58.6840   10.8510   12.3110 C.ar      1 ADE1101     0.0000 
      9 N3         59.9030   11.1240   11.8560 N.ar      1 ADE1101     0.0000 
     10 C4         60.3880   10.0760   11.1810 C.ar      1 ADE1101     0.0000 
@<TRIPOS>BOND
     1    1    2 1    
     2    1   10 1    
     3    2    3 2    
     4    3    4 1    
     5    4    5 ar   
     6    4   10 ar   
     7    5    6 1    
     8    5    7 ar   
     9    7    8 ar   
    10    8    9 ar   
    11    9   10 ar   
@<TRIPOS>SUBSTRUCTURE
     1 ADE1101     1 GROUP   
@<TRIPOS>SET

