#    Name: 5ofa_2_ANP
#    Modification time : Fri May 22 19:25:41 2020

@<TRIPOS>MOLECULE
5ofa_2_ANP
   31    33     1     0     1
SMALL
NO_CHARGES


@<TRIPOS>ATOM
      1 PG        -12.5770  -21.5850  -28.5060 P.3       1 ANP702      0.0000 
      2 O1G       -13.7770  -20.7600  -28.9660 O.co2     1 ANP702      0.0000 
      3 O2G       -12.9440  -23.0300  -28.2530 O.co2     1 ANP702      0.0000 
      4 O3G       -11.5110  -21.1200  -27.5250 O.co2     1 ANP702      0.0000 
      5 PB        -12.4700  -21.4180  -31.4700 P.3       1 ANP702      0.0000 
      6 O1B       -11.4980  -21.8200  -32.5830 O.co2     1 ANP702      0.0000 
      7 O2B       -13.2190  -20.1320  -31.7250 O.co2     1 ANP702      0.0000 
      8 N3B       -11.6160  -21.5020  -30.0020 N.3       1 ANP702      0.0000 
      9 PA        -15.1260  -22.1380  -31.8180 P.3       1 ANP702      0.0000 
     10 O1A       -15.9490  -23.4020  -31.7480 O.co2     1 ANP702      0.0000 
     11 O2A       -15.4400  -20.8690  -30.9330 O.co2     1 ANP702      0.0000 
     12 O3A       -13.6380  -22.5530  -31.3690 O.3       1 ANP702      0.0000 
     13 O5'       -15.1120  -21.8070  -33.3620 O.3       1 ANP702      0.0000 
     14 C5'       -14.3760  -22.6530  -34.2390 C.3       1 ANP702      0.0000 
     15 C4'       -14.0910  -21.8800  -35.5190 C.3       1 ANP702      0.0000 
     16 O4'       -15.2680  -21.4040  -36.1700 O.3       1 ANP702      0.0000 
     17 C3'       -13.3260  -20.6220  -35.1970 C.3       1 ANP702      0.0000 
     18 O3'       -11.9550  -20.9570  -34.9800 O.3       1 ANP702      0.0000 
     19 C2'       -13.6080  -19.7640  -36.3880 C.3       1 ANP702      0.0000 
     20 O2'       -12.7310  -20.1950  -37.4310 O.3       1 ANP702      0.0000 
     21 C1'       -15.0080  -20.1210  -36.7760 C.3       1 ANP702      0.0000 
     22 N9        -15.9760  -19.1000  -36.3530 N.pl3     1 ANP702      0.0000 
     23 C8        -16.9130  -19.2110  -35.3780 C.2       1 ANP702      0.0000 
     24 N7        -17.6810  -18.0800  -35.3050 N.2       1 ANP702      0.0000 
     25 C5        -17.2440  -17.2140  -36.2280 C.ar      1 ANP702      0.0000 
     26 C6        -17.5650  -15.8300  -36.6630 C.ar      1 ANP702      0.0000 
     27 N6        -18.5410  -15.0910  -36.1250 N.pl3     1 ANP702      0.0000 
     28 N1        -16.8520  -15.3090  -37.6750 N.ar      1 ANP702      0.0000 
     29 C2        -15.8580  -16.0230  -38.2430 C.ar      1 ANP702      0.0000 
     30 N3        -15.4850  -17.2700  -37.8970 N.ar      1 ANP702      0.0000 
     31 C4        -16.1270  -17.9090  -36.9180 C.ar      1 ANP702      0.0000 
@<TRIPOS>BOND
     1    1    2 ar   
     2    1    3 ar   
     3    1    4 ar   
     4    1    8 1    
     5    5    6 ar   
     6    5    7 ar   
     7    5    8 1    
     8    5   12 1    
     9    9   10 ar   
    10    9   11 ar   
    11    9   12 1    
    12    9   13 1    
    13   13   14 1    
    14   14   15 1    
    15   15   16 1    
    16   15   17 1    
    17   16   21 1    
    18   17   18 1    
    19   17   19 1    
    20   19   20 1    
    21   19   21 1    
    22   21   22 1    
    23   22   23 1    
    24   22   31 1    
    25   23   24 2    
    26   24   25 1    
    27   25   26 ar   
    28   25   31 ar   
    29   26   27 1    
    30   26   28 ar   
    31   28   29 ar   
    32   29   30 ar   
    33   30   31 ar   
@<TRIPOS>SUBSTRUCTURE
     1 ANP702      1 GROUP   
@<TRIPOS>SET
ATOM$ORANGE STATIC     ATOMS   COLORGROUP SYSTEM 
20 14 14 15 15 17 17 19 19 21 21 23 23 25 25 26 26 29 \
29 31 31 

