#    Name: 5ofa_1_ANP
#    Modification time : Fri May 22 19:25:27 2020

@<TRIPOS>MOLECULE
5ofa_1_ANP
   31    33     1     0     1
SMALL
NO_CHARGES


@<TRIPOS>ATOM
      1 PG        -19.1270  -40.0090  -17.2160 P.3       1 ANP702      0.0000 
      2 O1G       -18.7190  -39.2280  -18.4490 O.co2     1 ANP702      0.0000 
      3 O2G       -17.9690  -40.6030  -16.4550 O.co2     1 ANP702      0.0000 
      4 O3G       -20.1620  -39.2980  -16.3640 O.co2     1 ANP702      0.0000 
      5 PB        -19.1100  -42.7250  -18.3050 P.3       1 ANP702      0.0000 
      6 O1B       -20.1840  -43.5180  -19.0660 O.co2     1 ANP702      0.0000 
      7 O2B       -18.4690  -43.2580  -17.0780 O.co2     1 ANP702      0.0000 
      8 N3B       -20.0300  -41.3450  -17.8190 N.3       1 ANP702      0.0000 
      9 PA        -16.3880  -42.6400  -19.0970 P.3       1 ANP702      0.0000 
     10 O1A       -15.5450  -42.0080  -20.2020 O.co2     1 ANP702      0.0000 
     11 O2A       -15.8920  -42.4610  -17.6740 O.co2     1 ANP702      0.0000 
     12 O3A       -17.9240  -42.2020  -19.3000 O.3       1 ANP702      0.0000 
     13 O5'       -16.5360  -44.2180  -19.4160 O.3       1 ANP702      0.0000 
     14 C5'       -17.1070  -44.6140  -20.6650 C.3       1 ANP702      0.0000 
     15 C4'       -17.5370  -46.0620  -20.5680 C.3       1 ANP702      0.0000 
     16 O4'       -16.3810  -46.9190  -20.4950 O.3       1 ANP702      0.0000 
     17 C3'       -18.4180  -46.3910  -19.3480 C.3       1 ANP702      0.0000 
     18 O3'       -19.8210  -46.1640  -19.5820 O.3       1 ANP702      0.0000 
     19 C2'       -18.1430  -47.8700  -19.1910 C.3       1 ANP702      0.0000 
     20 O2'       -19.0160  -48.5190  -20.1380 O.3       1 ANP702      0.0000 
     21 C1'       -16.7040  -48.0310  -19.6400 C.3       1 ANP702      0.0000 
     22 N9        -15.7070  -48.0610  -18.5540 N.pl3     1 ANP702      0.0000 
     23 C8        -14.7800  -47.1320  -18.2130 C.2       1 ANP702      0.0000 
     24 N7        -13.9740  -47.5330  -17.1740 N.2       1 ANP702      0.0000 
     25 C5        -14.3900  -48.7720  -16.8820 C.ar      1 ANP702      0.0000 
     26 C6        -14.0110  -49.7870  -15.8860 C.ar      1 ANP702      0.0000 
     27 N6        -13.0120  -49.5790  -14.9880 N.pl3     1 ANP702      0.0000 
     28 N1        -14.7200  -50.9310  -15.9010 N.ar      1 ANP702      0.0000 
     29 C2        -15.7390  -51.1710  -16.7630 C.ar      1 ANP702      0.0000 
     30 N3        -16.1550  -50.3000  -17.6990 N.ar      1 ANP702      0.0000 
     31 C4        -15.5150  -49.1080  -17.7870 C.ar      1 ANP702      0.0000 
@<TRIPOS>BOND
     1    1    2 ar   
     2    1    3 ar   
     3    1    4 ar   
     4    1    8 1    
     5    5    6 ar   
     6    5    7 ar   
     7    5    8 1    
     8    5   12 1    
     9    9   10 ar   
    10    9   11 ar   
    11    9   12 1    
    12    9   13 1    
    13   13   14 1    
    14   14   15 1    
    15   15   16 1    
    16   15   17 1    
    17   16   21 1    
    18   17   18 1    
    19   17   19 1    
    20   19   20 1    
    21   19   21 1    
    22   21   22 1    
    23   22   23 1    
    24   22   31 1    
    25   23   24 2    
    26   24   25 1    
    27   25   26 ar   
    28   25   31 ar   
    29   26   27 1    
    30   26   28 ar   
    31   28   29 ar   
    32   29   30 ar   
    33   30   31 ar   
@<TRIPOS>SUBSTRUCTURE
     1 ANP702      1 GROUP   
@<TRIPOS>SET
ATOM$ORANGE STATIC     ATOMS   COLORGROUP SYSTEM 
20 14 14 15 15 17 17 19 19 21 21 23 23 25 25 26 26 29 \
29 31 31 

