#    Name: 6to7_1_SUV
#    Modification time : Fri May 22 19:38:08 2020

@<TRIPOS>MOLECULE
6to7_1_SUV
   32    36     1     0     0
SMALL
NO_CHARGES


@<TRIPOS>ATOM
      1 C1        -14.2120  -61.8250  -36.1880           1 SUV401      0.0000 
      2 N1        -14.2400  -60.5590  -36.6470           1 SUV401      0.0000 
      3 O1        -14.7940  -62.1400  -34.9820           1 SUV401      0.0000 
      4 CL1       -13.0860  -67.7330  -35.0990           1 SUV401      0.0000 
      5 N2        -13.6450  -62.8530  -36.7650           1 SUV401      0.0000 
      6 O2        -10.4880  -59.2890  -35.5380           1 SUV401      0.0000 
      7 C3        -13.8320  -63.9220  -35.9100           1 SUV401      0.0000 
      8 N3        -12.6710  -58.6890  -35.5050           1 SUV401      0.0000 
      9 C4        -13.3650  -65.2220  -36.0270           1 SUV401      0.0000 
     10 N4        -12.0120  -58.1320  -32.3030           1 SUV401      0.0000 
     11 C5        -13.6500  -66.0930  -34.9940           1 SUV401      0.0000 
     12 N5        -11.3500  -57.2170  -33.0260           1 SUV401      0.0000 
     13 C6        -14.3740  -65.6960  -33.8820           1 SUV401      0.0000 
     14 N6        -12.7740  -57.5620  -31.3670           1 SUV401      0.0000 
     15 C7        -14.8050  -64.3790  -33.7670           1 SUV401      0.0000 
     16 C8        -14.5120  -63.5000  -34.7960           1 SUV401      0.0000 
     17 C11       -14.9690  -59.5660  -35.8420           1 SUV401      0.0000 
     18 C12       -14.0350  -58.7880  -34.9370           1 SUV401      0.0000 
     19 C14       -12.5050  -57.9390  -36.7880           1 SUV401      0.0000 
     20 C15       -13.3400  -58.5630  -37.9150           1 SUV401      0.0000 
     21 C16       -13.4860  -60.0860  -37.8270           1 SUV401      0.0000 
     22 C17       -11.5820  -59.3210  -34.9820           1 SUV401      0.0000 
     23 C19       -11.7350  -60.1280  -33.7180           1 SUV401      0.0000 
     24 C20       -11.8550  -59.5490  -32.4490           1 SUV401      0.0000 
     25 C21       -11.9270  -60.3660  -31.3220           1 SUV401      0.0000 
     26 C22       -11.7880  -61.7400  -31.4550           1 SUV401      0.0000 
     27 C23       -11.5960  -62.3290  -32.6970           1 SUV401      0.0000 
     28 C24       -11.5400  -61.5110  -33.8240           1 SUV401      0.0000 
     29 C27       -11.7450  -56.0330  -32.5670           1 SUV401      0.0000 
     30 C28       -12.6230  -56.2520  -31.5290           1 SUV401      0.0000 
     31 C29       -11.4270  -63.8200  -32.8180           1 SUV401      0.0000 
     32 C30       -12.8480  -56.4500  -36.6350           1 SUV401      0.0000 
@<TRIPOS>BOND
     1    1    2 du   
     2    1    3 du   
     3    1    5 du   
     4    2   17 du   
     5    2   21 du   
     6    3   16 du   
     7    4   11 du   
     8    5    7 du   
     9    6   22 du   
    10    7    9 du   
    11    7   16 du   
    12    8   18 du   
    13    8   19 du   
    14    8   22 du   
    15    9   11 du   
    16   10   12 du   
    17   10   14 du   
    18   10   24 du   
    19   11   13 du   
    20   12   29 du   
    21   13   15 du   
    22   14   30 du   
    23   15   16 du   
    24   17   18 du   
    25   19   20 du   
    26   19   32 du   
    27   20   21 du   
    28   22   23 du   
    29   23   24 du   
    30   23   28 du   
    31   24   25 du   
    32   25   26 du   
    33   26   27 du   
    34   27   28 du   
    35   27   31 du   
    36   29   30 du   
@<TRIPOS>SUBSTRUCTURE
     1 SUV401      1 GROUP   
@<TRIPOS>SET

