#    Name: 6to7_2_SUV
#    Modification time : Fri May 22 19:38:12 2020

@<TRIPOS>MOLECULE
6to7_2_SUV
   32    36     1     0     0
SMALL
NO_CHARGES


@<TRIPOS>ATOM
      1 C1        -17.0100  -24.5630  -34.5950           1 SUV401      0.0000 
      2 N1        -16.4540  -25.7730  -34.4720           1 SUV401      0.0000 
      3 O1        -18.3760  -24.4390  -34.6870           1 SUV401      0.0000 
      4 CL1       -18.2090  -18.6470  -35.4290           1 SUV401      0.0000 
      5 N2        -16.3770  -23.4250  -34.6850           1 SUV401      0.0000 
      6 O2        -15.3710  -26.5640  -38.3870           1 SUV401      0.0000 
      7 C3        -17.3500  -22.4650  -34.8590           1 SUV401      0.0000 
      8 N3        -16.3820  -27.4660  -36.5730           1 SUV401      0.0000 
      9 C4        -17.1990  -21.1030  -35.0470           1 SUV401      0.0000 
     10 N4        -18.7370  -28.1670  -38.8340           1 SUV401      0.0000 
     11 C5        -18.3470  -20.3650  -35.2240           1 SUV401      0.0000 
     12 N5        -19.8130  -28.9160  -38.5620           1 SUV401      0.0000 
     13 C6        -19.6060  -20.9520  -35.2260           1 SUV401      0.0000 
     14 N6        -17.7320  -28.9040  -39.3290           1 SUV401      0.0000 
     15 C7        -19.7340  -22.3250  -35.0630           1 SUV401      0.0000 
     16 C8        -18.5830  -23.0700  -34.8860           1 SUV401      0.0000 
     17 C11       -17.3530  -26.9360  -34.3530           1 SUV401      0.0000 
     18 C12       -17.5520  -27.6340  -35.6870           1 SUV401      0.0000 
     19 C14       -15.0890  -28.0600  -36.1330           1 SUV401      0.0000 
     20 C15       -14.6410  -27.4860  -34.7810           1 SUV401      0.0000 
     21 C16       -15.0050  -26.0200  -34.5670           1 SUV401      0.0000 
     22 C17       -16.3910  -26.7350  -37.7190           1 SUV401      0.0000 
     23 C19       -17.6670  -26.0610  -38.1440           1 SUV401      0.0000 
     24 C20       -18.7290  -26.7420  -38.7510           1 SUV401      0.0000 
     25 C21       -19.8420  -26.0380  -39.1780           1 SUV401      0.0000 
     26 C22       -19.8620  -24.6540  -39.0830           1 SUV401      0.0000 
     27 C23       -18.7850  -23.9500  -38.5540           1 SUV401      0.0000 
     28 C24       -17.6840  -24.6620  -38.1030           1 SUV401      0.0000 
     29 C27       -19.4610  -30.1650  -38.8440           1 SUV401      0.0000 
     30 C28       -18.1620  -30.1630  -39.3100           1 SUV401      0.0000 
     31 C29       -18.8040  -22.4430  -38.4900           1 SUV401      0.0000 
     32 C30       -15.1530  -29.5870  -36.0770           1 SUV401      0.0000 
@<TRIPOS>BOND
     1    1    2 du   
     2    1    3 du   
     3    1    5 du   
     4    2   17 du   
     5    2   21 du   
     6    3   16 du   
     7    4   11 du   
     8    5    7 du   
     9    6   22 du   
    10    7    9 du   
    11    7   16 du   
    12    8   18 du   
    13    8   19 du   
    14    8   22 du   
    15    9   11 du   
    16   10   12 du   
    17   10   14 du   
    18   10   24 du   
    19   11   13 du   
    20   12   29 du   
    21   13   15 du   
    22   14   30 du   
    23   15   16 du   
    24   17   18 du   
    25   19   20 du   
    26   19   32 du   
    27   20   21 du   
    28   22   23 du   
    29   23   24 du   
    30   23   28 du   
    31   24   25 du   
    32   25   26 du   
    33   26   27 du   
    34   27   28 du   
    35   27   31 du   
    36   29   30 du   
@<TRIPOS>SUBSTRUCTURE
     1 SUV401      1 GROUP   
@<TRIPOS>SET

