#    Name: 6opt_1_017
#    Modification time : Fri May 22 19:25:57 2020

@<TRIPOS>MOLECULE
6opt_1_017
   75    78     1     0     0
SMALL
NO_CHARGES


@<TRIPOS>ATOM
      1 N1        115.8490   51.6120   12.4470 N.pl3     1 017101      0.0000 
      2 C2        116.8200   52.2790   13.3630 C.ar      1 017101      0.0000 
      3 C3        117.8980   51.5760   13.8590 C.ar      1 017101      0.0000 
      4 C4        118.7940   52.1960   14.7030 C.ar      1 017101      0.0000 
      5 C5        118.5940   53.5310   15.0570 C.ar      1 017101      0.0000 
      6 C6        117.5330   54.2350   14.5650 C.ar      1 017101      0.0000 
      7 C7        116.6270   53.6090   13.7130 C.ar      1 017101      0.0000 
      8 S8        119.7750   54.3840   16.1680 S.o2      1 017101      0.0000 
      9 O9        120.2950   53.5420   17.2260 O.2       1 017101      0.0000 
     10 O10       119.0930   55.4850   16.8890 O.2       1 017101      0.0000 
     11 N11       121.0290   54.9940   15.1490 N.pl3     1 017101      0.0000 
     12 C12       121.8250   53.9900   14.4120 C.3       1 017101      0.0000 
     13 C13       123.3120   54.3500   14.4100 C.3       1 017101      0.0000 
     14 C14       124.0950   53.3870   13.4530 C.3       1 017101      0.0000 
     15 C15       123.8930   54.3620   15.8410 C.3       1 017101      0.0000 
     16 C16       120.6940   56.3390   14.4740 C.3       1 017101      0.0000 
     17 C17       121.6180   57.4640   15.0320 C.3       1 017101      0.0000 
     18 O18       121.5000   58.5870   14.2380 O.3       1 017101      0.0000 
     19 C19       121.2500   57.8040   16.4880 C.3       1 017101      0.0000 
     20 N20       122.2250   58.7590   16.9570 N.am      1 017101      0.0000 
     21 C21       123.1830   58.4640   18.0270 C.2       1 017101      0.0000 
     22 O22       123.2250   57.3980   18.5650 O.2       1 017101      0.0000 
     23 O23       124.0340   59.5160   18.3550 O.3       1 017101      0.0000 
     24 C24       124.8110   59.4590   19.5370 C.3       1 017101      0.0000 
     25 C25       126.3050   60.0300   19.1080 C.3       1 017101      0.0000 
     26 O26       126.0760   61.3380   18.9200 O.3       1 017101      0.0000 
     27 C27       125.0260   61.7190   20.0310 C.3       1 017101      0.0000 
     28 O28       124.1040   62.4290   19.5560 O.3       1 017101      0.0000 
     29 C29       122.7050   61.6040   19.6880 C.3       1 017101      0.0000 
     30 C30       122.9170   60.5760   20.4850 C.3       1 017101      0.0000 
     31 C31       124.3960   60.3310   20.4710 C.3       1 017101      0.0000 
     32 C32       119.8900   58.4870   16.6060 C.3       1 017101      0.0000 
     33 C33       119.3590   58.1160   19.0370 C.ar      1 017101      0.0000 
     34 C34       119.1230   58.5820   20.3420 C.ar      1 017101      0.0000 
     35 C35       119.1610   59.9610   20.6160 C.ar      1 017101      0.0000 
     36 C36       119.4350   60.8540   19.6030 C.ar      1 017101      0.0000 
     37 C37       119.6740   60.3910   18.3000 C.ar      1 017101      0.0000 
     38 C38       119.6320   59.0040   18.0240 C.ar      1 017101      0.0000 
     39 H11       115.1420   52.0380   12.1780 H         1 017101      0.0000 
     40 H12       115.9900   50.7970   12.1840 H         1 017101      0.0000 
     41 H3        118.0220   50.6860   13.6230 H         1 017101      0.0000 
     42 H4        119.5220   51.7270   15.0390 H         1 017101      0.0000 
     43 H6        117.4120   55.1240   14.8040 H         1 017101      0.0000 
     44 H7        115.9000   54.0790   13.3770 H         1 017101      0.0000 
     45 H121      121.7110   53.1510   14.8180 H         1 017101      0.0000 
     46 H122      121.5190   53.9450   13.5250 H         1 017101      0.0000 
     47 H13       123.3930   55.2190   14.0660 H         1 017101      0.0000 
     48 H141      124.6560   52.8300   13.9590 H         1 017101      0.0000 
     49 H142      123.4850   52.8620   12.9700 H         1 017101      0.0000 
     50 H143      124.6130   53.8940   12.8560 H         1 017101      0.0000 
     51 H151      123.2070   54.5430   16.4560 H         1 017101      0.0000 
     52 H152      124.2720   53.5240   16.0320 H         1 017101      0.0000 
     53 H153      124.5540   55.0260   15.9060 H         1 017101      0.0000 
     54 H161      120.8190   56.2630   13.5470 H         1 017101      0.0000 
     55 H162      119.7980   56.5590   14.6490 H         1 017101      0.0000 
     56 H17       122.5080   57.1670   15.0050 H         1 017101      0.0000 
     57 H18       122.1690   59.0710   14.3410 H         1 017101      0.0000 
     58 H19       121.2730   57.0310   17.0200 H         1 017101      0.0000 
     59 H20       122.2440   59.5450   16.5890 H         1 017101      0.0000 
     60 H24       124.8640   58.5860   19.8790 H         1 017101      0.0000 
     61 H251      126.5970   59.6280   18.3110 H         1 017101      0.0000 
     62 H252      126.9230   59.8970   19.8020 H         1 017101      0.0000 
     63 H27       125.4410   62.1450   20.7570 H         1 017101      0.0000 
     64 H291      122.4360   61.2990   18.8410 H         1 017101      0.0000 
     65 H292      122.0430   62.1600   20.0560 H         1 017101      0.0000 
     66 H301      122.6330   60.7810   21.3560 H         1 017101      0.0000 
     67 H302      122.4640   59.8190   20.1620 H         1 017101      0.0000 
     68 H31       124.7020   60.0800   21.3230 H         1 017101      0.0000 
     69 H321      119.8580   59.2080   16.0060 H         1 017101      0.0000 
     70 H322      119.2180   57.8710   16.3790 H         1 017101      0.0000 
     71 H33       119.3320   57.2040   18.8590 H         1 017101      0.0000 
     72 H34       118.9380   57.9780   21.0230 H         1 017101      0.0000 
     73 H35       119.0050   60.2690   21.4780 H         1 017101      0.0000 
     74 H36       119.4620   61.7650   19.7850 H         1 017101      0.0000 
     75 H37       119.8570   60.9950   17.6190 H         1 017101      0.0000 
@<TRIPOS>BOND
     1    1    2 1    
     2    2    3 ar   
     3    1   39 1    
     4    1   40 1    
     5    2    7 ar   
     6    3    4 ar   
     7    4    5 ar   
     8    3   41 1    
     9    5    6 ar   
    10    4   42 1    
    11    5    8 1    
    12    6    7 ar   
    13    8    9 2    
    14    6   43 1    
    15    7   44 1    
    16    8   10 2    
    17    8   11 1    
    18   11   12 1    
    19   11   16 1    
    20   12   13 1    
    21   13   14 1    
    22   12   45 1    
    23   12   46 1    
    24   13   15 1    
    25   16   17 1    
    26   13   47 1    
    27   14   48 1    
    28   14   49 1    
    29   14   50 1    
    30   15   51 1    
    31   15   52 1    
    32   15   53 1    
    33   17   18 1    
    34   16   54 1    
    35   16   55 1    
    36   17   19 1    
    37   19   20 1    
    38   17   56 1    
    39   18   57 1    
    40   19   32 1    
    41   20   21 am   
    42   19   58 1    
    43   21   22 2    
    44   20   59 1    
    45   21   23 1    
    46   23   24 1    
    47   24   25 1    
    48   24   31 1    
    49   25   26 1    
    50   24   60 1    
    51   31   68 1    
    52   26   27 1    
    53   25   61 1    
    54   25   62 1    
    55   27   28 1    
    56   27   31 1    
    57   28   29 1    
    58   27   63 1    
    59   29   30 1    
    60   30   66 1    
    61   30   31 1    
    62   29   64 1    
    63   29   65 1    
    64   30   67 1    
    65   32   38 1    
    66   33   34 ar   
    67   32   69 1    
    68   32   70 1    
    69   33   38 ar   
    70   34   35 ar   
    71   33   71 1    
    72   35   36 ar   
    73   34   72 1    
    74   36   37 ar   
    75   35   73 1    
    76   37   38 ar   
    77   36   74 1    
    78   37   75 1    
@<TRIPOS>SUBSTRUCTURE
     1 017101      1 GROUP   
@<TRIPOS>SET

