#    Name: 6cnk_4_NCT_CAVITY_N1_6
#    Modification time : Fri May 22 19:33:30 2020

@<TRIPOS>MOLECULE
6cnk_4_NCT_CAVITY_N1_6
   83     0     6     0     0
SMALL
NO_CHARGES


@<TRIPOS>ATOM
      1 OG        105.6100  128.4900  166.9400 O.3       1 SER1        0.0000 
      2 OG        104.2600  125.2600  174.3700 O.3       1 SER1        0.0000 
      3 OG        105.6200  125.5400  171.7100 O.3       1 SER1        0.0000 
      4 OG        106.3000  125.6800  170.3800 O.3       1 SER1        0.0000 
      5 OG        106.8900  128.8500  167.6300 O.3       1 SER1        0.0000 
      6 O         104.6000  121.9700  165.7400 O.2       2 ALA2        0.0000 
      7 O         104.9800  120.5200  165.7900 O.2       2 ALA2        0.0000 
      8 O         105.2800  122.1000  164.4100 O.2       2 ALA2        0.0000 
      9 N         102.4700  121.6400  173.0800 N.am      2 ALA2        0.0000 
     10 N         105.4900  123.7800  166.3900 N.am      2 ALA2        0.0000 
     11 N         103.3700  123.4500  173.7300 N.am      2 ALA2        0.0000 
     12 N         103.7500  122.0000  173.7700 N.am      2 ALA2        0.0000 
     13 N         105.7000  125.4500  168.3600 N.am      2 ALA2        0.0000 
     14 N         106.0900  124.0000  168.4100 N.am      2 ALA2        0.0000 
     15 N         106.3800  125.5900  167.0300 N.am      2 ALA2        0.0000 
     16 N         105.3300  123.9500  173.0900 N.am      2 ALA2        0.0000 
     17 N         106.0100  124.0900  171.7600 N.am      2 ALA2        0.0000 
     18 N         105.9200  127.1300  170.3400 N.am      2 ALA2        0.0000 
     19 N         106.6900  124.2300  170.4300 N.am      2 ALA2        0.0000 
     20 N         106.2100  128.7100  168.9600 N.am      2 ALA2        0.0000 
     21 N         106.6000  127.2600  169.0100 N.am      2 ALA2        0.0000 
     22 N         106.9800  125.8200  169.0500 N.am      2 ALA2        0.0000 
     23 N         107.2800  127.4000  167.6800 N.am      2 ALA2        0.0000 
     24 N         106.9000  125.9000  172.4100 N.am      2 ALA2        0.0000 
     25 N         107.5800  126.0400  171.0800 N.am      2 ALA2        0.0000 
     26 N         108.2600  126.1800  169.7500 N.am      2 ALA2        0.0000 
     27 N         108.5600  127.7600  168.3700 N.am      2 ALA2        0.0000 
     28 N         108.9500  123.3700  173.1900 N.am      2 ALA2        0.0000 
     29 N         108.8600  126.4000  171.7700 N.am      2 ALA2        0.0000 
     30 O         109.5400  126.5400  170.4400 O.2       2 ALA2        0.0000 
     31 O         109.9300  125.0900  170.4900 O.2       2 ALA2        0.0000 
     32 N         109.8500  125.1800  173.8400 N.am      2 ALA2        0.0000 
     33 N         110.5300  125.3200  172.5100 N.am      2 ALA2        0.0000 
     34 N         110.9100  123.8700  172.5600 N.am      2 ALA2        0.0000 
     35 OD1       102.6800  123.3200  175.0600 O.co2     3 ASP3        0.0000 
     36 OD1       103.0700  121.8700  175.1000 O.co2     3 ASP3        0.0000 
     37 OD1       104.3500  122.2300  175.8000 O.co2     3 ASP3        0.0000 
     38 CZ        105.9600  122.2400  163.0800 C.ar      4 PHE5        0.0000 
     39 CZ        105.1000  125.2300  166.3400 C.ar      4 PHE5        0.0000 
     40 CZ        105.4000  126.8100  164.9600 C.ar      4 PHE5        0.0000 
     41 CZ        105.7900  125.3600  165.0100 C.ar      4 PHE5        0.0000 
     42 CZ        106.1700  123.9200  165.0600 C.ar      4 PHE5        0.0000 
     43 CZ        106.5600  122.4700  165.1000 C.ar      4 PHE5        0.0000 
     44 CZ        107.6200  121.1600  163.8200 C.ar      4 PHE5        0.0000 
     45 CZ        104.1400  120.5600  173.8200 C.ar      4 PHE5        0.0000 
     46 CZ        104.9300  128.3500  168.2700 C.ar      4 PHE5        0.0000 
     47 CZ        105.3200  126.9000  168.3100 C.ar      4 PHE5        0.0000 
     48 CZ        106.0000  127.0400  166.9800 C.ar      4 PHE5        0.0000 
     49 CZ        106.6800  127.1800  165.6600 C.ar      4 PHE5        0.0000 
     50 CZ        107.0700  125.7300  165.7000 C.ar      4 PHE5        0.0000 
     51 CZ        107.4500  124.2800  165.7500 C.ar      4 PHE5        0.0000 
     52 CZ        105.0300  122.3700  174.4700 C.ar      4 PHE5        0.0000 
     53 CZ        105.4200  120.9200  174.5100 C.ar      4 PHE5        0.0000 
     54 CZ        105.7100  122.5000  173.1400 C.ar      4 PHE5        0.0000 
     55 CZ        107.9600  127.5400  166.3500 C.ar      4 PHE5        0.0000 
     56 CZ        108.3500  126.0900  166.4000 C.ar      4 PHE5        0.0000 
     57 CZ        106.9900  122.8700  173.8300 C.ar      4 PHE5        0.0000 
     58 CZ        107.6700  123.0100  172.5000 C.ar      4 PHE5        0.0000 
     59 CZ        108.9400  126.3200  168.4200 C.ar      4 PHE5        0.0000 
     60 CA        104.8900  123.5500  164.3600 C.3       5 GLY6        0.0000 
     61 CA        105.8800  122.3300  166.4300 C.3       5 GLY6        0.0000 
     62 CA        106.2600  120.8800  166.4800 C.3       5 GLY6        0.0000 
     63 CA        106.9400  121.0200  165.1500 C.3       5 GLY6        0.0000 
     64 CA        106.7700  124.1400  167.0800 C.3       5 GLY6        0.0000 
     65 CA        107.8400  122.8300  165.8000 C.3       5 GLY6        0.0000 
     66 CA        108.2200  121.3800  165.8400 C.3       5 GLY6        0.0000 
     67 CA        108.9000  121.5200  164.5200 C.3       5 GLY6        0.0000 
     68 CA        104.7300  120.7800  175.8400 C.3       5 GLY6        0.0000 
     69 CA        104.6400  123.8200  174.4200 C.3       5 GLY6        0.0000 
     70 CA        107.3700  124.3700  169.1000 C.3       5 GLY6        0.0000 
     71 CA        107.6600  125.9500  167.7300 C.3       5 GLY6        0.0000 
     72 CA        106.2200  125.7700  173.7400 C.3       5 GLY6        0.0000 
     73 CA        106.6100  124.3200  173.7800 C.3       5 GLY6        0.0000 
     74 CA        107.2900  124.4500  172.4500 C.3       5 GLY6        0.0000 
     75 CA        107.9700  124.5900  171.1200 C.3       5 GLY6        0.0000 
     76 CA        108.3500  123.1400  171.1700 C.3       5 GLY6        0.0000 
     77 CA        108.6500  124.7300  169.8000 C.3       5 GLY6        0.0000 
     78 CA        107.5000  126.1300  174.4300 C.3       5 GLY6        0.0000 
     79 CA        108.1800  126.2700  173.1000 C.3       5 GLY6        0.0000 
     80 CA        108.5700  124.8200  173.1500 C.3       5 GLY6        0.0000 
     81 CA        109.6300  123.5100  171.8700 C.3       5 GLY6        0.0000 
     82 DU        105.6600  120.6600  164.4600 H         6 CUB7        0.0000 
     83 DU        109.2500  124.9500  171.8200 H         6 CUB7        0.0000 
@<TRIPOS>BOND
@<TRIPOS>SUBSTRUCTURE
     1 SER1        1 GROUP   
     2 ALA2        6 GROUP   
     3 ASP3       35 GROUP   
     4 PHE5       38 GROUP   
     5 GLY6       60 GROUP   
     6 CUB7       82 GROUP   
@<TRIPOS>SET

