#    Name: 6cnk_3_NCT_CAVITY_N1_4
#    Modification time : Fri May 22 19:33:24 2020

@<TRIPOS>MOLECULE
6cnk_3_NCT_CAVITY_N1_4
   64     0     5     0     0
SMALL
NO_CHARGES


@<TRIPOS>ATOM
      1 OG        116.3400  153.1800  169.9100 O.3       1 SER1        0.0000 
      2 OG        117.0200  153.3100  168.5800 O.3       1 SER1        0.0000 
      3 OG        117.7000  153.4500  167.2500 O.3       1 SER1        0.0000 
      4 OG        118.0900  152.0000  167.3000 O.3       1 SER1        0.0000 
      5 OG        116.9400  153.4000  171.9300 O.3       1 SER1        0.0000 
      6 OG        117.6200  153.5400  170.6000 O.3       1 SER1        0.0000 
      7 OG        118.3000  153.6800  169.2700 O.3       1 SER1        0.0000 
      8 OG        118.9800  153.8200  167.9400 O.3       1 SER1        0.0000 
      9 OG        117.8400  155.2100  172.5800 O.3       1 SER1        0.0000 
     10 OG        118.2200  153.7700  172.6300 O.3       1 SER1        0.0000 
     11 OG        118.6100  152.3200  172.6700 O.3       1 SER1        0.0000 
     12 OG        118.5200  155.3500  171.2500 O.3       1 SER1        0.0000 
     13 OG        119.2900  152.4500  171.3400 O.3       1 SER1        0.0000 
     14 OG        120.5600  155.7600  167.2600 O.3       1 SER1        0.0000 
     15 OG        121.2400  155.9000  165.9300 O.3       1 SER1        0.0000 
     16 OG        119.1200  155.5800  173.2700 O.3       1 SER1        0.0000 
     17 O         114.9800  152.9000  172.5700 O.2       2 ALA2        0.0000 
     18 N         115.9600  154.6300  169.8600 N.am      2 ALA2        0.0000 
     19 N         116.6400  154.7600  168.5300 N.am      2 ALA2        0.0000 
     20 N         115.1900  154.5800  174.5400 N.am      2 ALA2        0.0000 
     21 N         115.8800  154.7100  173.2200 N.am      2 ALA2        0.0000 
     22 N         116.6500  151.8200  173.3100 N.am      2 ALA2        0.0000 
     23 N         116.5600  154.8500  171.8900 N.am      2 ALA2        0.0000 
     24 N         117.2400  154.9900  170.5600 N.am      2 ALA2        0.0000 
     25 N         117.5300  156.5800  169.1800 N.am      2 ALA2        0.0000 
     26 N         117.9200  155.1300  169.2300 N.am      2 ALA2        0.0000 
     27 N         118.9000  153.9000  171.3000 N.am      2 ALA2        0.0000 
     28 N         119.2000  155.4900  169.9200 N.am      2 ALA2        0.0000 
     29 N         119.5800  154.0400  169.9700 N.am      2 ALA2        0.0000 
     30 N         119.8800  155.6300  168.5900 N.am      2 ALA2        0.0000 
     31 N         120.2600  154.1800  168.6400 N.am      2 ALA2        0.0000 
     32 N         119.8000  155.7100  171.9400 N.am      2 ALA2        0.0000 
     33 CZ        116.4200  153.0900  166.5600 C.ar      3 PHE5        0.0000 
     34 CZ        117.6200  156.4900  165.8300 C.ar      3 PHE5        0.0000 
     35 CZ        118.0000  155.0400  165.8700 C.ar      3 PHE5        0.0000 
     36 CZ        118.3900  153.5900  165.9200 C.ar      3 PHE5        0.0000 
     37 CZ        118.7700  152.1400  165.9700 C.ar      3 PHE5        0.0000 
     38 CZ        118.2100  156.7100  167.8500 C.ar      3 PHE5        0.0000 
     39 CZ        119.3700  152.3700  167.9900 C.ar      3 PHE5        0.0000 
     40 CZ        118.9000  156.8500  166.5200 C.ar      3 PHE5        0.0000 
     41 CZ        119.2800  155.4000  166.5700 C.ar      3 PHE5        0.0000 
     42 CZ        119.6700  153.9500  166.6200 C.ar      3 PHE5        0.0000 
     43 CZ        119.9600  155.5400  165.2400 C.ar      3 PHE5        0.0000 
     44 CZ        120.3500  154.0900  165.2900 C.ar      3 PHE5        0.0000 
     45 CZ        117.1600  155.0800  173.9100 C.ar      3 PHE5        0.0000 
     46 CZ        117.5400  153.6300  173.9600 C.ar      3 PHE5        0.0000 
     47 CZ        119.4900  157.0800  168.5400 C.ar      3 PHE5        0.0000 
     48 CZ        120.1800  157.2100  167.2100 C.ar      3 PHE5        0.0000 
     49 CZ        120.9500  154.3200  167.3100 C.ar      3 PHE5        0.0000 
     50 CZ        118.4400  155.4400  174.6000 C.ar      3 PHE5        0.0000 
     51 CZ        118.8200  153.9900  174.6500 C.ar      3 PHE5        0.0000 
     52 CA        115.3600  154.4000  167.8400 C.3       4 GLY6        0.0000 
     53 CA        115.7400  152.9500  167.8900 C.3       4 GLY6        0.0000 
     54 CA        115.6500  155.9900  166.4600 C.3       4 GLY6        0.0000 
     55 CA        116.0400  154.5400  166.5100 C.3       4 GLY6        0.0000 
     56 CA        116.8100  151.6400  166.6100 C.3       4 GLY6        0.0000 
     57 CA        115.2800  154.4900  171.1900 C.3       4 GLY6        0.0000 
     58 CA        115.6600  153.0400  171.2400 C.3       4 GLY6        0.0000 
     59 CA        116.9300  156.3500  167.1600 C.3       4 GLY6        0.0000 
     60 CA        116.2600  153.2600  173.2600 C.3       4 GLY6        0.0000 
     61 CA        117.9300  152.1800  174.0000 C.3       4 GLY6        0.0000 
     62 CA        119.5000  154.1300  173.3200 C.3       4 GLY6        0.0000 
     63 DU        117.3200  154.9000  167.2000 H         5 CUB7        0.0000 
     64 DU        118.6000  155.2600  167.9000 H         5 CUB7        0.0000 
@<TRIPOS>BOND
@<TRIPOS>SUBSTRUCTURE
     1 SER1        1 GROUP   
     2 ALA2       17 GROUP   
     3 PHE5       33 GROUP   
     4 GLY6       52 GROUP   
     5 CUB7       63 GROUP   
@<TRIPOS>SET

