#    Name: 6cnk_4_NCT
#    Modification time : Fri May 22 19:33:30 2020

@<TRIPOS>MOLECULE
6cnk_4_NCT
   12    13     1     0     0
SMALL
NO_CHARGES


@<TRIPOS>ATOM
      1 N1        108.9210  125.6600  171.3640 N.ar      1 NCT402      0.0000 
      2 C1        108.4480  126.0030  170.1420 C.ar      1 NCT402      0.0000 
      3 C2        107.1070  125.7930  169.7510 C.ar      1 NCT402      0.0000 
      4 C3        106.2520  125.2040  170.6760 C.ar      1 NCT402      0.0000 
      5 C4        106.7150  124.8400  171.9390 C.ar      1 NCT402      0.0000 
      6 C5        108.0610  125.0860  172.2450 C.ar      1 NCT402      0.0000 
      7 N2        107.1270  127.5740  168.0580 N.4       1 NCT402      0.0000 
      8 C6        106.6200  126.1880  168.3910 C.3       1 NCT402      0.0000 
      9 C7        107.1680  125.4370  167.2330 C.3       1 NCT402      0.0000 
     10 C8        107.1660  126.3610  166.0400 C.3       1 NCT402      0.0000 
     11 C9        107.1270  127.7370  166.6120 C.3       1 NCT402      0.0000 
     12 C10       106.0330  128.3930  168.5060 C.3       1 NCT402      0.0000 
@<TRIPOS>BOND
     1    1    2 ar   
     2    1    6 ar   
     3    2    3 ar   
     4    3    4 ar   
     5    3    8 1    
     6    4    5 ar   
     7    5    6 ar   
     8    7    8 1    
     9    7   11 1    
    10    7   12 1    
    11    8    9 1    
    12    9   10 1    
    13   10   11 1    
@<TRIPOS>SUBSTRUCTURE
     1 NCT402      1 GROUP   
@<TRIPOS>SET

