#    Name: 6cnk_3_NCT
#    Modification time : Fri May 22 19:33:23 2020

@<TRIPOS>MOLECULE
6cnk_3_NCT
   12    13     1     0     0
SMALL
NO_CHARGES


@<TRIPOS>ATOM
      1 N1        119.0120  152.6010  171.8280 N.ar      1 NCT405      0.0000 
      2 C1        119.2280  153.4600  170.8040 C.ar      1 NCT405      0.0000 
      3 C2        118.1850  154.1090  170.1090 C.ar      1 NCT405      0.0000 
      4 C3        116.8850  153.8340  170.5170 C.ar      1 NCT405      0.0000 
      5 C4        116.6370  152.9540  171.5700 C.ar      1 NCT405      0.0000 
      6 C5        117.7320  152.3560  172.2000 C.ar      1 NCT405      0.0000 
      7 N2        119.8230  155.6800  169.2010 N.4       1 NCT405      0.0000 
      8 C6        118.4690  155.0530  168.9820 C.3       1 NCT405      0.0000 
      9 C7        118.6600  154.4520  167.6200 C.3       1 NCT405      0.0000 
     10 C8        119.5500  155.3820  166.8290 C.3       1 NCT405      0.0000 
     11 C9        120.3860  156.0770  167.8760 C.3       1 NCT405      0.0000 
     12 C10       119.4610  156.9090  169.9110 C.3       1 NCT405      0.0000 
@<TRIPOS>BOND
     1    1    2 ar   
     2    1    6 ar   
     3    2    3 ar   
     4    3    4 ar   
     5    3    8 1    
     6    4    5 ar   
     7    5    6 ar   
     8    7    8 1    
     9    7   11 1    
    10    7   12 1    
    11    8    9 1    
    12    9   10 1    
    13   10   11 1    
@<TRIPOS>SUBSTRUCTURE
     1 NCT405      1 GROUP   
@<TRIPOS>SET

