#    Name: 6swc_1_GNP
#    Modification time : Fri May 22 19:31:03 2020

@<TRIPOS>MOLECULE
6swc_1_GNP
   32    34     1     0     1
SMALL
NO_CHARGES


@<TRIPOS>ATOM
      1 PG        195.3940  118.0560  163.4100 P.3       1 GNP501      0.0000 
      2 O1G       194.6990  118.4080  162.1310 O.co2     1 GNP501      0.0000 
      3 O2G       194.7190  116.8220  164.0110 O.co2     1 GNP501      0.0000 
      4 O3G       195.2780  119.2520  164.3940 O.co2     1 GNP501      0.0000 
      5 N3B       197.0400  117.7200  163.0860 N.3       1 GNP501      0.0000 
      6 PB        197.5900  116.1850  162.8770 P.3       1 GNP501      0.0000 
      7 O1B       197.9000  115.5490  164.2060 O.co2     1 GNP501      0.0000 
      8 O2B       196.5470  115.3720  162.1650 O.co2     1 GNP501      0.0000 
      9 O3A       198.9580  116.2470  161.9720 O.3       1 GNP501      0.0000 
     10 PA        199.1040  117.2150  160.7180 P.3       1 GNP501      0.0000 
     11 O1A       198.8470  116.3660  159.4740 O.co2     1 GNP501      0.0000 
     12 O2A       198.2580  118.4130  160.8660 O.co2     1 GNP501      0.0000 
     13 O5'       200.6230  117.6460  160.7460 O.3       1 GNP501      0.0000 
     14 C5'       201.0120  119.0280  160.5980 C.3       1 GNP501      0.0000 
     15 C4'       201.7760  119.2590  159.3130 C.3       1 GNP501      0.0000 
     16 O4'       202.8400  118.2950  159.1720 O.3       1 GNP501      0.0000 
     17 C3'       200.9710  119.1650  158.0220 C.3       1 GNP501      0.0000 
     18 O3'       201.5220  120.0610  157.0630 O.3       1 GNP501      0.0000 
     19 C2'       201.1350  117.6910  157.6330 C.3       1 GNP501      0.0000 
     20 O2'       201.0250  117.4800  156.2300 O.3       1 GNP501      0.0000 
     21 C1'       202.5630  117.3990  158.1030 C.3       1 GNP501      0.0000 
     22 N9        202.7620  116.0300  158.6030 N.pl3     1 GNP501      0.0000 
     23 C8        201.8400  115.2250  159.2120 C.2       1 GNP501      0.0000 
     24 N7        202.3330  114.0690  159.5870 N.2       1 GNP501      0.0000 
     25 C5        203.6610  114.1270  159.2100 C.2       1 GNP501      0.0000 
     26 C6        204.7290  113.1640  159.3480 C.2       1 GNP501      0.0000 
     27 O6        204.6640  112.0480  159.8480 O.2       1 GNP501      0.0000 
     28 N1        205.9180  113.6370  158.8320 N.am      1 GNP501      0.0000 
     29 C2        206.0930  114.8640  158.2510 C.2       1 GNP501      0.0000 
     30 N2        207.3150  115.1520  157.8050 N.pl3     1 GNP501      0.0000 
     31 N3        205.1170  115.7580  158.1150 N.2       1 GNP501      0.0000 
     32 C4        203.9410  115.3270  158.6070 C.2       1 GNP501      0.0000 
@<TRIPOS>BOND
     1    1    2 ar   
     2    1    3 ar   
     3    1    4 ar   
     4    1    5 1    
     5    5    6 1    
     6    6    7 ar   
     7    6    8 ar   
     8    6    9 1    
     9    9   10 1    
    10   10   11 ar   
    11   10   12 ar   
    12   10   13 1    
    13   13   14 1    
    14   14   15 1    
    15   15   16 1    
    16   15   17 1    
    17   16   21 1    
    18   17   18 1    
    19   17   19 1    
    20   19   20 1    
    21   19   21 1    
    22   21   22 1    
    23   22   23 1    
    24   22   32 1    
    25   23   24 2    
    26   24   25 1    
    27   25   26 1    
    28   25   32 2    
    29   26   27 2    
    30   26   28 am   
    31   28   29 1    
    32   29   30 1    
    33   29   31 2    
    34   31   32 1    
@<TRIPOS>SUBSTRUCTURE
     1 GNP501      1 GROUP   
@<TRIPOS>SET
ATOM$ORANGE STATIC     ATOMS   COLORGROUP SYSTEM 
20 14 14 15 15 17 17 19 19 21 21 23 23 25 25 26 26 29 \
29 32 32 

