#    Name: 6swc_1_GNP_CAVITY_N1_ALL
#    Modification time : Fri May 22 19:31:04 2020

@<TRIPOS>MOLECULE
6swc_1_GNP_CAVITY_N1_ALL
   71     0     7     0     0
SMALL
NO_CHARGES


@<TRIPOS>ATOM
      1 OG        193.9500  116.1100  156.0100 O.3       1 SER1        0.0000 
      2 OG        194.2500  117.9400  154.9800 O.3       1 SER1        0.0000 
      3 OG        195.0700  116.7100  155.2200 O.3       1 SER1        0.0000 
      4 OG        193.3800  116.1200  158.0500 O.3       1 SER1        0.0000 
      5 OG        194.8000  118.5600  156.2300 O.3       1 SER1        0.0000 
      6 OG        197.2700  114.8700  156.9500 O.3       1 SER1        0.0000 
      7 OG        198.4000  115.4700  156.1600 O.3       1 SER1        0.0000 
      8 OG        193.9300  116.7400  159.3000 O.3       1 SER1        0.0000 
      9 OG        195.0500  117.3400  158.5100 O.3       1 SER1        0.0000 
     10 OG        197.8300  115.4800  158.2000 O.3       1 SER1        0.0000 
     11 OG        198.9500  116.0800  157.4100 O.3       1 SER1        0.0000 
     12 OG        198.3800  116.1000  159.4500 O.3       1 SER1        0.0000 
     13 OG        199.5000  116.7000  158.6600 O.3       1 SER1        0.0000 
     14 OG        200.8800  116.0800  160.1500 O.3       1 SER1        0.0000 
     15 N         193.4000  119.8000  158.0300 N.am      2 ALA2        0.0000 
     16 N         195.3500  119.1700  157.4800 N.am      2 ALA2        0.0000 
     17 O         193.6500  118.5800  160.3100 O.2       2 ALA2        0.0000 
     18 N         194.7800  119.1800  159.5200 N.am      2 ALA2        0.0000 
     19 N         195.6000  117.9500  159.7600 N.am      2 ALA2        0.0000 
     20 N         196.7300  118.5500  158.9700 N.am      2 ALA2        0.0000 
     21 N         197.0300  120.3800  157.9400 N.am      2 ALA2        0.0000 
     22 N         197.8500  119.1600  158.1800 N.am      2 ALA2        0.0000 
     23 N         196.1500  118.5700  161.0100 N.am      2 ALA2        0.0000 
     24 N         197.2800  119.1700  160.2200 N.am      2 ALA2        0.0000 
     25 N         196.7100  119.1800  162.2700 N.am      2 ALA2        0.0000 
     26 O         197.5300  117.9500  162.5100 O.2       2 ALA2        0.0000 
     27 N         201.4300  116.7000  161.4100 N.am      2 ALA2        0.0000 
     28 OD1       194.4800  117.3500  160.5500 O.co2     3 ASP3        0.0000 
     29 OD1       196.4300  116.7200  160.0000 O.co2     3 ASP3        0.0000 
     30 OD1       196.9800  117.3400  161.2500 O.co2     3 ASP3        0.0000 
     31 OD1       197.8000  116.1100  161.4900 O.co2     3 ASP3        0.0000 
     32 OD1       195.5800  118.5800  163.0600 O.co2     3 ASP3        0.0000 
     33 OD1       196.4100  117.3500  163.3000 O.co2     3 ASP3        0.0000 
     34 NZ        198.6600  118.5500  161.7200 N.4       4 LYS4        0.0000 
     35 NZ        199.7800  119.1500  160.9300 N.4       4 LYS4        0.0000 
     36 CZ        194.5200  116.1000  153.9600 C.ar      5 PHE5        0.0000 
     37 CA        193.4200  119.1700  154.7400 C.3       6 GLY6        0.0000 
     38 CA        195.9000  115.4800  155.4600 C.3       6 GLY6        0.0000 
     39 CA        192.8500  119.1800  156.7800 C.3       6 GLY6        0.0000 
     40 CA        193.6800  117.9500  157.0200 C.3       6 GLY6        0.0000 
     41 CA        194.5000  116.7300  157.2600 C.3       6 GLY6        0.0000 
     42 CA        193.9700  119.7800  155.9900 C.3       6 GLY6        0.0000 
     43 CA        196.4500  116.1000  156.7100 C.3       6 GLY6        0.0000 
     44 CA        195.1000  120.3900  155.2000 C.3       6 GLY6        0.0000 
     45 CA        193.1000  117.9700  159.0600 C.3       6 GLY6        0.0000 
     46 CA        194.2300  118.5700  158.2700 C.3       6 GLY6        0.0000 
     47 CA        195.8800  116.1100  158.7500 C.3       6 GLY6        0.0000 
     48 CA        194.5300  120.4000  157.2400 C.3       6 GLY6        0.0000 
     49 CA        197.0000  116.7100  157.9600 C.3       6 GLY6        0.0000 
     50 CA        195.6500  121.0000  156.4500 C.3       6 GLY6        0.0000 
     51 CA        196.4800  119.7700  156.6900 C.3       6 GLY6        0.0000 
     52 CA        197.2500  115.5000  160.2400 C.3       6 GLY6        0.0000 
     53 CA        199.7500  115.4800  160.9400 C.3       6 GLY6        0.0000 
     54 CA        202.0000  116.6800  159.3600 C.3       6 GLY6        0.0000 
     55 CA        198.3600  116.7200  162.7500 C.3       6 GLY6        0.0000 
     56 CA        199.4800  117.3200  161.9600 C.3       6 GLY6        0.0000 
     57 CA        200.6100  117.9300  161.1700 C.3       6 GLY6        0.0000 
     58 CA        202.5600  117.3000  160.6200 C.3       6 GLY6        0.0000 
     59 CA        202.2800  119.1400  161.6300 C.3       6 GLY6        0.0000 
     60 DU        195.6200  117.3300  156.4700 H         7 CUB7        0.0000 
     61 DU        195.9200  119.1600  155.4400 H         7 CUB7        0.0000 
     62 DU        197.5700  116.7000  155.9200 H         7 CUB7        0.0000 
     63 DU        196.1800  117.9400  157.7200 H         7 CUB7        0.0000 
     64 DU        197.3000  118.5400  156.9300 H         7 CUB7        0.0000 
     65 DU        198.1300  117.3100  157.1700 H         7 CUB7        0.0000 
     66 DU        197.5500  117.3300  159.2100 H         7 CUB7        0.0000 
     67 DU        198.6800  117.9300  158.4200 H         7 CUB7        0.0000 
     68 DU        198.1000  117.9400  160.4600 H         7 CUB7        0.0000 
     69 DU        198.9300  116.7100  160.7000 H         7 CUB7        0.0000 
     70 DU        199.2300  118.5400  159.6700 H         7 CUB7        0.0000 
     71 DU        200.0500  117.3100  159.9100 H         7 CUB7        0.0000 
@<TRIPOS>BOND
@<TRIPOS>SUBSTRUCTURE
     1 SER1        1 GROUP   
     2 ALA2       15 GROUP   
     3 ASP3       28 GROUP   
     4 LYS4       34 GROUP   
     5 PHE5       36 GROUP   
     6 GLY6       37 GROUP   
     7 CUB7       60 GROUP   
@<TRIPOS>SET

