#    Name: 5yjy_1_FAD
#    Modification time : Fri May 22 19:27:01 2020

@<TRIPOS>MOLECULE
5yjy_1_FAD
   53    58     1     0     1
SMALL
NO_CHARGES


@<TRIPOS>ATOM
      1 PA         16.4950   18.7840   62.8440 P.3       1 FAD601      0.0000 
      2 O1A        15.0290   18.9850   62.5500 O.co2     1 FAD601      0.0000 
      3 O2A        17.2400   17.5850   62.3010 O.co2     1 FAD601      0.0000 
      4 O5B        17.2500   20.1470   62.4520 O.3       1 FAD601      0.0000 
      5 C5B        18.5170   20.5550   62.9250 C.3       1 FAD601      0.0000 
      6 C4B        18.7390   21.9210   62.2950 C.3       1 FAD601      0.0000 
      7 O4B        19.9510   22.5410   62.6990 O.3       1 FAD601      0.0000 
      8 C3B        18.8560   21.8120   60.7860 C.3       1 FAD601      0.0000 
      9 O3B        18.4570   23.0330   60.1540 O.3       1 FAD601      0.0000 
     10 C2B        20.3260   21.6490   60.5900 C.3       1 FAD601      0.0000 
     11 O2B        20.6360   21.7930   59.2010 O.3       1 FAD601      0.0000 
     12 C1B        20.7530   22.7400   61.5540 C.3       1 FAD601      0.0000 
     13 N9A        22.0450   22.6220   62.1520 N.pl3     1 FAD601      0.0000 
     14 C8A        22.6990   21.5110   62.4180 C.2       1 FAD601      0.0000 
     15 N7A        23.8600   21.8070   63.0250 N.2       1 FAD601      0.0000 
     16 C5A        23.9240   23.1260   63.1600 C.ar      1 FAD601      0.0000 
     17 C6A        24.8770   24.1090   63.7280 C.ar      1 FAD601      0.0000 
     18 N6A        26.0510   23.7080   64.2920 N.pl3     1 FAD601      0.0000 
     19 N1A        24.5400   25.4260   63.6770 N.ar      1 FAD601      0.0000 
     20 C2A        23.3750   25.8250   63.1310 C.ar      1 FAD601      0.0000 
     21 N3A        22.4850   24.9530   62.5930 N.ar      1 FAD601      0.0000 
     22 C4A        22.7030   23.6380   62.5850 C.ar      1 FAD601      0.0000 
     23 N1         10.3760   11.1990   63.7680 N.2       1 FAD601      0.0000 
     24 C2          9.0670   10.8690   63.8360 C.2       1 FAD601      0.0000 
     25 O2          8.4460   11.0860   64.9010 O.2       1 FAD601      0.0000 
     26 N3          8.3840   10.3160   62.8140 N.am      1 FAD601      0.0000 
     27 C4          8.9370   10.0260   61.6460 C.2       1 FAD601      0.0000 
     28 O4          8.2700    9.5000   60.7210 O.2       1 FAD601      0.0000 
     29 C4X        10.3660   10.3470   61.5200 C.2       1 FAD601      0.0000 
     30 N5         11.0090   10.1100   60.3860 N.2       1 FAD601      0.0000 
     31 C5X        12.3130   10.3970   60.2480 C.ar      1 FAD601      0.0000 
     32 C6         12.8960   10.1130   59.0320 C.ar      1 FAD601      0.0000 
     33 C7         14.2310   10.3890   58.8350 C.ar      1 FAD601      0.0000 
     34 C7M        14.8600   10.0770   57.5040 C.3       1 FAD601      0.0000 
     35 C8         15.0260   10.9970   59.9280 C.ar      1 FAD601      0.0000 
     36 C8M        16.4690   11.3110   59.6810 C.3       1 FAD601      0.0000 
     37 C9         14.4480   11.2880   61.1490 C.ar      1 FAD601      0.0000 
     38 C9A        13.1040   10.9960   61.3500 C.ar      1 FAD601      0.0000 
     39 N10        12.4350   11.2680   62.5540 N.pl3     1 FAD601      0.0000 
     40 C10        11.0710   10.9520   62.6560 C.2       1 FAD601      0.0000 
     41 C1'        13.1310   11.8710   63.6940 C.3       1 FAD601      0.0000 
     42 C2'        13.0320   13.3790   63.6360 C.3       1 FAD601      0.0000 
     43 O2'        13.0070   13.8540   62.2910 O.3       1 FAD601      0.0000 
     44 C3'        14.2130   14.0440   64.3130 C.3       1 FAD601      0.0000 
     45 O3'        14.4400   13.5460   65.6430 O.3       1 FAD601      0.0000 
     46 C4'        13.9150   15.5430   64.2050 C.3       1 FAD601      0.0000 
     47 O4'        14.2850   15.9160   62.8680 O.3       1 FAD601      0.0000 
     48 C5'        14.6220   16.4550   65.2120 C.3       1 FAD601      0.0000 
     49 O5'        14.3750   17.8330   64.8790 O.3       1 FAD601      0.0000 
     50 P          15.3600   18.9660   65.4210 P.3       1 FAD601      0.0000 
     51 O1P        14.6650   20.2920   65.2500 O.co2     1 FAD601      0.0000 
     52 O2P        15.9650   18.5000   66.7520 O.co2     1 FAD601      0.0000 
     53 O3P        16.6240   18.8220   64.4330 O.3       1 FAD601      0.0000 
@<TRIPOS>BOND
     1    1    2 ar   
     2    1    3 ar   
     3    1    4 1    
     4    1   53 1    
     5    4    5 1    
     6    5    6 1    
     7    6    7 1    
     8    6    8 1    
     9    7   12 1    
    10    8    9 1    
    11    8   10 1    
    12   10   11 1    
    13   10   12 1    
    14   12   13 1    
    15   13   14 1    
    16   13   22 1    
    17   14   15 2    
    18   15   16 1    
    19   16   17 ar   
    20   16   22 ar   
    21   17   18 1    
    22   17   19 ar   
    23   19   20 ar   
    24   20   21 ar   
    25   21   22 ar   
    26   23   24 1    
    27   23   40 2    
    28   24   25 2    
    29   24   26 am   
    30   26   27 am   
    31   27   28 2    
    32   27   29 1    
    33   29   30 2    
    34   29   40 1    
    35   30   31 1    
    36   31   32 ar   
    37   31   38 ar   
    38   32   33 ar   
    39   33   34 1    
    40   33   35 ar   
    41   35   36 1    
    42   35   37 ar   
    43   37   38 ar   
    44   38   39 1    
    45   39   40 1    
    46   39   41 1    
    47   41   42 1    
    48   42   43 1    
    49   42   44 1    
    50   44   45 1    
    51   44   46 1    
    52   46   47 1    
    53   46   48 1    
    54   48   49 1    
    55   49   50 1    
    56   50   51 ar   
    57   50   52 ar   
    58   50   53 1    
@<TRIPOS>SUBSTRUCTURE
     1 FAD601      1 GROUP   
@<TRIPOS>SET
ATOM$ORANGE STATIC     ATOMS   COLORGROUP SYSTEM 
54 5 5 6 6 8 8 10 10 12 12 14 14 16 16 17 17 20 \
20 22 22 24 24 27 27 29 29 31 31 32 32 33 33 34 34 35 \
35 36 36 37 37 38 38 40 40 41 41 42 42 44 44 46 46 48 \
48 

