#    Name: 5yjy_2_FAD
#    Modification time : Fri May 22 19:27:07 2020

@<TRIPOS>MOLECULE
5yjy_2_FAD
   53    58     1     0     1
SMALL
NO_CHARGES


@<TRIPOS>ATOM
      1 PA         19.1430   16.2730   18.6620 P.3       1 FAD601      0.0000 
      2 O1A        17.6380   16.3520   18.9390 O.co2     1 FAD601      0.0000 
      3 O2A        20.1810   17.1220   19.3770 O.co2     1 FAD601      0.0000 
      4 O5B        19.6510   14.7910   18.8650 O.3       1 FAD601      0.0000 
      5 C5B        21.0240   14.5570   18.8680 C.3       1 FAD601      0.0000 
      6 C4B        21.1210   13.3310   19.7090 C.3       1 FAD601      0.0000 
      7 O4B        22.3690   12.6830   19.5740 O.3       1 FAD601      0.0000 
      8 C3B        21.0040   13.7240   21.1520 C.3       1 FAD601      0.0000 
      9 O3B        20.3110   12.6870   21.8450 O.3       1 FAD601      0.0000 
     10 C2B        22.4380   13.8010   21.6040 C.3       1 FAD601      0.0000 
     11 O2B        22.5020   13.6370   23.0170 O.3       1 FAD601      0.0000 
     12 C1B        23.0510   12.6510   20.8330 C.3       1 FAD601      0.0000 
     13 N9A        24.4820   12.7120   20.4590 N.pl3     1 FAD601      0.0000 
     14 C8A        25.2880   13.7890   20.3150 C.2       1 FAD601      0.0000 
     15 N7A        26.5290   13.4150   19.8970 N.2       1 FAD601      0.0000 
     16 C5A        26.5140   12.0810   19.7600 C.ar      1 FAD601      0.0000 
     17 C6A        27.4800   11.0400   19.3620 C.ar      1 FAD601      0.0000 
     18 N6A        28.7320   11.3680   19.0180 N.pl3     1 FAD601      0.0000 
     19 N1A        27.0740    9.7510   19.3590 N.ar      1 FAD601      0.0000 
     20 C2A        25.8160    9.3950   19.7020 C.ar      1 FAD601      0.0000 
     21 N3A        24.8670   10.2890   20.0720 N.ar      1 FAD601      0.0000 
     22 C4A        25.1620   11.6200   20.1200 C.ar      1 FAD601      0.0000 
     23 N1         12.8990   23.2870   17.1720 N.2       1 FAD601      0.0000 
     24 C2         11.5960   23.4400   16.8030 C.2       1 FAD601      0.0000 
     25 O2         11.2220   23.0380   15.6630 O.2       1 FAD601      0.0000 
     26 N3         10.6970   24.0200   17.6370 N.am      1 FAD601      0.0000 
     27 C4         10.9980   24.4910   18.8600 C.2       1 FAD601      0.0000 
     28 O4         10.1570   25.0260   19.6090 O.2       1 FAD601      0.0000 
     29 C4X        12.3850   24.3750   19.3050 C.2       1 FAD601      0.0000 
     30 N5         12.7230   24.8260   20.5140 N.2       1 FAD601      0.0000 
     31 C5X        13.9990   24.6850   20.9220 C.ar      1 FAD601      0.0000 
     32 C6         14.3450   25.1410   22.1860 C.ar      1 FAD601      0.0000 
     33 C7         15.6620   25.0120   22.6220 C.ar      1 FAD601      0.0000 
     34 C7M        16.0100   25.5430   23.9790 C.3       1 FAD601      0.0000 
     35 C8         16.7100   24.3750   21.7640 C.ar      1 FAD601      0.0000 
     36 C8M        18.1470   24.2190   22.2050 C.3       1 FAD601      0.0000 
     37 C9         16.3620   23.9210   20.5030 C.ar      1 FAD601      0.0000 
     38 C9A        15.0480   24.0520   20.0320 C.ar      1 FAD601      0.0000 
     39 N10        14.6980   23.5850   18.7400 N.pl3     1 FAD601      0.0000 
     40 C10        13.3500   23.7330   18.3680 C.2       1 FAD601      0.0000 
     41 C1'        15.6780   22.9720   17.8310 C.3       1 FAD601      0.0000 
     42 C2'        15.6860   21.4670   17.9180 C.3       1 FAD601      0.0000 
     43 O2'        15.8000   21.0370   19.2750 O.3       1 FAD601      0.0000 
     44 C3'        16.8150   20.8320   17.1150 C.3       1 FAD601      0.0000 
     45 O3'        16.7670   21.2640   15.7440 O.3       1 FAD601      0.0000 
     46 C4'        16.5970   19.3230   17.2460 C.3       1 FAD601      0.0000 
     47 O4'        17.0050   18.8330   18.5380 O.3       1 FAD601      0.0000 
     48 C5'        17.2990   18.5090   16.1880 C.3       1 FAD601      0.0000 
     49 O5'        16.9950   17.1550   16.4540 O.3       1 FAD601      0.0000 
     50 P          18.1320   16.1300   16.0470 P.3       1 FAD601      0.0000 
     51 O1P        17.6050   14.7360   16.2930 O.co2     1 FAD601      0.0000 
     52 O2P        18.6270   16.6210   14.7120 O.co2     1 FAD601      0.0000 
     53 O3P        19.3410   16.4250   17.0750 O.3       1 FAD601      0.0000 
@<TRIPOS>BOND
     1    1    2 ar   
     2    1    3 ar   
     3    1    4 1    
     4    1   53 1    
     5    4    5 1    
     6    5    6 1    
     7    6    7 1    
     8    6    8 1    
     9    7   12 1    
    10    8    9 1    
    11    8   10 1    
    12   10   11 1    
    13   10   12 1    
    14   12   13 1    
    15   13   14 1    
    16   13   22 1    
    17   14   15 2    
    18   15   16 1    
    19   16   17 ar   
    20   16   22 ar   
    21   17   18 1    
    22   17   19 ar   
    23   19   20 ar   
    24   20   21 ar   
    25   21   22 ar   
    26   23   24 1    
    27   23   40 2    
    28   24   25 2    
    29   24   26 am   
    30   26   27 am   
    31   27   28 2    
    32   27   29 1    
    33   29   30 2    
    34   29   40 1    
    35   30   31 1    
    36   31   32 ar   
    37   31   38 ar   
    38   32   33 ar   
    39   33   34 1    
    40   33   35 ar   
    41   35   36 1    
    42   35   37 ar   
    43   37   38 ar   
    44   38   39 1    
    45   39   40 1    
    46   39   41 1    
    47   41   42 1    
    48   42   43 1    
    49   42   44 1    
    50   44   45 1    
    51   44   46 1    
    52   46   47 1    
    53   46   48 1    
    54   48   49 1    
    55   49   50 1    
    56   50   51 ar   
    57   50   52 ar   
    58   50   53 1    
@<TRIPOS>SUBSTRUCTURE
     1 FAD601      1 GROUP   
@<TRIPOS>SET
ATOM$ORANGE STATIC     ATOMS   COLORGROUP SYSTEM 
54 5 5 6 6 8 8 10 10 12 12 14 14 16 16 17 17 20 \
20 22 22 24 24 27 27 29 29 31 31 32 32 33 33 34 34 35 \
35 36 36 37 37 38 38 40 40 41 41 42 42 44 44 46 46 48 \
48 

