#    Name: 6ng1_1_H4B_CAVITY_N1_8
#    Modification time : Fri May 22 19:29:18 2020

@<TRIPOS>MOLECULE
6ng1_1_H4B_CAVITY_N1_8
   76     0     6     0     0
SMALL
NO_CHARGES


@<TRIPOS>ATOM
      1 OG        127.1200  250.0400  347.0500 O.3       1 SER1        0.0000 
      2 OG        129.7200  248.9100  350.2000 O.3       1 SER1        0.0000 
      3 OG        130.1000  249.5000  351.5300 O.3       1 SER1        0.0000 
      4 O         122.6600  253.4700  343.3900 O.2       2 ALA2        0.0000 
      5 N         122.4700  251.5700  344.3000 N.am      2 ALA2        0.0000 
      6 N         123.0400  254.0700  344.7200 N.am      2 ALA2        0.0000 
      7 O         120.8000  252.5600  346.0300 O.2       2 ALA2        0.0000 
      8 N         123.9700  252.9100  344.9700 N.am      2 ALA2        0.0000 
      9 N         122.8500  252.1600  345.6200 N.am      2 ALA2        0.0000 
     10 O         120.6100  250.6500  346.9400 O.2       2 ALA2        0.0000 
     11 N         124.8900  251.7600  345.2200 N.am      2 ALA2        0.0000 
     12 O         122.1100  252.0000  347.6100 O.2       2 ALA2        0.0000 
     13 N         129.9200  250.8200  349.2900 N.am      2 ALA2        0.0000 
     14 N         128.8000  250.0600  349.9500 N.am      2 ALA2        0.0000 
     15 N         130.3000  251.4100  350.6200 N.am      2 ALA2        0.0000 
     16 OD1       123.0300  250.8400  347.8600 O.co2     3 ASP3        0.0000 
     17 OD1       121.9100  250.0900  348.5100 O.co2     3 ASP3        0.0000 
     18 OD1       120.7900  249.3400  349.1700 O.co2     3 ASP3        0.0000 
     19 OD1       125.0700  250.4400  347.4500 O.co2     3 ASP3        0.0000 
     20 OD1       124.3300  250.2800  349.4300 O.co2     3 ASP3        0.0000 
     21 OD1       120.9700  248.0200  351.4000 O.co2     3 ASP3        0.0000 
     22 OD1       126.3800  249.8800  349.0300 O.co2     3 ASP3        0.0000 
     23 OD1       128.4200  249.4700  348.6200 O.co2     3 ASP3        0.0000 
     24 OD1       126.7500  250.4700  350.3500 O.co2     3 ASP3        0.0000 
     25 OD1       125.6300  249.7100  351.0100 O.co2     3 ASP3        0.0000 
     26 OD1       128.2400  248.5900  354.1600 O.co2     3 ASP3        0.0000 
     27 OD1       127.6900  250.3300  355.2400 O.co2     3 ASP3        0.0000 
     28 CZ        121.3500  250.8100  344.9500 C.ar      4 PHE5        0.0000 
     29 CZ        120.2300  250.0600  345.6100 C.ar      4 PHE5        0.0000 
     30 CZ        121.7300  251.4100  346.2800 C.ar      4 PHE5        0.0000 
     31 CZ        119.4900  249.9000  347.5900 C.ar      4 PHE5        0.0000 
     32 CZ        123.7700  251.0000  345.8700 C.ar      4 PHE5        0.0000 
     33 CZ        122.6500  250.2500  346.5300 C.ar      4 PHE5        0.0000 
     34 CZ        121.5300  249.5000  347.1900 C.ar      4 PHE5        0.0000 
     35 CZ        120.4100  248.7400  347.8400 C.ar      4 PHE5        0.0000 
     36 CZ        120.9900  251.2400  348.2600 C.ar      4 PHE5        0.0000 
     37 CZ        119.8700  250.4900  348.9200 C.ar      4 PHE5        0.0000 
     38 CZ        119.6700  248.5800  349.8200 C.ar      4 PHE5        0.0000 
     39 CZ        122.4800  252.5900  348.9300 C.ar      4 PHE5        0.0000 
     40 CZ        122.2900  250.6800  349.8400 C.ar      4 PHE5        0.0000 
     41 CZ        121.1700  249.9300  350.4900 C.ar      4 PHE5        0.0000 
     42 CZ        120.0500  249.1700  351.1500 C.ar      4 PHE5        0.0000 
     43 CZ        129.3700  252.5600  350.3700 C.ar      4 PHE5        0.0000 
     44 CZ        128.8300  254.3100  351.4400 C.ar      4 PHE5        0.0000 
     45 CZ        127.7100  253.5600  352.1000 C.ar      4 PHE5        0.0000 
     46 CZ        129.7500  253.1500  351.6900 C.ar      4 PHE5        0.0000 
     47 CA        121.5400  252.7200  344.0500 C.3       5 GLY6        0.0000 
     48 CA        120.4200  251.9700  344.7000 C.3       5 GLY6        0.0000 
     49 CA        121.0000  254.4700  345.1200 C.3       5 GLY6        0.0000 
     50 CA        121.9200  253.3100  345.3700 C.3       5 GLY6        0.0000 
     51 CA        122.3000  253.9000  346.7000 C.3       5 GLY6        0.0000 
     52 CA        123.2300  252.7500  346.9500 C.3       5 GLY6        0.0000 
     53 CA        124.1500  251.5900  347.2000 C.3       5 GLY6        0.0000 
     54 CA        126.1900  251.1900  346.8000 C.3       5 GLY6        0.0000 
     55 CA        123.4100  251.4300  349.1800 C.3       5 GLY6        0.0000 
     56 CA        126.5700  251.7800  348.1200 C.3       5 GLY6        0.0000 
     57 CA        125.4500  251.0300  348.7800 C.3       5 GLY6        0.0000 
     58 CA        127.4900  250.6300  348.3700 C.3       5 GLY6        0.0000 
     59 CA        123.7900  252.0200  350.5100 C.3       5 GLY6        0.0000 
     60 CA        126.9500  252.3700  349.4500 C.3       5 GLY6        0.0000 
     61 CA        125.8300  251.6200  350.1000 C.3       5 GLY6        0.0000 
     62 CA        124.7100  250.8700  350.7600 C.3       5 GLY6        0.0000 
     63 CA        128.9900  251.9700  349.0400 C.3       5 GLY6        0.0000 
     64 CA        127.8700  251.2200  349.7000 C.3       5 GLY6        0.0000 
     65 CA        127.3300  252.9700  350.7700 C.3       5 GLY6        0.0000 
     66 CA        126.2100  252.2100  351.4300 C.3       5 GLY6        0.0000 
     67 CA        129.3600  249.3400  353.5100 C.3       5 GLY6        0.0000 
     68 DU        128.2500  251.8100  351.0200 H         6 CUB7        0.0000 
     69 DU        129.1800  250.6600  351.2700 H         6 CUB7        0.0000 
     70 DU        128.0600  249.9000  351.9300 H         6 CUB7        0.0000 
     71 DU        126.9400  249.1500  352.5900 H         6 CUB7        0.0000 
     72 DU        126.5900  252.8000  352.7500 H         6 CUB7        0.0000 
     73 DU        128.6300  252.4000  352.3500 H         6 CUB7        0.0000 
     74 DU        129.5600  251.2500  352.6000 H         6 CUB7        0.0000 
     75 DU        128.4400  250.4900  353.2600 H         6 CUB7        0.0000 
     76 DU        127.3200  249.7400  353.9100 H         6 CUB7        0.0000 
@<TRIPOS>BOND
@<TRIPOS>SUBSTRUCTURE
     1 SER1        1 GROUP   
     2 ALA2        4 GROUP   
     3 ASP3       16 GROUP   
     4 PHE5       28 GROUP   
     5 GLY6       47 GROUP   
     6 CUB7       68 GROUP   
@<TRIPOS>SET

