#    Name: 6ng1_1_H4B_CAVITY_N1_12
#    Modification time : Fri May 22 19:29:18 2020

@<TRIPOS>MOLECULE
6ng1_1_H4B_CAVITY_N1_12
  105     0     7     0     0
SMALL
NO_CHARGES


@<TRIPOS>ATOM
      1 OG        127.1200  250.0400  347.0500 O.3       1 SER1        0.0000 
      2 OG        130.8400  249.6600  349.5400 O.3       1 SER1        0.0000 
      3 OG        129.7200  248.9100  350.2000 O.3       1 SER1        0.0000 
      4 OG        131.2200  250.2500  350.8700 O.3       1 SER1        0.0000 
      5 OG        130.1000  249.5000  351.5300 O.3       1 SER1        0.0000 
      6 O         122.6600  253.4700  343.3900 O.2       2 ALA2        0.0000 
      7 N         122.4700  251.5700  344.3000 N.am      2 ALA2        0.0000 
      8 N         123.0400  254.0700  344.7200 N.am      2 ALA2        0.0000 
      9 O         120.8000  252.5600  346.0300 O.2       2 ALA2        0.0000 
     10 N         123.9700  252.9100  344.9700 N.am      2 ALA2        0.0000 
     11 N         122.8500  252.1600  345.6200 N.am      2 ALA2        0.0000 
     12 O         120.6100  250.6500  346.9400 O.2       2 ALA2        0.0000 
     13 N         124.8900  251.7600  345.2200 N.am      2 ALA2        0.0000 
     14 O         122.1100  252.0000  347.6100 O.2       2 ALA2        0.0000 
     15 N         129.9200  250.8200  349.2900 N.am      2 ALA2        0.0000 
     16 N         128.8000  250.0600  349.9500 N.am      2 ALA2        0.0000 
     17 N         132.5300  252.9100  349.3100 N.am      2 ALA2        0.0000 
     18 N         131.4200  252.1600  349.9600 N.am      2 ALA2        0.0000 
     19 N         130.3000  251.4100  350.6200 N.am      2 ALA2        0.0000 
     20 N         132.3400  251.0100  350.2100 N.am      2 ALA2        0.0000 
     21 N         131.9800  251.4400  353.5200 N.am      2 ALA2        0.0000 
     22 OD1       123.0300  250.8400  347.8600 O.co2     3 ASP3        0.0000 
     23 OD1       121.9100  250.0900  348.5100 O.co2     3 ASP3        0.0000 
     24 OD1       120.7900  249.3400  349.1700 O.co2     3 ASP3        0.0000 
     25 OD1       125.0700  250.4400  347.4500 O.co2     3 ASP3        0.0000 
     26 OD1       124.3300  250.2800  349.4300 O.co2     3 ASP3        0.0000 
     27 OD1       120.9700  248.0200  351.4000 O.co2     3 ASP3        0.0000 
     28 OD1       126.3800  249.8800  349.0300 O.co2     3 ASP3        0.0000 
     29 OD1       128.4200  249.4700  348.6200 O.co2     3 ASP3        0.0000 
     30 OD1       126.7500  250.4700  350.3500 O.co2     3 ASP3        0.0000 
     31 OD1       125.6300  249.7100  351.0100 O.co2     3 ASP3        0.0000 
     32 OD1       128.2400  248.5900  354.1600 O.co2     3 ASP3        0.0000 
     33 OD1       127.6900  250.3300  355.2400 O.co2     3 ASP3        0.0000 
     34 OD1       128.6200  249.1800  355.4900 O.co2     3 ASP3        0.0000 
     35 OD1       127.1500  252.0800  356.3100 O.co2     3 ASP3        0.0000 
     36 OD1       129.1900  251.6800  355.9100 O.co2     3 ASP3        0.0000 
     37 OD1       128.0700  250.9200  356.5600 O.co2     3 ASP3        0.0000 
     38 NZ        132.9100  253.5000  350.6300 N.4       4 LYS4        0.0000 
     39 NZ        133.8400  252.3500  350.8800 N.4       4 LYS4        0.0000 
     40 CZ        121.3500  250.8100  344.9500 C.ar      5 PHE5        0.0000 
     41 CZ        120.2300  250.0600  345.6100 C.ar      5 PHE5        0.0000 
     42 CZ        121.7300  251.4100  346.2800 C.ar      5 PHE5        0.0000 
     43 CZ        119.4900  249.9000  347.5900 C.ar      5 PHE5        0.0000 
     44 CZ        123.7700  251.0000  345.8700 C.ar      5 PHE5        0.0000 
     45 CZ        122.6500  250.2500  346.5300 C.ar      5 PHE5        0.0000 
     46 CZ        121.5300  249.5000  347.1900 C.ar      5 PHE5        0.0000 
     47 CZ        120.4100  248.7400  347.8400 C.ar      5 PHE5        0.0000 
     48 CZ        120.9900  251.2400  348.2600 C.ar      5 PHE5        0.0000 
     49 CZ        119.8700  250.4900  348.9200 C.ar      5 PHE5        0.0000 
     50 CZ        119.6700  248.5800  349.8200 C.ar      5 PHE5        0.0000 
     51 CZ        122.4800  252.5900  348.9300 C.ar      5 PHE5        0.0000 
     52 CZ        122.2900  250.6800  349.8400 C.ar      5 PHE5        0.0000 
     53 CZ        121.1700  249.9300  350.4900 C.ar      5 PHE5        0.0000 
     54 CZ        120.0500  249.1700  351.1500 C.ar      5 PHE5        0.0000 
     55 CZ        130.4900  253.3200  349.7100 C.ar      5 PHE5        0.0000 
     56 CZ        129.3700  252.5600  350.3700 C.ar      5 PHE5        0.0000 
     57 CZ        128.8300  254.3100  351.4400 C.ar      5 PHE5        0.0000 
     58 CZ        127.7100  253.5600  352.1000 C.ar      5 PHE5        0.0000 
     59 CZ        131.9900  254.6600  350.3800 C.ar      5 PHE5        0.0000 
     60 CZ        130.8700  253.9100  351.0400 C.ar      5 PHE5        0.0000 
     61 CZ        129.7500  253.1500  351.6900 C.ar      5 PHE5        0.0000 
     62 CA        121.5400  252.7200  344.0500 C.3       6 GLY6        0.0000 
     63 CA        120.4200  251.9700  344.7000 C.3       6 GLY6        0.0000 
     64 CA        121.0000  254.4700  345.1200 C.3       6 GLY6        0.0000 
     65 CA        121.9200  253.3100  345.3700 C.3       6 GLY6        0.0000 
     66 CA        122.3000  253.9000  346.7000 C.3       6 GLY6        0.0000 
     67 CA        123.2300  252.7500  346.9500 C.3       6 GLY6        0.0000 
     68 CA        124.1500  251.5900  347.2000 C.3       6 GLY6        0.0000 
     69 CA        126.1900  251.1900  346.8000 C.3       6 GLY6        0.0000 
     70 CA        123.4100  251.4300  349.1800 C.3       6 GLY6        0.0000 
     71 CA        126.5700  251.7800  348.1200 C.3       6 GLY6        0.0000 
     72 CA        125.4500  251.0300  348.7800 C.3       6 GLY6        0.0000 
     73 CA        127.4900  250.6300  348.3700 C.3       6 GLY6        0.0000 
     74 CA        123.7900  252.0200  350.5100 C.3       6 GLY6        0.0000 
     75 CA        126.9500  252.3700  349.4500 C.3       6 GLY6        0.0000 
     76 CA        125.8300  251.6200  350.1000 C.3       6 GLY6        0.0000 
     77 CA        124.7100  250.8700  350.7600 C.3       6 GLY6        0.0000 
     78 CA        128.9900  251.9700  349.0400 C.3       6 GLY6        0.0000 
     79 CA        127.8700  251.2200  349.7000 C.3       6 GLY6        0.0000 
     80 CA        127.3300  252.9700  350.7700 C.3       6 GLY6        0.0000 
     81 CA        126.2100  252.2100  351.4300 C.3       6 GLY6        0.0000 
     82 CA        130.4800  250.0900  352.8500 C.3       6 GLY6        0.0000 
     83 CA        129.3600  249.3400  353.5100 C.3       6 GLY6        0.0000 
     84 CA        130.8600  250.6800  354.1800 C.3       6 GLY6        0.0000 
     85 CA        129.7400  249.9300  354.8300 C.3       6 GLY6        0.0000 
     86 CA        130.1200  250.5200  356.1600 C.3       6 GLY6        0.0000 
     87 DU        128.2500  251.8100  351.0200 H         7 CUB7        0.0000 
     88 DU        129.1800  250.6600  351.2700 H         7 CUB7        0.0000 
     89 DU        128.0600  249.9000  351.9300 H         7 CUB7        0.0000 
     90 DU        126.9400  249.1500  352.5900 H         7 CUB7        0.0000 
     91 DU        126.5900  252.8000  352.7500 H         7 CUB7        0.0000 
     92 DU        128.6300  252.4000  352.3500 H         7 CUB7        0.0000 
     93 DU        131.7900  252.7500  351.2900 H         7 CUB7        0.0000 
     94 DU        130.6700  252.0000  351.9400 H         7 CUB7        0.0000 
     95 DU        129.5600  251.2500  352.6000 H         7 CUB7        0.0000 
     96 DU        128.4400  250.4900  353.2600 H         7 CUB7        0.0000 
     97 DU        127.3200  249.7400  353.9100 H         7 CUB7        0.0000 
     98 DU        132.7200  251.6000  351.5400 H         7 CUB7        0.0000 
     99 DU        131.6000  250.8400  352.2000 H         7 CUB7        0.0000 
    100 DU        130.1300  253.7500  353.0200 H         7 CUB7        0.0000 
    101 DU        132.1700  253.3400  352.6100 H         7 CUB7        0.0000 
    102 DU        131.0500  252.5900  353.2700 H         7 CUB7        0.0000 
    103 DU        129.9300  251.8400  353.9300 H         7 CUB7        0.0000 
    104 DU        128.8100  251.0800  354.5800 H         7 CUB7        0.0000 
    105 DU        130.3100  252.4300  355.2500 H         7 CUB7        0.0000 
@<TRIPOS>BOND
@<TRIPOS>SUBSTRUCTURE
     1 SER1        1 GROUP   
     2 ALA2        6 GROUP   
     3 ASP3       22 GROUP   
     4 LYS4       38 GROUP   
     5 PHE5       40 GROUP   
     6 GLY6       62 GROUP   
     7 CUB7       87 GROUP   
@<TRIPOS>SET

