#    Name: 6ng1_1_H4B
#    Modification time : Fri May 22 19:29:17 2020

@<TRIPOS>MOLECULE
6ng1_1_H4B
   17    18     1     0     1
SMALL
NO_CHARGES


@<TRIPOS>ATOM
      1 N1        119.3470  249.6360  347.4010 N.2       1 H4B802      0.0000 
      2 C2        119.4540  249.2370  348.6890 C.2       1 H4B802      0.0000 
      3 N2        118.4190  248.6070  349.2960 N.pl3     1 H4B802      0.0000 
      4 N3        120.5960  249.4500  349.3810 N.am      1 H4B802      0.0000 
      5 C4        121.6490  250.0650  348.8080 C.2       1 H4B802      0.0000 
      6 O4        122.6870  250.2480  349.4770 O.2       1 H4B802      0.0000 
      7 C4A       121.5550  250.4920  347.4910 C.2       1 H4B802      0.0000 
      8 C8A       120.3790  250.2650  346.7910 C.2       1 H4B802      0.0000 
      9 N5        122.5800  251.1180  346.8740 N.3       1 H4B802      0.0000 
     10 N8        120.2690  250.6720  345.4980 N.pl3     1 H4B802      0.0000 
     11 C6        122.2500  252.0110  345.7750 C.3       1 H4B802      0.0000 
     12 C7        121.4180  251.2290  344.7790 C.3       1 H4B802      0.0000 
     13 C9        123.4840  252.6560  345.1270 C.3       1 H4B802      0.0000 
     14 O9        124.4240  251.6640  344.6830 O.3       1 H4B802      0.0000 
     15 C10       123.0620  253.5410  343.9590 C.3       1 H4B802      0.0000 
     16 C11       124.2400  254.2700  343.3040 C.3       1 H4B802      0.0000 
     17 O10       122.1140  254.5110  344.4160 O.3       1 H4B802      0.0000 
@<TRIPOS>BOND
     1    1    2 2    
     2    1    8 1    
     3    2    3 1    
     4    2    4 1    
     5    4    5 am   
     6    5    6 2    
     7    5    7 1    
     8    7    8 2    
     9    7    9 1    
    10    8   10 1    
    11    9   11 1    
    12   10   12 1    
    13   11   12 1    
    14   11   13 1    
    15   13   14 1    
    16   13   15 1    
    17   15   16 1    
    18   15   17 1    
@<TRIPOS>SUBSTRUCTURE
     1 H4B802      1 GROUP   
@<TRIPOS>SET
ATOM$ORANGE STATIC     ATOMS   COLORGROUP SYSTEM 
18 2 2 5 5 7 7 8 8 11 11 12 12 13 13 15 15 16 \
16 

