#    Name: 6ng1_1_H4B_CAVITY_N1_6
#    Modification time : Fri May 22 19:29:18 2020

@<TRIPOS>MOLECULE
6ng1_1_H4B_CAVITY_N1_6
   58     0     6     0     0
SMALL
NO_CHARGES


@<TRIPOS>ATOM
      1 OG        127.1200  250.0400  347.0500 O.3       1 SER1        0.0000 
      2 O         122.6600  253.4700  343.3900 O.2       2 ALA2        0.0000 
      3 N         122.4700  251.5700  344.3000 N.am      2 ALA2        0.0000 
      4 N         123.0400  254.0700  344.7200 N.am      2 ALA2        0.0000 
      5 O         120.8000  252.5600  346.0300 O.2       2 ALA2        0.0000 
      6 N         123.9700  252.9100  344.9700 N.am      2 ALA2        0.0000 
      7 N         122.8500  252.1600  345.6200 N.am      2 ALA2        0.0000 
      8 O         120.6100  250.6500  346.9400 O.2       2 ALA2        0.0000 
      9 N         124.8900  251.7600  345.2200 N.am      2 ALA2        0.0000 
     10 O         122.1100  252.0000  347.6100 O.2       2 ALA2        0.0000 
     11 OD1       123.0300  250.8400  347.8600 O.co2     3 ASP3        0.0000 
     12 OD1       121.9100  250.0900  348.5100 O.co2     3 ASP3        0.0000 
     13 OD1       120.7900  249.3400  349.1700 O.co2     3 ASP3        0.0000 
     14 OD1       125.0700  250.4400  347.4500 O.co2     3 ASP3        0.0000 
     15 OD1       124.3300  250.2800  349.4300 O.co2     3 ASP3        0.0000 
     16 OD1       120.9700  248.0200  351.4000 O.co2     3 ASP3        0.0000 
     17 OD1       126.3800  249.8800  349.0300 O.co2     3 ASP3        0.0000 
     18 OD1       128.4200  249.4700  348.6200 O.co2     3 ASP3        0.0000 
     19 OD1       126.7500  250.4700  350.3500 O.co2     3 ASP3        0.0000 
     20 OD1       125.6300  249.7100  351.0100 O.co2     3 ASP3        0.0000 
     21 CZ        121.3500  250.8100  344.9500 C.ar      4 PHE5        0.0000 
     22 CZ        120.2300  250.0600  345.6100 C.ar      4 PHE5        0.0000 
     23 CZ        121.7300  251.4100  346.2800 C.ar      4 PHE5        0.0000 
     24 CZ        119.4900  249.9000  347.5900 C.ar      4 PHE5        0.0000 
     25 CZ        123.7700  251.0000  345.8700 C.ar      4 PHE5        0.0000 
     26 CZ        122.6500  250.2500  346.5300 C.ar      4 PHE5        0.0000 
     27 CZ        121.5300  249.5000  347.1900 C.ar      4 PHE5        0.0000 
     28 CZ        120.4100  248.7400  347.8400 C.ar      4 PHE5        0.0000 
     29 CZ        120.9900  251.2400  348.2600 C.ar      4 PHE5        0.0000 
     30 CZ        119.8700  250.4900  348.9200 C.ar      4 PHE5        0.0000 
     31 CZ        119.6700  248.5800  349.8200 C.ar      4 PHE5        0.0000 
     32 CZ        122.4800  252.5900  348.9300 C.ar      4 PHE5        0.0000 
     33 CZ        122.2900  250.6800  349.8400 C.ar      4 PHE5        0.0000 
     34 CZ        121.1700  249.9300  350.4900 C.ar      4 PHE5        0.0000 
     35 CZ        120.0500  249.1700  351.1500 C.ar      4 PHE5        0.0000 
     36 CA        121.5400  252.7200  344.0500 C.3       5 GLY6        0.0000 
     37 CA        120.4200  251.9700  344.7000 C.3       5 GLY6        0.0000 
     38 CA        121.0000  254.4700  345.1200 C.3       5 GLY6        0.0000 
     39 CA        121.9200  253.3100  345.3700 C.3       5 GLY6        0.0000 
     40 CA        122.3000  253.9000  346.7000 C.3       5 GLY6        0.0000 
     41 CA        123.2300  252.7500  346.9500 C.3       5 GLY6        0.0000 
     42 CA        124.1500  251.5900  347.2000 C.3       5 GLY6        0.0000 
     43 CA        126.1900  251.1900  346.8000 C.3       5 GLY6        0.0000 
     44 CA        123.4100  251.4300  349.1800 C.3       5 GLY6        0.0000 
     45 CA        126.5700  251.7800  348.1200 C.3       5 GLY6        0.0000 
     46 CA        125.4500  251.0300  348.7800 C.3       5 GLY6        0.0000 
     47 CA        127.4900  250.6300  348.3700 C.3       5 GLY6        0.0000 
     48 CA        123.7900  252.0200  350.5100 C.3       5 GLY6        0.0000 
     49 CA        126.9500  252.3700  349.4500 C.3       5 GLY6        0.0000 
     50 CA        125.8300  251.6200  350.1000 C.3       5 GLY6        0.0000 
     51 CA        124.7100  250.8700  350.7600 C.3       5 GLY6        0.0000 
     52 CA        127.8700  251.2200  349.7000 C.3       5 GLY6        0.0000 
     53 CA        127.3300  252.9700  350.7700 C.3       5 GLY6        0.0000 
     54 CA        126.2100  252.2100  351.4300 C.3       5 GLY6        0.0000 
     55 DU        128.2500  251.8100  351.0200 H         6 CUB7        0.0000 
     56 DU        128.0600  249.9000  351.9300 H         6 CUB7        0.0000 
     57 DU        126.9400  249.1500  352.5900 H         6 CUB7        0.0000 
     58 DU        126.5900  252.8000  352.7500 H         6 CUB7        0.0000 
@<TRIPOS>BOND
@<TRIPOS>SUBSTRUCTURE
     1 SER1        1 GROUP   
     2 ALA2        2 GROUP   
     3 ASP3       11 GROUP   
     4 PHE5       21 GROUP   
     5 GLY6       36 GROUP   
     6 CUB7       55 GROUP   
@<TRIPOS>SET

