#    Name: 6hk1_1_48F
#    Modification time : Fri May 22 19:25:40 2020

@<TRIPOS>MOLECULE
6hk1_1_48F
   36    38     1     0     0
SMALL
NO_CHARGES


@<TRIPOS>ATOM
      1 O1A       -13.2130   17.9100   38.0800           1 48F313      0.0000 
      2 PA        -14.4360   18.7350   38.1840           1 48F313      0.0000 
      3 O2A       -14.1590   20.0500   39.0740           1 48F313      0.0000 
      4 O3A       -14.9570   19.0710   36.6880           1 48F313      0.0000 
      5 PB        -15.4520   20.4860   36.0980           1 48F313      0.0000 
      6 O1B       -15.5150   20.3470   34.6300           1 48F313      0.0000 
      7 O5D       -14.3890   21.6350   36.5120           1 48F313      0.0000 
      8 C5D       -12.9890   21.4770   36.2130           1 48F313      0.0000 
      9 C4D       -12.0890   22.3820   37.0620           1 48F313      0.0000 
     10 O4D       -12.1830   22.0590   38.4550           1 48F313      0.0000 
     11 C3D       -10.6130   22.3080   36.6600           1 48F313      0.0000 
     12 C2D       -10.1270   23.5810   36.0040           1 48F313      0.0000 
     13 C1D       -10.6820   24.9190   36.4450           1 48F313      0.0000 
     14 O1D       -11.6610   25.3900   35.5110           1 48F313      0.0000 
     15 O2D        -9.2760   23.5510   35.1220           1 48F313      0.0000 
     16 O3D       -10.3470   21.1490   35.8540           1 48F313      0.0000 
     17 O2B       -16.9390   20.8370   36.5820           1 48F313      0.0000 
     18 O5'       -15.5650   17.8450   38.8940           1 48F313      0.0000 
     19 C5'       -15.9510   16.6060   38.3150           1 48F313      0.0000 
     20 C4'       -16.4740   15.7260   39.4330           1 48F313      0.0000 
     21 O4'       -16.9520   14.5090   38.8730           1 48F313      0.0000 
     22 C1'       -16.5870   13.4280   39.7260           1 48F313      0.0000 
     23 C2'       -15.2630   13.8450   40.3580           1 48F313      0.0000 
     24 O2'       -15.1060   13.3100   41.6800           1 48F313      0.0000 
     25 C3'       -15.3710   15.3590   40.4170           1 48F313      0.0000 
     26 O3'       -15.8020   15.7520   41.7210           1 48F313      0.0000 
     27 N9        -16.5050   12.1950   38.9050           1 48F313      0.0000 
     28 C8        -15.5290   11.8700   38.0340           1 48F313      0.0000 
     29 N7        -15.7650   10.6670   37.4500           1 48F313      0.0000 
     30 C5        -16.9350   10.2140   37.9480           1 48F313      0.0000 
     31 C4        -17.4190   11.2240   38.9060           1 48F313      0.0000 
     32 C6        -17.7740    9.0030   37.7670           1 48F313      0.0000 
     33 N6        -17.3960    8.0270   36.8990           1 48F313      0.0000 
     34 N1        -18.9190    8.9170   38.4910           1 48F313      0.0000 
     35 C2        -19.3080    9.8870   39.3410           1 48F313      0.0000 
     36 N3        -18.5890   11.0060   39.5620           1 48F313      0.0000 
@<TRIPOS>BOND
     1    1    2 du   
     2    2    3 du   
     3    2    4 du   
     4    2   18 du   
     5    4    5 du   
     6    5    6 du   
     7    5    7 du   
     8    5   17 du   
     9    7    8 du   
    10    8    9 du   
    11    9   10 du   
    12    9   11 du   
    13   11   12 du   
    14   11   16 du   
    15   12   13 du   
    16   12   15 du   
    17   13   14 du   
    18   18   19 du   
    19   19   20 du   
    20   20   21 du   
    21   20   25 du   
    22   21   22 du   
    23   22   23 du   
    24   22   27 du   
    25   23   24 du   
    26   23   25 du   
    27   25   26 du   
    28   27   28 du   
    29   27   31 du   
    30   28   29 du   
    31   29   30 du   
    32   30   31 du   
    33   30   32 du   
    34   31   36 du   
    35   32   33 du   
    36   32   34 du   
    37   34   35 du   
    38   35   36 du   
@<TRIPOS>SUBSTRUCTURE
     1 48F313      1 GROUP   
@<TRIPOS>SET

