#    Name: 6hk1_5_48F
#    Modification time : Fri May 22 19:26:11 2020

@<TRIPOS>MOLECULE
6hk1_5_48F
   36    38     1     0     0
SMALL
NO_CHARGES


@<TRIPOS>ATOM
      1 O1A       -13.9200  -17.4500   63.0610           1 48F312      0.0000 
      2 PA        -15.2200  -18.1590   63.0070           1 48F312      0.0000 
      3 O2A       -15.0840  -19.4870   62.0960           1 48F312      0.0000 
      4 O3A       -15.7300  -18.4720   64.5110           1 48F312      0.0000 
      5 PB        -16.3170  -19.8670   65.0780           1 48F312      0.0000 
      6 O1B       -16.3950  -19.7570   66.5500           1 48F312      0.0000 
      7 O5D       -15.3150  -21.0640   64.6650           1 48F312      0.0000 
      8 C5D       -13.9180  -20.9600   64.9800           1 48F312      0.0000 
      9 C4D       -13.0680  -21.9520   64.1880           1 48F312      0.0000 
     10 O4D       -13.1310  -21.6200   62.7980           1 48F312      0.0000 
     11 C3D       -11.5990  -21.9040   64.6200           1 48F312      0.0000 
     12 C2D       -11.1400  -23.1340   65.3730           1 48F312      0.0000 
     13 C1D        -9.7110  -23.1870   65.8890           1 48F312      0.0000 
     14 O1D        -9.6350  -23.1640   67.3220           1 48F312      0.0000 
     15 O2D       -11.8850  -24.0890   65.5620           1 48F312      0.0000 
     16 O3D       -11.3170  -20.7040   65.3580           1 48F312      0.0000 
     17 O2B       -17.7990  -20.1420   64.5360           1 48F312      0.0000 
     18 O5'       -16.2850  -17.1660   62.3420           1 48F312      0.0000 
     19 C5'       -16.4680  -15.8610   62.8620           1 48F312      0.0000 
     20 C4'       -17.0880  -15.0290   61.7570           1 48F312      0.0000 
     21 O4'       -17.5450  -13.8090   62.3260           1 48F312      0.0000 
     22 C1'       -17.2190  -12.7340   61.4540           1 48F312      0.0000 
     23 C2'       -15.9260  -13.1620   60.7760           1 48F312      0.0000 
     24 O2'       -15.7470  -12.5200   59.5060           1 48F312      0.0000 
     25 C3'       -16.0950  -14.6700   60.6550           1 48F312      0.0000 
     26 O3'       -16.7050  -14.9920   59.3990           1 48F312      0.0000 
     27 N9        -17.0730  -11.5020   62.2580           1 48F312      0.0000 
     28 C8        -16.0860  -11.2250   63.1350           1 48F312      0.0000 
     29 N7        -16.2590   -9.9970   63.6910           1 48F312      0.0000 
     30 C5        -17.3940   -9.4770   63.1690           1 48F312      0.0000 
     31 C4        -17.9290  -10.4780   62.2230           1 48F312      0.0000 
     32 C6        -18.1630   -8.2170   63.3130           1 48F312      0.0000 
     33 N6        -17.7550   -7.2480   64.1640           1 48F312      0.0000 
     34 N1        -19.2890   -8.0770   62.5730           1 48F312      0.0000 
     35 C2        -19.7280   -9.0420   61.7380           1 48F312      0.0000 
     36 N3        -19.0780  -10.2070   61.5470           1 48F312      0.0000 
@<TRIPOS>BOND
     1    1    2 du   
     2    2    3 du   
     3    2    4 du   
     4    2   18 du   
     5    4    5 du   
     6    5    6 du   
     7    5    7 du   
     8    5   17 du   
     9    7    8 du   
    10    8    9 du   
    11    9   10 du   
    12    9   11 du   
    13   11   12 du   
    14   11   16 du   
    15   12   13 du   
    16   12   15 du   
    17   13   14 du   
    18   18   19 du   
    19   19   20 du   
    20   20   21 du   
    21   20   25 du   
    22   21   22 du   
    23   22   23 du   
    24   22   27 du   
    25   23   24 du   
    26   23   25 du   
    27   25   26 du   
    28   27   28 du   
    29   27   31 du   
    30   28   29 du   
    31   29   30 du   
    32   30   31 du   
    33   30   32 du   
    34   31   36 du   
    35   32   33 du   
    36   32   34 du   
    37   34   35 du   
    38   35   36 du   
@<TRIPOS>SUBSTRUCTURE
     1 48F312      1 GROUP   
@<TRIPOS>SET

