#    Name: 6hk1_4_48F
#    Modification time : Fri May 22 19:26:05 2020

@<TRIPOS>MOLECULE
6hk1_4_48F
   36    38     1     0     0
SMALL
NO_CHARGES


@<TRIPOS>ATOM
      1 O1A       -61.8470  -63.9240   81.4900           1 48F308      0.0000 
      2 PA        -62.1260  -63.5810   80.0730           1 48F308      0.0000 
      3 O2A       -60.7410  -63.6230   79.2460           1 48F308      0.0000 
      4 O3A       -63.2290  -64.6140   79.4940           1 48F308      0.0000 
      5 PB        -63.2120  -65.3380   78.0490           1 48F308      0.0000 
      6 O1B       -64.3180  -66.3190   78.0510           1 48F308      0.0000 
      7 O5D       -61.8070  -66.1080   77.8340           1 48F308      0.0000 
      8 C5D       -61.3530  -67.0750   78.7940           1 48F308      0.0000 
      9 C4D       -59.8450  -67.3280   78.6930           1 48F308      0.0000 
     10 O4D       -59.1200  -66.1030   78.8460           1 48F308      0.0000 
     11 C3D       -59.3410  -68.3160   79.7470           1 48F308      0.0000 
     12 C2D       -59.1960  -69.7300   79.2240           1 48F308      0.0000 
     13 C1D       -58.8340  -70.8480   80.1880           1 48F308      0.0000 
     14 O1D       -59.7920  -71.9160   80.2030           1 48F308      0.0000 
     15 O2D       -59.3460  -69.9840   78.0350           1 48F308      0.0000 
     16 O3D       -60.1430  -68.2670   80.9380           1 48F308      0.0000 
     17 O2B       -63.4780  -64.2830   76.8690           1 48F308      0.0000 
     18 O5'       -62.7440  -62.0950   79.9720           1 48F308      0.0000 
     19 C5'       -63.8420  -61.6960   80.7830           1 48F308      0.0000 
     20 C4'       -63.7470  -60.2030   81.0590           1 48F308      0.0000 
     21 O4'       -64.9340  -59.7360   81.7020           1 48F308      0.0000 
     22 C1'       -64.5920  -58.8160   82.7370           1 48F308      0.0000 
     23 C2'       -63.2250  -59.2650   83.2290           1 48F308      0.0000 
     24 O2'       -62.4890  -58.1520   83.7550           1 48F308      0.0000 
     25 C3'       -62.5810  -59.8540   81.9760           1 48F308      0.0000 
     26 O3'       -61.8060  -58.8670   81.2800           1 48F308      0.0000 
     27 N9        -65.6640  -58.8330   83.7660           1 48F308      0.0000 
     28 C8        -65.8690  -59.7740   84.7110           1 48F308      0.0000 
     29 N7        -66.9600  -59.4820   85.4640           1 48F308      0.0000 
     30 C5        -67.4710  -58.3250   84.9970           1 48F308      0.0000 
     31 C4        -66.6150  -57.9010   83.8750           1 48F308      0.0000 
     32 C6        -68.6190  -57.4450   85.3360           1 48F308      0.0000 
     33 N6        -69.4640  -57.7650   86.3480           1 48F308      0.0000 
     34 N1        -68.7920  -56.3200   84.5950           1 48F308      0.0000 
     35 C2        -67.9680  -55.9990   83.5730           1 48F308      0.0000 
     36 N3        -66.9090  -56.7490   83.2160           1 48F308      0.0000 
@<TRIPOS>BOND
     1    1    2 du   
     2    2    3 du   
     3    2    4 du   
     4    2   18 du   
     5    4    5 du   
     6    5    6 du   
     7    5    7 du   
     8    5   17 du   
     9    7    8 du   
    10    8    9 du   
    11    9   10 du   
    12    9   11 du   
    13   11   12 du   
    14   11   16 du   
    15   12   13 du   
    16   12   15 du   
    17   13   14 du   
    18   18   19 du   
    19   19   20 du   
    20   20   21 du   
    21   20   25 du   
    22   21   22 du   
    23   22   23 du   
    24   22   27 du   
    25   23   24 du   
    26   23   25 du   
    27   25   26 du   
    28   27   28 du   
    29   27   31 du   
    30   28   29 du   
    31   29   30 du   
    32   30   31 du   
    33   30   32 du   
    34   31   36 du   
    35   32   33 du   
    36   32   34 du   
    37   34   35 du   
    38   35   36 du   
@<TRIPOS>SUBSTRUCTURE
     1 48F308      1 GROUP   
@<TRIPOS>SET

