#    Name: 6hk1_3_48F
#    Modification time : Fri May 22 19:25:59 2020

@<TRIPOS>MOLECULE
6hk1_3_48F
   36    38     1     0     0
SMALL
NO_CHARGES


@<TRIPOS>ATOM
      1 O1A       -78.7880  -46.8880  102.1280           1 48F309      0.0000 
      2 PA        -79.8180  -45.9060  102.5340           1 48F309      0.0000 
      3 O2A       -79.7130  -44.6250  101.5630           1 48F309      0.0000 
      4 O3A       -81.2810  -46.6210  102.5070           1 48F309      0.0000 
      5 PB        -82.7100  -45.9780  102.0850           1 48F309      0.0000 
      6 O1B       -83.7340  -47.0300  102.2170           1 48F309      0.0000 
      7 O5D       -82.6290  -45.4950  100.5410           1 48F309      0.0000 
      8 C5D       -82.1390  -46.4020   99.5340           1 48F309      0.0000 
      9 C4D       -81.3670  -45.7050   98.4070           1 48F309      0.0000 
     10 O4D       -80.3400  -44.8700   98.9550           1 48F309      0.0000 
     11 C3D       -80.7100  -46.6820   97.4220           1 48F309      0.0000 
     12 C2D       -81.6410  -47.2280   96.3620           1 48F309      0.0000 
     13 C1D       -81.3370  -48.5850   95.7470           1 48F309      0.0000 
     14 O1D       -82.1060  -48.8470   94.5600           1 48F309      0.0000 
     15 O2D       -82.6190  -46.5870   95.9960           1 48F309      0.0000 
     16 O3D       -80.0480  -47.7480   98.1160           1 48F309      0.0000 
     17 O2B       -83.1330  -44.8010  103.0890           1 48F309      0.0000 
     18 O5'       -79.5210  -45.4630  104.0480           1 48F309      0.0000 
     19 C5'       -79.1850  -46.4300  105.0310           1 48F309      0.0000 
     20 C4'       -78.2620  -45.7620  106.0330           1 48F309      0.0000 
     21 O4'       -78.1890  -46.5580  107.2150           1 48F309      0.0000 
     22 C1'       -76.8270  -46.6930  107.6180           1 48F309      0.0000 
     23 C2'       -75.9970  -46.5500  106.3550           1 48F309      0.0000 
     24 O2'       -74.7180  -45.9770  106.6580           1 48F309      0.0000 
     25 C3'       -76.8470  -45.6310  105.4860           1 48F309      0.0000 
     26 O3'       -76.4450  -44.2690  105.6610           1 48F309      0.0000 
     27 N9        -76.6320  -47.9840  108.3180           1 48F309      0.0000 
     28 C8        -76.5040  -49.2060  107.7610           1 48F309      0.0000 
     29 N7        -76.3500  -50.1570  108.7190           1 48F309      0.0000 
     30 C5        -76.3890  -49.5370  109.9210           1 48F309      0.0000 
     31 C4        -76.5830  -48.1040  109.6460           1 48F309      0.0000 
     32 C6        -76.2930  -49.9350  111.3490           1 48F309      0.0000 
     33 N6        -76.1350  -51.2290  111.7160           1 48F309      0.0000 
     34 N1        -76.3860  -48.9570  112.2820           1 48F309      0.0000 
     35 C2        -76.5650  -47.6600  111.9560           1 48F309      0.0000 
     36 N3        -76.6550  -47.2320  110.6850           1 48F309      0.0000 
@<TRIPOS>BOND
     1    1    2 du   
     2    2    3 du   
     3    2    4 du   
     4    2   18 du   
     5    4    5 du   
     6    5    6 du   
     7    5    7 du   
     8    5   17 du   
     9    7    8 du   
    10    8    9 du   
    11    9   10 du   
    12    9   11 du   
    13   11   12 du   
    14   11   16 du   
    15   12   13 du   
    16   12   15 du   
    17   13   14 du   
    18   18   19 du   
    19   19   20 du   
    20   20   21 du   
    21   20   25 du   
    22   21   22 du   
    23   22   23 du   
    24   22   27 du   
    25   23   24 du   
    26   23   25 du   
    27   25   26 du   
    28   27   28 du   
    29   27   31 du   
    30   28   29 du   
    31   29   30 du   
    32   30   31 du   
    33   30   32 du   
    34   31   36 du   
    35   32   33 du   
    36   32   34 du   
    37   34   35 du   
    38   35   36 du   
@<TRIPOS>SUBSTRUCTURE
     1 48F309      1 GROUP   
@<TRIPOS>SET

