#    Name: 6hk1_6_48F
#    Modification time : Fri May 22 19:26:16 2020

@<TRIPOS>MOLECULE
6hk1_6_48F
   36    38     1     0     0
SMALL
NO_CHARGES


@<TRIPOS>ATOM
      1 O1A       -61.0560  -29.6320  107.7940           1 48F307      0.0000 
      2 PA        -62.0780  -28.5930  107.5190           1 48F307      0.0000 
      3 O2A       -63.2780  -28.7230  108.5850           1 48F307      0.0000 
      4 O3A       -61.3740  -27.1350  107.5280           1 48F307      0.0000 
      5 PB        -61.9780  -25.7700  108.1490           1 48F307      0.0000 
      6 O1B       -60.9420  -24.7370  107.9840           1 48F307      0.0000 
      7 O5D       -62.3020  -26.0110  109.7140           1 48F307      0.0000 
      8 C5D       -61.2910  -26.5280  110.5910           1 48F307      0.0000 
      9 C4D       -61.9070  -27.2380  111.7960           1 48F307      0.0000 
     10 O4D       -62.8130  -28.2600  111.3590           1 48F307      0.0000 
     11 C3D       -60.8540  -27.8420  112.7320           1 48F307      0.0000 
     12 C2D       -60.4540  -26.8770  113.8230           1 48F307      0.0000 
     13 C1D       -58.9890  -26.6850  114.1740           1 48F307      0.0000 
     14 O1D       -58.6830  -27.1580  115.4950           1 48F307      0.0000 
     15 O2D       -61.3110  -26.2410  114.4250           1 48F307      0.0000 
     16 O3D       -59.7040  -28.2780  111.9900           1 48F307      0.0000 
     17 O2B       -63.2830  -25.2650  107.3610           1 48F307      0.0000 
     18 O5'       -62.6410  -28.8220  106.0390           1 48F307      0.0000 
     19 C5'       -61.7380  -28.9970  104.9570           1 48F307      0.0000 
     20 C4'       -62.4470  -29.8670  103.9320           1 48F307      0.0000 
     21 O4'       -61.7780  -29.7660  102.6790           1 48F307      0.0000 
     22 C1'       -61.6960  -31.0610  102.0910           1 48F307      0.0000 
     23 C2'       -61.6570  -32.0440  103.2460           1 48F307      0.0000 
     24 O2'       -62.2670  -33.2730  102.8460           1 48F307      0.0000 
     25 C3'       -62.4510  -31.3390  104.3350           1 48F307      0.0000 
     26 O3'       -63.8080  -31.7950  104.3230           1 48F307      0.0000 
     27 N9        -60.5010  -31.1720  101.2270           1 48F307      0.0000 
     28 C8        -59.2260  -31.3120  101.6410           1 48F307      0.0000 
     29 N7        -58.3780  -31.3980  100.5850           1 48F307      0.0000 
     30 C5        -59.1250  -31.3050   99.4670           1 48F307      0.0000 
     31 C4        -60.5250  -31.1590   99.8940           1 48F307      0.0000 
     32 C6        -58.8650  -31.3250   98.0120           1 48F307      0.0000 
     33 N6        -57.5990  -31.4460   97.5490           1 48F307      0.0000 
     34 N1        -59.9290  -31.2160   97.1760           1 48F307      0.0000 
     35 C2        -61.1920  -31.0800   97.6350           1 48F307      0.0000 
     36 N3        -61.4970  -31.0570   98.9490           1 48F307      0.0000 
@<TRIPOS>BOND
     1    1    2 du   
     2    2    3 du   
     3    2    4 du   
     4    2   18 du   
     5    4    5 du   
     6    5    6 du   
     7    5    7 du   
     8    5   17 du   
     9    7    8 du   
    10    8    9 du   
    11    9   10 du   
    12    9   11 du   
    13   11   12 du   
    14   11   16 du   
    15   12   13 du   
    16   12   15 du   
    17   13   14 du   
    18   18   19 du   
    19   19   20 du   
    20   20   21 du   
    21   20   25 du   
    22   21   22 du   
    23   22   23 du   
    24   22   27 du   
    25   23   24 du   
    26   23   25 du   
    27   25   26 du   
    28   27   28 du   
    29   27   31 du   
    30   28   29 du   
    31   29   30 du   
    32   30   31 du   
    33   30   32 du   
    34   31   36 du   
    35   32   33 du   
    36   32   34 du   
    37   34   35 du   
    38   35   36 du   
@<TRIPOS>SUBSTRUCTURE
     1 48F307      1 GROUP   
@<TRIPOS>SET

