#    Name: 6hk1_5_48F_CAVITY_N1_6
#    Modification time : Fri May 22 19:26:13 2020

@<TRIPOS>MOLECULE
6hk1_5_48F_CAVITY_N1_6
   70     0     7     0     0
SMALL
NO_CHARGES


@<TRIPOS>ATOM
      1 OG        -17.1900  -19.3800   64.8700 O.3       1 SER1        0.0000 
      2 OG        -10.3600  -19.6900   64.1400 O.3       1 SER1        0.0000 
      3 OG         -9.5700  -18.7300   64.9800 O.3       1 SER1        0.0000 
      4 OG         -9.1900  -19.8500   65.9000 O.3       1 SER1        0.0000 
      5 OG         -8.4000  -18.8900   66.7400 O.3       1 SER1        0.0000 
      6 O         -15.1300  -18.8200   62.2800 O.2       2 ALA2        0.0000 
      7 O         -13.5400  -20.2100   62.3700 O.2       2 ALA2        0.0000 
      8 N          -9.5100  -22.1600   60.8000 N.am      2 ALA2        0.0000 
      9 N         -10.7300  -21.8900   61.6300 N.am      2 ALA2        0.0000 
     10 O          -7.5400  -24.6800   61.8100 O.2       2 ALA2        0.0000 
     11 N          -9.9700  -24.1300   63.4800 N.am      2 ALA2        0.0000 
     12 N         -11.1900  -23.8500   64.3100 N.am      2 ALA2        0.0000 
     13 O         -13.1300  -18.1400   62.2900 O.2       2 ALA2        0.0000 
     14 N          -9.1800  -23.1700   64.3200 N.am      2 ALA2        0.0000 
     15 N         -10.4000  -22.8900   65.1500 N.am      2 ALA2        0.0000 
     16 O          -8.0100  -23.3300   66.0800 O.2       2 ALA2        0.0000 
     17 O          -9.2300  -23.0500   66.9100 O.2       2 ALA2        0.0000 
     18 OD1        -7.1700  -22.4900   64.3200 O.co2     3 ASP3        0.0000 
     19 OD1        -8.3900  -22.2100   65.1600 O.co2     3 ASP3        0.0000 
     20 OD1        -7.9800  -20.1300   65.0700 O.co2     3 ASP3        0.0000 
     21 OD1        -7.6000  -21.2500   65.9900 O.co2     3 ASP3        0.0000 
     22 OD1        -8.8200  -20.9700   66.8300 O.co2     3 ASP3        0.0000 
     23 OD1        -7.2200  -22.3700   66.9200 O.co2     3 ASP3        0.0000 
     24 OD1        -8.4400  -22.0900   67.7500 O.co2     3 ASP3        0.0000 
     25 NZ         -8.0200  -20.0100   67.6700 N.4       4 LYS4        0.0000 
     26 CZ        -13.9600  -22.2900   62.4600 C.ar      5 PHE5        0.0000 
     27 CZ        -13.1600  -21.3300   63.3000 C.ar      5 PHE5        0.0000 
     28 CZ        -10.3500  -23.0100   62.5500 C.ar      5 PHE5        0.0000 
     29 CZ        -11.5700  -22.7300   63.3900 C.ar      5 PHE5        0.0000 
     30 CZ        -12.7900  -22.4500   64.2200 C.ar      5 PHE5        0.0000 
     31 CA        -16.3500  -18.5400   63.1100 C.3       6 GLY6        0.0000 
     32 CA        -14.7600  -19.9400   63.2000 C.3       6 GLY6        0.0000 
     33 CA        -15.9700  -19.6600   64.0400 C.3       6 GLY6        0.0000 
     34 CA        -11.9500  -21.6100   62.4600 C.3       6 GLY6        0.0000 
     35 CA        -14.3800  -21.0600   64.1300 C.3       6 GLY6        0.0000 
     36 CA        -15.6000  -20.7800   64.9600 C.3       6 GLY6        0.0000 
     37 CA        -14.0000  -22.1800   65.0500 C.3       6 GLY6        0.0000 
     38 CA        -12.4100  -23.5700   65.1400 C.3       6 GLY6        0.0000 
     39 CA        -11.9100  -18.4100   61.4500 C.3       6 GLY6        0.0000 
     40 CA        -14.3400  -17.8600   63.1200 C.3       6 GLY6        0.0000 
     41 CA        -15.5600  -17.5800   63.9500 C.3       6 GLY6        0.0000 
     42 CA        -11.5300  -19.5300   62.3800 C.3       6 GLY6        0.0000 
     43 CA        -13.9600  -18.9800   64.0400 C.3       6 GLY6        0.0000 
     44 CA        -15.1800  -18.7000   64.8800 C.3       6 GLY6        0.0000 
     45 CA        -13.5900  -20.1000   64.9700 C.3       6 GLY6        0.0000 
     46 CA        -14.8000  -19.8200   65.8000 C.3       6 GLY6        0.0000 
     47 CA        -13.2100  -21.2200   65.8900 C.3       6 GLY6        0.0000 
     48 CA         -7.9700  -23.4400   63.4800 C.3       6 GLY6        0.0000 
     49 CA        -11.6200  -22.6100   65.9800 C.3       6 GLY6        0.0000 
     50 CA         -6.3700  -24.8400   63.5800 C.3       6 GLY6        0.0000 
     51 CA        -11.2000  -20.5400   65.9000 C.3       6 GLY6        0.0000 
     52 CA        -10.8200  -21.6500   66.8200 C.3       6 GLY6        0.0000 
     53 CA         -6.8000  -23.6100   65.2500 C.3       6 GLY6        0.0000 
     54 CA        -10.4500  -22.7700   67.7400 C.3       6 GLY6        0.0000 
     55 CA        -10.4100  -19.5800   66.7400 C.3       6 GLY6        0.0000 
     56 CA        -10.0300  -20.7000   67.6600 C.3       6 GLY6        0.0000 
     57 CA         -9.6500  -21.8200   68.5800 C.3       6 GLY6        0.0000 
     58 DU         -9.1400  -23.2800   61.7200 H         7 CUB7        0.0000 
     59 DU        -12.7500  -19.2500   63.2100 H         7 CUB7        0.0000 
     60 DU         -9.9400  -20.9300   62.4700 H         7 CUB7        0.0000 
     61 DU        -11.1500  -20.6500   63.3000 H         7 CUB7        0.0000 
     62 DU        -12.3700  -20.3700   64.1300 H         7 CUB7        0.0000 
     63 DU         -8.3400  -22.3300   62.5600 H         7 CUB7        0.0000 
     64 DU         -9.5600  -22.0500   63.3900 H         7 CUB7        0.0000 
     65 DU        -10.7800  -21.7700   64.2300 H         7 CUB7        0.0000 
     66 DU        -11.9900  -21.4900   65.0600 H         7 CUB7        0.0000 
     67 DU         -9.1500  -19.9700   63.3100 H         7 CUB7        0.0000 
     68 DU         -8.7700  -21.0900   64.2300 H         7 CUB7        0.0000 
     69 DU         -9.9800  -20.8100   65.0600 H         7 CUB7        0.0000 
     70 DU         -9.6100  -21.9300   65.9900 H         7 CUB7        0.0000 
@<TRIPOS>BOND
@<TRIPOS>SUBSTRUCTURE
     1 SER1        1 GROUP   
     2 ALA2        6 GROUP   
     3 ASP3       18 GROUP   
     4 LYS4       25 GROUP   
     5 PHE5       26 GROUP   
     6 GLY6       31 GROUP   
     7 CUB7       58 GROUP   
@<TRIPOS>SET

