#    Name: 6hk1_2_48F
#    Modification time : Fri May 22 19:25:49 2020

@<TRIPOS>MOLECULE
6hk1_2_48F
   36    38     1     0     0
SMALL
NO_CHARGES


@<TRIPOS>ATOM
      1 O1A       -48.3060  -42.3870   81.8910           1 48F306      0.0000 
      2 PA        -48.1730  -42.6320   80.4380           1 48F306      0.0000 
      3 O2A       -49.6290  -42.5000   79.7610           1 48F306      0.0000 
      4 O3A       -47.0640  -41.6010   79.8550           1 48F306      0.0000 
      5 PB        -47.1420  -40.6910   78.5190           1 48F306      0.0000 
      6 O1B       -46.0330  -39.7180   78.5930           1 48F306      0.0000 
      7 O5D       -48.5560  -39.9030   78.4800           1 48F306      0.0000 
      8 C5D       -48.9310  -38.9970   79.5330           1 48F306      0.0000 
      9 C4D       -50.4480  -38.7820   79.5870           1 48F306      0.0000 
     10 O4D       -51.1210  -40.0440   79.6670           1 48F306      0.0000 
     11 C3D       -50.9120  -37.8950   80.7520           1 48F306      0.0000 
     12 C2D       -51.1730  -36.4640   80.3380           1 48F306      0.0000 
     13 C1D       -50.7650  -35.3130   81.2370           1 48F306      0.0000 
     14 O1D       -51.7890  -34.9090   82.1540           1 48F306      0.0000 
     15 O2D       -51.7110  -36.2120   79.2690           1 48F306      0.0000 
     16 O3D       -50.0020  -37.9720   81.8610           1 48F306      0.0000 
     17 O2B       -46.9050  -41.6040   77.2180           1 48F306      0.0000 
     18 O5'       -47.6000  -44.1090   80.1740           1 48F306      0.0000 
     19 C5'       -46.3830  -44.5160   80.7850           1 48F306      0.0000 
     20 C4'       -46.4260  -46.0200   80.9960           1 48F306      0.0000 
     21 O4'       -45.1450  -46.4460   81.4510           1 48F306      0.0000 
     22 C1'       -45.3350  -47.4950   82.3900           1 48F306      0.0000 
     23 C2'       -46.6190  -47.1580   83.1250           1 48F306      0.0000 
     24 O2'       -47.2570  -48.3610   83.5740           1 48F306      0.0000 
     25 C3'       -47.4400  -46.4520   82.0590           1 48F306      0.0000 
     26 O3'       -48.3270  -47.4110   81.4750           1 48F306      0.0000 
     27 N9        -44.1810  -47.6080   83.3030           1 48F306      0.0000 
     28 C8        -43.8840  -46.7790   84.3250           1 48F306      0.0000 
     29 N7        -42.7620  -47.1890   84.9710           1 48F306      0.0000 
     30 C5        -42.3260  -48.3060   84.3470           1 48F306      0.0000 
     31 C4        -43.2700  -48.5830   83.2470           1 48F306      0.0000 
     32 C6        -41.1970  -49.2570   84.5150           1 48F306      0.0000 
     33 N6        -40.2840  -49.0700   85.4980           1 48F306      0.0000 
     34 N1        -41.1130  -50.3050   83.6540           1 48F306      0.0000 
     35 C2        -42.0150  -50.4910   82.6630           1 48F306      0.0000 
     36 N3        -43.0670  -49.6710   82.4560           1 48F306      0.0000 
@<TRIPOS>BOND
     1    1    2 du   
     2    2    3 du   
     3    2    4 du   
     4    2   18 du   
     5    4    5 du   
     6    5    6 du   
     7    5    7 du   
     8    5   17 du   
     9    7    8 du   
    10    8    9 du   
    11    9   10 du   
    12    9   11 du   
    13   11   12 du   
    14   11   16 du   
    15   12   13 du   
    16   12   15 du   
    17   13   14 du   
    18   18   19 du   
    19   19   20 du   
    20   20   21 du   
    21   20   25 du   
    22   21   22 du   
    23   22   23 du   
    24   22   27 du   
    25   23   24 du   
    26   23   25 du   
    27   25   26 du   
    28   27   28 du   
    29   27   31 du   
    30   28   29 du   
    31   29   30 du   
    32   30   31 du   
    33   30   32 du   
    34   31   36 du   
    35   32   33 du   
    36   32   34 du   
    37   34   35 du   
    38   35   36 du   
@<TRIPOS>SUBSTRUCTURE
     1 48F306      1 GROUP   
@<TRIPOS>SET

