#    Name: 6dwn_5_AQ4
#    Modification time : Fri May 22 19:34:41 2020

@<TRIPOS>MOLECULE
6dwn_5_AQ4
   36    38     1     0     0
SMALL
NO_CHARGES


@<TRIPOS>ATOM
      1 C1        -53.6650 -129.3280  -10.7870 C.1       1 AQ4602      0.0000 
      2 C2        -52.5050 -129.1740  -10.8400 C.1       1 AQ4602      0.0000 
      3 C3        -51.1010 -128.9880  -10.9050 C.ar      1 AQ4602      0.0000 
      4 C4        -50.6530 -127.6850  -10.8120 C.ar      1 AQ4602      0.0000 
      5 C5        -49.2830 -127.4380  -10.8840 C.ar      1 AQ4602      0.0000 
      6 N1        -48.7420 -126.1100  -10.7670 N.pl3     1 AQ4602      0.0000 
      7 C6        -47.8280 -125.6270  -11.7220 C.ar      1 AQ4602      0.0000 
      8 C7        -47.6500 -124.2220  -11.8490 C.ar      1 AQ4602      0.0000 
      9 C8        -48.3530 -123.2770  -11.0810 C.ar      1 AQ4602      0.0000 
     10 C9        -48.1360 -121.9390  -11.2620 C.ar      1 AQ4602      0.0000 
     11 O1        -48.7940 -120.9860  -10.5410 O.3       1 AQ4602      0.0000 
     12 C13       -47.1890 -121.4790  -12.2340 C.ar      1 AQ4602      0.0000 
     13 O3        -47.0360 -120.1370  -12.3550 O.3       1 AQ4602      0.0000 
     14 C14       -47.9370 -119.6020  -13.3400 C.3       1 AQ4602      0.0000 
     15 C15       -47.1210 -118.4550  -13.8480 C.3       1 AQ4602      0.0000 
     16 C17       -46.5100 -122.4070  -12.9800 C.ar      1 AQ4602      0.0000 
     17 C18       -46.7270 -123.7770  -12.7980 C.ar      1 AQ4602      0.0000 
     18 N2        -45.9940 -124.6460  -13.5940 N.ar      1 AQ4602      0.0000 
     19 C19       -46.2420 -125.9340  -13.3800 C.ar      1 AQ4602      0.0000 
     20 N3        -47.1180 -126.4960  -12.4840 N.ar      1 AQ4602      0.0000 
     21 C20       -48.3820 -128.4930  -11.0090 C.ar      1 AQ4602      0.0000 
     22 C21       -48.8520 -129.7930  -11.1060 C.ar      1 AQ4602      0.0000 
     23 C22       -50.2140 -130.0470  -11.0520 C.ar      1 AQ4602      0.0000 
     24 H1        -54.5690 -129.4480  -10.7450 H         1 AQ4602      0.0000 
     25 H2        -51.3320 -127.0600  -10.7040 H         1 AQ4602      0.0000 
     26 H3        -49.3050 -125.5210  -10.4690 H         1 AQ4602      0.0000 
     27 H4        -48.9570 -123.6170  -10.4620 H         1 AQ4602      0.0000 
     28 H12       -48.7060 -119.3420  -12.8670 H         1 AQ4602      0.0000 
     29 H13       -48.0630 -120.2880  -13.9690 H         1 AQ4602      0.0000 
     30 H14       -46.2490 -118.5940  -14.1770 H         1 AQ4602      0.0000 
     31 H15       -47.4180 -118.0520  -14.6430 H         1 AQ4602      0.0000 
     32 H19       -45.8780 -122.2420  -13.6410 H         1 AQ4602      0.0000 
     33 H20       -45.7660 -126.5420  -13.8980 H         1 AQ4602      0.0000 
     34 H21       -47.4620 -128.3660  -11.0310 H         1 AQ4602      0.0000 
     35 H22       -48.1600 -130.4030  -11.2040 H         1 AQ4602      0.0000 
     36 H23       -50.6310 -130.8750  -11.1040 H         1 AQ4602      0.0000 
@<TRIPOS>BOND
     1    1    2 3    
     2    2    3 1    
     3    1   24 1    
     4    3    4 ar   
     5    3   23 ar   
     6    4    5 ar   
     7    5    6 1    
     8    4   25 1    
     9    5   21 ar   
    10    6    7 1    
    11    7    8 ar   
    12    6   26 1    
    13    7   20 ar   
    14    8    9 ar   
    15    8   17 ar   
    16    9   10 ar   
    17   10   11 1    
    18    9   27 1    
    19   10   12 ar   
    20   12   13 1    
    21   12   16 ar   
    22   13   14 1    
    23   14   15 1    
    24   16   17 ar   
    25   14   28 1    
    26   14   29 1    
    27   15   30 1    
    28   15   31 1    
    29   17   18 ar   
    30   16   32 1    
    31   18   19 ar   
    32   19   20 ar   
    33   21   22 ar   
    34   19   33 1    
    35   22   23 ar   
    36   21   34 1    
    37   22   35 1    
    38   23   36 1    
@<TRIPOS>SUBSTRUCTURE
     1 AQ4602      1 GROUP   
@<TRIPOS>SET

