#    Name: 6dwn_1_AQ4
#    Modification time : Fri May 22 19:34:21 2020

@<TRIPOS>MOLECULE
6dwn_1_AQ4
   52    54     1     0     0
SMALL
NO_CHARGES


@<TRIPOS>ATOM
      1 C1        -20.5490  -39.8360   31.7370 C.1       1 AQ4602      0.0000 
      2 C2        -19.5790  -39.7870   31.0860 C.1       1 AQ4602      0.0000 
      3 C3        -18.4050  -39.7250   30.3020 C.ar      1 AQ4602      0.0000 
      4 C4        -17.8410  -38.4740   30.1570 C.ar      1 AQ4602      0.0000 
      5 C5        -16.6940  -38.3320   29.3860 C.ar      1 AQ4602      0.0000 
      6 N1        -16.0650  -37.0300   29.2360 N.pl3     1 AQ4602      0.0000 
      7 C6        -15.2320  -36.6980   28.1410 C.ar      1 AQ4602      0.0000 
      8 C7        -14.8240  -35.3440   28.0090 C.ar      1 AQ4602      0.0000 
      9 C8        -15.2130  -34.3200   28.9030 C.ar      1 AQ4602      0.0000 
     10 C9        -14.7770  -33.0360   28.7080 C.ar      1 AQ4602      0.0000 
     11 O1        -15.1100  -31.9720   29.5170 O.3       1 AQ4602      0.0000 
     12 C10       -15.6940  -32.3450   30.7660 C.3       1 AQ4602      0.0000 
     13 C11       -15.9220  -31.0050   31.5190 C.3       1 AQ4602      0.0000 
     14 O2        -17.2790  -30.9490   32.0110 O.3       1 AQ4602      0.0000 
     15 C12       -17.7630  -29.6200   31.7890 C.3       1 AQ4602      0.0000 
     16 C13       -13.9380  -32.7240   27.6050 C.ar      1 AQ4602      0.0000 
     17 O3        -13.5710  -31.4390   27.4810 O.3       1 AQ4602      0.0000 
     18 C14       -13.4820  -31.0430   26.1120 C.3       1 AQ4602      0.0000 
     19 C15       -13.9640  -29.5830   26.2010 C.3       1 AQ4602      0.0000 
     20 O4        -14.7610  -29.2690   25.1040 O.3       1 AQ4602      0.0000 
     21 C16       -15.7190  -28.2540   25.5290 C.3       1 AQ4602      0.0000 
     22 C17       -13.5670  -33.7220   26.7440 C.ar      1 AQ4602      0.0000 
     23 C18       -14.0000  -35.0270   26.9290 C.ar      1 AQ4602      0.0000 
     24 N2        -13.5710  -35.9720   26.0010 N.ar      1 AQ4602      0.0000 
     25 C19       -14.0090  -37.2030   26.2330 C.ar      1 AQ4602      0.0000 
     26 N3        -14.8210  -37.6400   27.2550 N.ar      1 AQ4602      0.0000 
     27 C20       -16.1020  -39.4570   28.7960 C.ar      1 AQ4602      0.0000 
     28 C21       -16.6870  -40.7090   28.9570 C.ar      1 AQ4602      0.0000 
     29 C22       -17.8390  -40.8480   29.7110 C.ar      1 AQ4602      0.0000 
     30 H1        -21.3070  -39.8750   32.2450 H         1 AQ4602      0.0000 
     31 H2        -18.3000  -37.8040   30.6090 H         1 AQ4602      0.0000 
     32 H3        -16.5760  -36.3780   29.4940 H         1 AQ4602      0.0000 
     33 H4        -15.7650  -34.5730   29.6050 H         1 AQ4602      0.0000 
     34 H5        -16.5100  -32.8030   30.6850 H         1 AQ4602      0.0000 
     35 H6        -15.1550  -32.9110   31.2870 H         1 AQ4602      0.0000 
     36 H7        -15.7980  -31.0980   32.4450 H         1 AQ4602      0.0000 
     37 H8        -16.3040  -30.3510   30.9640 H         1 AQ4602      0.0000 
     38 H9        -18.7020  -29.6010   31.7790 H         1 AQ4602      0.0000 
     39 H10       -17.4700  -29.0380   32.4650 H         1 AQ4602      0.0000 
     40 H11       -17.4590  -29.2840   30.9670 H         1 AQ4602      0.0000 
     41 H12       -14.0700  -31.6090   25.6480 H         1 AQ4602      0.0000 
     42 H13       -12.5750  -31.1300   25.8850 H         1 AQ4602      0.0000 
     43 H14       -13.6770  -28.8040   25.7630 H         1 AQ4602      0.0000 
     44 H15       -14.7890  -29.2140   26.4530 H         1 AQ4602      0.0000 
     45 H16       -16.3370  -28.0430   24.8550 H         1 AQ4602      0.0000 
     46 H17       -15.3010  -27.4480   25.7700 H         1 AQ4602      0.0000 
     47 H18       -16.2200  -28.5270   26.2750 H         1 AQ4602      0.0000 
     48 H19       -13.0230  -33.6420   25.9950 H         1 AQ4602      0.0000 
     49 H20       -13.7380  -37.8610   25.6360 H         1 AQ4602      0.0000 
     50 H21       -15.3230  -39.4080   28.2930 H         1 AQ4602      0.0000 
     51 H22       -16.2120  -41.3710   28.5110 H         1 AQ4602      0.0000 
     52 H23       -18.3060  -41.6320   29.8820 H         1 AQ4602      0.0000 
@<TRIPOS>BOND
     1    1    2 3    
     2    2    3 1    
     3    1   30 1    
     4    3    4 ar   
     5    3   29 ar   
     6    4    5 ar   
     7    5    6 1    
     8    4   31 1    
     9    5   27 ar   
    10    6    7 1    
    11    7    8 ar   
    12    6   32 1    
    13    7   26 ar   
    14    8    9 ar   
    15    8   23 ar   
    16    9   10 ar   
    17   10   11 1    
    18    9   33 1    
    19   10   16 ar   
    20   11   12 1    
    21   12   13 1    
    22   13   14 1    
    23   12   34 1    
    24   12   35 1    
    25   14   15 1    
    26   13   36 1    
    27   13   37 1    
    28   16   17 1    
    29   15   38 1    
    30   15   39 1    
    31   15   40 1    
    32   16   22 ar   
    33   17   18 1    
    34   18   19 1    
    35   19   20 1    
    36   18   41 1    
    37   18   42 1    
    38   20   21 1    
    39   19   43 1    
    40   19   44 1    
    41   22   23 ar   
    42   21   45 1    
    43   21   46 1    
    44   21   47 1    
    45   23   24 ar   
    46   22   48 1    
    47   24   25 ar   
    48   25   26 ar   
    49   27   28 ar   
    50   25   49 1    
    51   28   29 ar   
    52   27   50 1    
    53   28   51 1    
    54   29   52 1    
@<TRIPOS>SUBSTRUCTURE
     1 AQ4602      1 GROUP   
@<TRIPOS>SET

