#    Name: 6dwn_2_CPS
#    Modification time : Fri May 22 19:34:26 2020

@<TRIPOS>MOLECULE
6dwn_2_CPS
   65    68     1     0     0
SMALL
NO_CHARGES


@<TRIPOS>ATOM
      1 C1          4.1230  -40.4340   19.8940 C.3       1 CPS603      0.0000 
      2 C2          3.8310  -39.5890   18.6420 C.3       1 CPS603      0.0000 
      3 C3          1.3140  -39.7090   19.1010 C.3       1 CPS603      0.0000 
      4 C4         -0.1280  -39.7180   18.5100 C.3       1 CPS603      0.0000 
      5 C5         -0.1820  -38.8410   17.2790 C.3       1 CPS603      0.0000 
      6 C6          0.8840  -39.4400   16.3070 C.3       1 CPS603      0.0000 
      7 C7          0.4450  -38.9080   14.9660 C.3       1 CPS603      0.0000 
      8 C8         -1.0070  -39.3320   15.0040 C.3       1 CPS603      0.0000 
      9 C9         -1.5100  -38.9260   16.4130 C.3       1 CPS603      0.0000 
     10 C10         0.1500  -37.3770   17.7220 C.3       1 CPS603      0.0000 
     11 C11         3.9650  -38.1150   19.0450 C.3       1 CPS603      0.0000 
     12 C12         4.1530  -41.9210   19.6030 C.3       1 CPS603      0.0000 
     13 C13         5.3140  -42.1620   18.6630 C.3       1 CPS603      0.0000 
     14 C14         5.0370  -41.4480   17.3750 C.3       1 CPS603      0.0000 
     15 C15         4.9650  -39.9310   17.6440 C.3       1 CPS603      0.0000 
     16 C16         4.7480  -39.1890   16.3150 C.3       1 CPS603      0.0000 
     17 C17         3.3300  -39.4020   15.7290 C.3       1 CPS603      0.0000 
     18 C18         2.2690  -39.0700   16.7820 C.3       1 CPS603      0.0000 
     19 C19         2.4360  -39.9010   18.0580 C.3       1 CPS603      0.0000 
     20 C20        -2.3040  -37.5680   16.4080 C.3       1 CPS603      0.0000 
     21 C21        -2.9820  -37.3650   17.7540 C.3       1 CPS603      0.0000 
     22 C22        -3.4110  -37.5420   15.3580 C.3       1 CPS603      0.0000 
     23 C23        -4.0890  -36.1800   15.4170 C.3       1 CPS603      0.0000 
     24 O2          5.3940  -43.5420   18.3500 O.3       1 CPS603      0.0000 
     25 O3          3.1010  -40.7290   15.3120 O.3       1 CPS603      0.0000 
     26 O4         -0.4790  -41.0250   18.0960 O.3       1 CPS603      0.0000 
     27 H1          4.9600  -40.1460   20.2900 H         1 CPS603      0.0000 
     28 H1A         3.4680  -40.2320   20.5800 H         1 CPS603      0.0000 
     29 H3          1.4560  -38.8700   19.5660 H         1 CPS603      0.0000 
     30 H3A         1.3830  -40.4080   19.7700 H         1 CPS603      0.0000 
     31 H4         -0.7500  -39.3740   19.1700 H         1 CPS603      0.0000 
     32 H6          0.8230  -40.4080   16.2960 H         1 CPS603      0.0000 
     33 H7          0.5530  -37.9460   14.8930 H         1 CPS603      0.0000 
     34 H7A         0.9330  -39.3070   14.2280 H         1 CPS603      0.0000 
     35 H8         -1.5230  -38.9020   14.3040 H         1 CPS603      0.0000 
     36 H8A        -1.1040  -40.2850   14.8530 H         1 CPS603      0.0000 
     37 H9         -2.1050  -39.6130   16.7530 H         1 CPS603      0.0000 
     38 H10         0.9580  -37.3280   18.2570 H         1 CPS603      0.0000 
     39 H10A        0.2850  -36.7840   16.9670 H         1 CPS603      0.0000 
     40 H10B       -0.5570  -36.9840   18.2570 H         1 CPS603      0.0000 
     41 H11         4.8230  -37.9660   19.4720 H         1 CPS603      0.0000 
     42 H11A        3.9010  -37.5500   18.2590 H         1 CPS603      0.0000 
     43 H11B        3.2580  -37.8760   19.6640 H         1 CPS603      0.0000 
     44 H12         4.2750  -42.4530   20.4050 H         1 CPS603      0.0000 
     45 H12A        3.3340  -42.2330   19.1870 H         1 CPS603      0.0000 
     46 H13         6.1500  -41.8640   19.0540 H         1 CPS603      0.0000 
     47 H14         5.7290  -41.6410   16.7240 H         1 CPS603      0.0000 
     48 H14A        4.2040  -41.7600   16.9860 H         1 CPS603      0.0000 
     49 H15         5.7880  -39.6240   18.0550 H         1 CPS603      0.0000 
     50 H16         4.9160  -38.2420   16.4410 H         1 CPS603      0.0000 
     51 H16A        5.4170  -39.4730   15.6720 H         1 CPS603      0.0000 
     52 H17         3.1770  -38.8160   14.9710 H         1 CPS603      0.0000 
     53 H18         2.3660  -38.1210   16.9580 H         1 CPS603      0.0000 
     54 H19         2.4090  -40.8370   17.8030 H         1 CPS603      0.0000 
     55 H20        -1.6730  -36.8660   16.1800 H         1 CPS603      0.0000 
     56 H21        -2.5600  -37.8960   18.4480 H         1 CPS603      0.0000 
     57 H21A       -2.9420  -36.4370   18.0350 H         1 CPS603      0.0000 
     58 H21B       -3.9170  -37.6190   17.7220 H         1 CPS603      0.0000 
     59 H22        -3.0460  -37.7020   14.4740 H         1 CPS603      0.0000 
     60 H22A       -4.0540  -38.2490   15.5250 H         1 CPS603      0.0000 
     61 H23        -4.9300  -36.2170   15.8890 H         1 CPS603      0.0000 
     62 H23A       -3.5370  -35.5050   15.8410 H         1 CPS603      0.0000 
     63 HO2         4.6900  -43.8900   18.6750 H         1 CPS603      0.0000 
     64 HO3         2.9820  -40.7270   14.4710 H         1 CPS603      0.0000 
     65 HO4        -1.1340  -41.2770   18.5760 H         1 CPS603      0.0000 
@<TRIPOS>BOND
     1    1    2 1    
     2    1   12 1    
     3    1   27 1    
     4    1   28 1    
     5    2   11 1    
     6    2   15 1    
     7    2   19 1    
     8    3    4 1    
     9    3   19 1    
    10    3   29 1    
    11    3   30 1    
    12    4    5 1    
    13    4   26 1    
    14    4   31 1    
    15   26   65 1    
    16    5    6 1    
    17    5    9 1    
    18    5   10 1    
    19    6    7 1    
    20    6   18 1    
    21    6   32 1    
    22    7    8 1    
    23    7   33 1    
    24    7   34 1    
    25    8    9 1    
    26    8   35 1    
    27    8   36 1    
    28    9   20 1    
    29    9   37 1    
    30   10   38 1    
    31   10   39 1    
    32   10   40 1    
    33   11   41 1    
    34   11   42 1    
    35   11   43 1    
    36   12   13 1    
    37   12   44 1    
    38   12   45 1    
    39   13   14 1    
    40   13   24 1    
    41   13   46 1    
    42   24   63 1    
    43   14   15 1    
    44   14   47 1    
    45   14   48 1    
    46   15   16 1    
    47   15   49 1    
    48   16   17 1    
    49   16   50 1    
    50   16   51 1    
    51   17   18 1    
    52   17   25 1    
    53   17   52 1    
    54   25   64 1    
    55   18   19 1    
    56   18   53 1    
    57   19   54 1    
    58   20   21 1    
    59   20   22 1    
    60   20   55 1    
    61   21   56 1    
    62   21   57 1    
    63   21   58 1    
    64   22   23 1    
    65   22   59 1    
    66   22   60 1    
    67   23   61 1    
    68   23   62 1    
@<TRIPOS>SUBSTRUCTURE
     1 CPS603      1 GROUP   
@<TRIPOS>SET

