#    Name: 6dwn_6_AQ4
#    Modification time : Fri May 22 19:34:46 2020

@<TRIPOS>MOLECULE
6dwn_6_AQ4
   33    35     1     0     0
SMALL
NO_CHARGES


@<TRIPOS>ATOM
      1 C1        -19.8450  -87.3190   59.2960 C.1       1 AQ4602      0.0000 
      2 C2        -18.6980  -87.1030   59.4060 C.1       1 AQ4602      0.0000 
      3 C3        -17.3070  -86.8400   59.5380 C.ar      1 AQ4602      0.0000 
      4 C4        -16.6160  -87.6260   60.4460 C.ar      1 AQ4602      0.0000 
      5 C5        -15.2520  -87.4030   60.6290 C.ar      1 AQ4602      0.0000 
      6 N1        -14.4630  -88.2020   61.5370 N.pl3     1 AQ4602      0.0000 
      7 C6        -13.5280  -87.5950   62.4100 C.ar      1 AQ4602      0.0000 
      8 C7        -13.0170  -88.3540   63.5010 C.ar      1 AQ4602      0.0000 
      9 C8        -13.3990  -89.6800   63.7730 C.ar      1 AQ4602      0.0000 
     10 C9        -12.8710  -90.3450   64.8480 C.ar      1 AQ4602      0.0000 
     11 O1        -13.2020  -91.6380   65.1570 O.3       1 AQ4602      0.0000 
     12 C10       -14.5890  -91.8850   64.9840 C.3       1 AQ4602      0.0000 
     13 C13       -11.9180  -89.7050   65.7030 C.ar      1 AQ4602      0.0000 
     14 O3        -11.4400  -90.4300   66.7390 O.3       1 AQ4602      0.0000 
     15 C17       -11.5520  -88.4130   65.4320 C.ar      1 AQ4602      0.0000 
     16 C18       -12.0890  -87.7270   64.3400 C.ar      1 AQ4602      0.0000 
     17 N2        -11.6590  -86.4210   64.1380 N.ar      1 AQ4602      0.0000 
     18 C19       -12.2000  -85.8160   63.0860 C.ar      1 AQ4602      0.0000 
     19 N3        -13.1180  -86.3160   62.1940 N.ar      1 AQ4602      0.0000 
     20 C20       -14.5910  -86.4270   59.8820 C.ar      1 AQ4602      0.0000 
     21 C21       -15.3020  -85.6470   58.9850 C.ar      1 AQ4602      0.0000 
     22 C22       -16.6610  -85.8510   58.8060 C.ar      1 AQ4602      0.0000 
     23 H1        -20.7380  -87.4870   59.2110 H         1 AQ4602      0.0000 
     24 H2        -17.1440  -88.2610   60.8720 H         1 AQ4602      0.0000 
     25 H3        -14.8900  -88.8780   61.8750 H         1 AQ4602      0.0000 
     26 H4        -14.0150  -90.0580   63.1900 H         1 AQ4602      0.0000 
     27 H5        -15.1060  -91.1560   65.2710 H         1 AQ4602      0.0000 
     28 H6        -14.8090  -91.9940   64.0780 H         1 AQ4602      0.0000 
     29 H19       -10.9520  -87.8890   65.9090 H         1 AQ4602      0.0000 
     30 H20       -11.9310  -84.9410   62.9250 H         1 AQ4602      0.0000 
     31 H21       -13.6790  -86.2710   59.9580 H         1 AQ4602      0.0000 
     32 H22       -14.7570  -85.0230   58.5650 H         1 AQ4602      0.0000 
     33 H23       -17.2250  -85.3890   58.2300 H         1 AQ4602      0.0000 
@<TRIPOS>BOND
     1    1    2 3    
     2    2    3 1    
     3    1   23 1    
     4    3    4 ar   
     5    3   22 ar   
     6    4    5 ar   
     7    5    6 1    
     8    4   24 1    
     9    5   20 ar   
    10    6    7 1    
    11    7    8 ar   
    12    6   25 1    
    13    7   19 ar   
    14    8    9 ar   
    15    8   16 ar   
    16    9   10 ar   
    17   10   11 1    
    18    9   26 1    
    19   10   13 ar   
    20   11   12 1    
    21   13   14 1    
    22   12   27 1    
    23   12   28 1    
    24   13   15 ar   
    25   15   16 ar   
    26   16   17 ar   
    27   15   29 1    
    28   17   18 ar   
    29   18   19 ar   
    30   20   21 ar   
    31   18   30 1    
    32   21   22 ar   
    33   20   31 1    
    34   21   32 1    
    35   22   33 1    
@<TRIPOS>SUBSTRUCTURE
     1 AQ4602      1 GROUP   
@<TRIPOS>SET

