#    Name: 6dwn_3_AQ4
#    Modification time : Fri May 22 19:34:31 2020

@<TRIPOS>MOLECULE
6dwn_3_AQ4
   52    54     1     0     0
SMALL
NO_CHARGES


@<TRIPOS>ATOM
      1 C1        -24.6330  -82.6510    8.0970 C.1       1 AQ4602      0.0000 
      2 C2        -25.5930  -82.3190    7.5130 C.1       1 AQ4602      0.0000 
      3 C3        -26.7560  -81.9150    6.8060 C.ar      1 AQ4602      0.0000 
      4 C4        -27.0630  -82.6450    5.6730 C.ar      1 AQ4602      0.0000 
      5 C5        -28.1860  -82.2960    4.9210 C.ar      1 AQ4602      0.0000 
      6 N1        -28.5550  -83.0670    3.7360 N.pl3     1 AQ4602      0.0000 
      7 C6        -29.3210  -82.5290    2.6740 C.ar      1 AQ4602      0.0000 
      8 C7        -29.4430  -83.2940    1.4830 C.ar      1 AQ4602      0.0000 
      9 C8        -28.8330  -84.5490    1.2950 C.ar      1 AQ4602      0.0000 
     10 C9        -28.9950  -85.2220    0.1110 C.ar      1 AQ4602      0.0000 
     11 O1        -28.4480  -86.4480   -0.1640 O.3       1 AQ4602      0.0000 
     12 C10       -27.5220  -86.9180    0.8060 C.3       1 AQ4602      0.0000 
     13 C11       -26.9360  -88.2080    0.1920 C.3       1 AQ4602      0.0000 
     14 O2        -25.6990  -88.5070    0.8240 O.3       1 AQ4602      0.0000 
     15 C12       -24.7800  -88.8630   -0.2100 C.3       1 AQ4602      0.0000 
     16 C13       -29.7770  -84.6710   -0.9380 C.ar      1 AQ4602      0.0000 
     17 O3        -29.8660  -85.4470   -2.0730 O.3       1 AQ4602      0.0000 
     18 C14       -30.4190  -84.8140   -3.2730 C.3       1 AQ4602      0.0000 
     19 C15       -29.2110  -83.9470   -3.7270 C.3       1 AQ4602      0.0000 
     20 O4        -28.1550  -84.7900   -4.1210 O.3       1 AQ4602      0.0000 
     21 C16       -27.5040  -84.1470   -5.2570 C.3       1 AQ4602      0.0000 
     22 C17       -30.3690  -83.4470   -0.7460 C.ar      1 AQ4602      0.0000 
     23 C18       -30.2090  -82.7530    0.4530 C.ar      1 AQ4602      0.0000 
     24 N2        -30.8430  -81.5280    0.5540 N.ar      1 AQ4602      0.0000 
     25 C19       -30.6620  -80.9100    1.7110 C.ar      1 AQ4602      0.0000 
     26 N3        -29.9360  -81.3300    2.7950 N.ar      1 AQ4602      0.0000 
     27 C20       -29.0050  -81.2350    5.3370 C.ar      1 AQ4602      0.0000 
     28 C21       -28.6740  -80.5120    6.4780 C.ar      1 AQ4602      0.0000 
     29 C22       -27.5510  -80.8490    7.2160 C.ar      1 AQ4602      0.0000 
     30 H1        -23.8860  -82.9100    8.5520 H         1 AQ4602      0.0000 
     31 H2        -26.4680  -83.3370    5.5020 H         1 AQ4602      0.0000 
     32 H3        -27.9240  -83.6020    3.4730 H         1 AQ4602      0.0000 
     33 H4        -28.3320  -84.8750    2.0060 H         1 AQ4602      0.0000 
     34 H5        -26.8270  -86.3150    0.9970 H         1 AQ4602      0.0000 
     35 H6        -27.9050  -87.1120    1.6410 H         1 AQ4602      0.0000 
     36 H7        -27.1560  -88.9680    0.6980 H         1 AQ4602      0.0000 
     37 H8        -26.3190  -88.0220   -0.4910 H         1 AQ4602      0.0000 
     38 H9        -24.5000  -88.1040   -0.6880 H         1 AQ4602      0.0000 
     39 H10       -24.0160  -89.2760    0.1470 H         1 AQ4602      0.0000 
     40 H11       -25.1730  -89.4590   -0.8190 H         1 AQ4602      0.0000 
     41 H12       -31.1550  -84.3140   -2.9760 H         1 AQ4602      0.0000 
     42 H13       -30.6200  -85.5200   -3.8590 H         1 AQ4602      0.0000 
     43 H14       -28.4070  -83.7230   -3.2960 H         1 AQ4602      0.0000 
     44 H15       -28.8880  -83.7260   -4.5810 H         1 AQ4602      0.0000 
     45 H16       -27.2700  -84.7610   -5.9270 H         1 AQ4602      0.0000 
     46 H17       -26.7130  -83.7060   -5.0110 H         1 AQ4602      0.0000 
     47 H18       -28.0530  -83.5030   -5.6640 H         1 AQ4602      0.0000 
     48 H19       -30.9010  -82.9800   -1.3470 H         1 AQ4602      0.0000 
     49 H20       -31.0760  -80.0850    1.8110 H         1 AQ4602      0.0000 
     50 H21       -29.7740  -80.9860    4.8780 H         1 AQ4602      0.0000 
     51 H22       -29.2810  -79.8280    6.6410 H         1 AQ4602      0.0000 
     52 H23       -27.2440  -80.4350    7.9890 H         1 AQ4602      0.0000 
@<TRIPOS>BOND
     1    1    2 3    
     2    2    3 1    
     3    1   30 1    
     4    3    4 ar   
     5    3   29 ar   
     6    4    5 ar   
     7    5    6 1    
     8    4   31 1    
     9    5   27 ar   
    10    6    7 1    
    11    7    8 ar   
    12    6   32 1    
    13    7   26 ar   
    14    8    9 ar   
    15    8   23 ar   
    16    9   10 ar   
    17   10   11 1    
    18    9   33 1    
    19   10   16 ar   
    20   11   12 1    
    21   12   13 1    
    22   13   14 1    
    23   12   34 1    
    24   12   35 1    
    25   14   15 1    
    26   13   36 1    
    27   13   37 1    
    28   16   17 1    
    29   15   38 1    
    30   15   39 1    
    31   15   40 1    
    32   16   22 ar   
    33   17   18 1    
    34   18   19 1    
    35   19   20 1    
    36   18   41 1    
    37   18   42 1    
    38   20   21 1    
    39   19   43 1    
    40   19   44 1    
    41   22   23 ar   
    42   21   45 1    
    43   21   46 1    
    44   21   47 1    
    45   23   24 ar   
    46   22   48 1    
    47   24   25 ar   
    48   25   26 ar   
    49   27   28 ar   
    50   25   49 1    
    51   28   29 ar   
    52   27   50 1    
    53   28   51 1    
    54   29   52 1    
@<TRIPOS>SUBSTRUCTURE
     1 AQ4602      1 GROUP   
@<TRIPOS>SET

