#    Name: 6dwn_4_CPS
#    Modification time : Fri May 22 19:34:35 2020

@<TRIPOS>MOLECULE
6dwn_4_CPS
   72    75     1     0     0
SMALL
NO_CHARGES


@<TRIPOS>ATOM
      1 C1        -50.0190  -74.1800    0.1550 C.3       1 CPS603      0.0000 
      2 C2        -49.4190  -75.4560   -0.4830 C.3       1 CPS603      0.0000 
      3 C3        -47.3530  -74.1980   -1.2450 C.3       1 CPS603      0.0000 
      4 C4        -46.3970  -73.8750   -2.3960 C.3       1 CPS603      0.0000 
      5 C5        -45.9240  -75.1820   -3.0620 C.3       1 CPS603      0.0000 
      6 C6        -47.1610  -76.0060   -3.5120 C.3       1 CPS603      0.0000 
      7 C7        -46.5220  -77.1430   -4.3130 C.3       1 CPS603      0.0000 
      8 C8        -45.3170  -76.4730   -4.9900 C.3       1 CPS603      0.0000 
      9 C9        -45.2430  -75.0470   -4.4420 C.3       1 CPS603      0.0000 
     10 C10       -45.0300  -75.9710   -2.0710 C.3       1 CPS603      0.0000 
     11 C11       -48.6650  -76.2030    0.6200 C.3       1 CPS603      0.0000 
     12 C12       -50.9090  -73.4100   -0.7970 C.3       1 CPS603      0.0000 
     13 C13       -52.0850  -74.3150   -1.1220 C.3       1 CPS603      0.0000 
     14 C14       -51.5600  -75.5200   -1.8720 C.3       1 CPS603      0.0000 
     15 C15       -50.6330  -76.3120   -0.9150 C.3       1 CPS603      0.0000 
     16 C16       -50.1440  -77.6080   -1.5760 C.3       1 CPS603      0.0000 
     17 C17       -49.1540  -77.3550   -2.7330 C.3       1 CPS603      0.0000 
     18 C18       -47.9920  -76.4310   -2.3020 C.3       1 CPS603      0.0000 
     19 C19       -48.4900  -75.1220   -1.6720 C.3       1 CPS603      0.0000 
     20 C20       -43.7750  -74.5390   -4.3350 C.3       1 CPS603      0.0000 
     21 C21       -43.7530  -73.0230   -4.2030 C.3       1 CPS603      0.0000 
     22 C22       -43.0230  -74.9440   -5.6110 C.3       1 CPS603      0.0000 
     23 C23       -41.7650  -74.0890   -5.7960 C.3       1 CPS603      0.0000 
     24 C24       -41.0520  -74.7190   -6.9840 C.2       1 CPS603      0.0000 
     25 C25       -39.7200  -74.3290   -8.9150 C.3       1 CPS603      0.0000 
     26 N1        -40.4260  -73.7640   -7.7500 N.am      1 CPS603      0.0000 
     27 O1        -41.0170  -75.8830   -7.2500 O.2       1 CPS603      0.0000 
     28 O2        -52.9870  -73.6320   -1.9750 O.3       1 CPS603      0.0000 
     29 O3        -49.7930  -76.7420   -3.8330 O.3       1 CPS603      0.0000 
     30 O4        -47.0570  -73.1080   -3.3850 O.3       1 CPS603      0.0000 
     31 H1        -50.5040  -74.4190    0.9600 H         1 CPS603      0.0000 
     32 H1A       -49.3010  -73.6160    0.4840 H         1 CPS603      0.0000 
     33 H3        -46.8570  -74.6090   -0.5190 H         1 CPS603      0.0000 
     34 H3A       -47.7220  -73.3740   -0.8910 H         1 CPS603      0.0000 
     35 H4        -45.6210  -73.4050   -2.0510 H         1 CPS603      0.0000 
     36 H6        -47.7190  -75.4580   -4.0850 H         1 CPS603      0.0000 
     37 H7        -46.2470  -77.8730   -3.7370 H         1 CPS603      0.0000 
     38 H7A       -47.1400  -77.5100   -4.9650 H         1 CPS603      0.0000 
     39 H8        -44.4980  -76.9600   -4.8090 H         1 CPS603      0.0000 
     40 H8A       -45.4140  -76.4720   -5.9560 H         1 CPS603      0.0000 
     41 H9        -45.7260  -74.4310   -5.0150 H         1 CPS603      0.0000 
     42 H10       -45.5180  -76.2590   -1.2830 H         1 CPS603      0.0000 
     43 H10A      -44.6550  -76.7710   -2.4690 H         1 CPS603      0.0000 
     44 H10B      -44.2800  -75.4450   -1.7520 H         1 CPS603      0.0000 
     45 H11       -49.2740  -76.4300    1.3400 H         1 CPS603      0.0000 
     46 H11A      -48.2800  -77.0180    0.2630 H         1 CPS603      0.0000 
     47 H11B      -47.9540  -75.6440    0.9710 H         1 CPS603      0.0000 
     48 H12       -51.2380  -72.5830   -0.4110 H         1 CPS603      0.0000 
     49 H12A      -50.4530  -73.1700   -1.6190 H         1 CPS603      0.0000 
     50 H13       -52.5570  -74.5930   -0.3210 H         1 CPS603      0.0000 
     51 H14       -52.2900  -76.0800   -2.1780 H         1 CPS603      0.0000 
     52 H14A      -51.0750  -75.2470   -2.6660 H         1 CPS603      0.0000 
     53 H15       -51.1250  -76.5400   -0.1100 H         1 CPS603      0.0000 
     54 H16       -49.7330  -78.1790   -0.9080 H         1 CPS603      0.0000 
     55 H16A      -50.9060  -78.1160   -1.8970 H         1 CPS603      0.0000 
     56 H17       -48.7340  -78.1820   -3.0180 H         1 CPS603      0.0000 
     57 H18       -47.4680  -76.9320   -1.6570 H         1 CPS603      0.0000 
     58 H19       -49.0200  -74.6590   -2.3390 H         1 CPS603      0.0000 
     59 H20       -43.3300  -74.9480   -3.5760 H         1 CPS603      0.0000 
     60 H21       -44.4400  -72.7100   -3.5940 H         1 CPS603      0.0000 
     61 H21A      -42.9000  -72.7080   -3.8660 H         1 CPS603      0.0000 
     62 H21B      -43.9040  -72.5900   -5.0590 H         1 CPS603      0.0000 
     63 H22       -42.7790  -75.8820   -5.5650 H         1 CPS603      0.0000 
     64 H22A      -43.6040  -74.8460   -6.3810 H         1 CPS603      0.0000 
     65 H23       -41.9850  -73.1630   -5.9810 H         1 CPS603      0.0000 
     66 H23A      -41.1990  -74.1080   -5.0080 H         1 CPS603      0.0000 
     67 H25       -40.3550  -74.7480   -9.5170 H         1 CPS603      0.0000 
     68 H25A      -39.0940  -75.0070   -8.6180 H         1 CPS603      0.0000 
     69 HN1       -40.4230  -72.9170   -7.5980 H         1 CPS603      0.0000 
     70 HO2       -53.2570  -72.9610   -1.5290 H         1 CPS603      0.0000 
     71 HO3       -50.2190  -77.3410   -4.2600 H         1 CPS603      0.0000 
     72 HO4       -46.7390  -72.3210   -3.3510 H         1 CPS603      0.0000 
@<TRIPOS>BOND
     1    1    2 1    
     2    1   12 1    
     3    1   31 1    
     4    1   32 1    
     5    2   11 1    
     6    2   15 1    
     7    2   19 1    
     8    3    4 1    
     9    3   19 1    
    10    3   33 1    
    11    3   34 1    
    12    4    5 1    
    13    4   30 1    
    14    4   35 1    
    15   30   72 1    
    16    5    6 1    
    17    5    9 1    
    18    5   10 1    
    19    6    7 1    
    20    6   18 1    
    21    6   36 1    
    22    7    8 1    
    23    7   37 1    
    24    7   38 1    
    25    8    9 1    
    26    8   39 1    
    27    8   40 1    
    28    9   20 1    
    29    9   41 1    
    30   10   42 1    
    31   10   43 1    
    32   10   44 1    
    33   11   45 1    
    34   11   46 1    
    35   11   47 1    
    36   12   13 1    
    37   12   48 1    
    38   12   49 1    
    39   13   14 1    
    40   13   28 1    
    41   13   50 1    
    42   28   70 1    
    43   14   15 1    
    44   14   51 1    
    45   14   52 1    
    46   15   16 1    
    47   15   53 1    
    48   16   17 1    
    49   16   54 1    
    50   16   55 1    
    51   17   18 1    
    52   17   29 1    
    53   17   56 1    
    54   29   71 1    
    55   18   19 1    
    56   18   57 1    
    57   19   58 1    
    58   20   21 1    
    59   20   22 1    
    60   20   59 1    
    61   21   60 1    
    62   21   61 1    
    63   21   62 1    
    64   22   23 1    
    65   22   63 1    
    66   22   64 1    
    67   23   24 1    
    68   23   66 1    
    69   23   65 1    
    70   24   26 am   
    71   24   27 2    
    72   25   26 1    
    73   25   67 1    
    74   25   68 1    
    75   26   69 1    
@<TRIPOS>SUBSTRUCTURE
     1 CPS603      1 GROUP   
@<TRIPOS>SET

