#    Name: 6ma6_1_MYT
#    Modification time : Fri May 22 19:28:04 2020

@<TRIPOS>MOLECULE
6ma6_1_MYT
   17    18     1     0     0
SMALL
NO_CHARGES


@<TRIPOS>ATOM
      1 N1        -18.4900  -16.6530  -12.0030 N.ar      1 MYT603      0.0000 
      2 C2        -18.6440  -16.9900  -10.6920 C.ar      1 MYT603      0.0000 
      3 C3        -19.1130  -18.2970  -10.3410 C.ar      1 MYT603      0.0000 
      4 C4        -19.4120  -19.2250  -11.3480 C.ar      1 MYT603      0.0000 
      5 C5        -19.2440  -18.8450  -12.7180 C.ar      1 MYT603      0.0000 
      6 C6        -18.7690  -17.5210  -12.9990 C.ar      1 MYT603      0.0000 
      7 C7        -19.2400  -18.5960   -8.8930 C.2       1 MYT603      0.0000 
      8 O8        -18.3060  -18.0150   -8.1460 O.2       1 MYT603      0.0000 
      9 C9        -19.6510  -20.0600   -6.7960 C.3       1 MYT603      0.0000 
     10 C10       -19.9950  -19.8730   -8.2460 C.3       1 MYT603      0.0000 
     11 C11       -21.5070  -19.5360   -8.3530 C.3       1 MYT603      0.0000 
     12 C12       -19.5850  -21.2110   -8.9920 C.ar      1 MYT603      0.0000 
     13 C13       -18.2340  -21.6080   -9.1810 C.ar      1 MYT603      0.0000 
     14 N14       -17.9310  -22.7520   -9.8540 N.ar      1 MYT603      0.0000 
     15 C15       -18.8270  -23.5920  -10.3280 C.ar      1 MYT603      0.0000 
     16 C16       -20.2070  -23.2690  -10.1650 C.ar      1 MYT603      0.0000 
     17 C17       -20.5790  -22.0550   -9.4880 C.ar      1 MYT603      0.0000 
@<TRIPOS>BOND
     1    1    2 ar   
     2    1    6 ar   
     3    2    3 ar   
     4    3    4 ar   
     5    3    7 1    
     6    4    5 ar   
     7    5    6 ar   
     8    7    8 2    
     9    7   10 1    
    10    9   10 1    
    11   10   11 1    
    12   10   12 1    
    13   12   13 ar   
    14   12   17 ar   
    15   13   14 ar   
    16   14   15 ar   
    17   15   16 ar   
    18   16   17 ar   
@<TRIPOS>SUBSTRUCTURE
     1 MYT603      1 GROUP   
@<TRIPOS>SET

