#    Name: 6j2h_2_ASP_PHE_ALA_ASN_THR_PHE_LEU_PRO
#    Modification time : Fri May 22 19:34:28 2020

@<TRIPOS>MOLECULE
6j2h_2_ASP_PHE_ALA_ASN_THR_PHE_LEU_PRO
   66    68     8     0     0
SMALL
NO_CHARGES


@<TRIPOS>ATOM
      1 N          14.9250   -0.1540   31.2070 N.4       1 ASP1        0.0000 
      2 CA         16.1220   -0.1700   30.3690 C.3       1 ASP1        0.0000 
      3 C          16.6860   -1.5800   30.2440 C.2       1 ASP1        0.0000 
      4 O          16.5710   -2.3760   31.1790 O.2       1 ASP1        0.0000 
      5 CB         17.1980    0.7640   30.9480 C.3       1 ASP1        0.0000 
      6 CG         17.0000    2.2140   30.5400 C.2       1 ASP1        0.0000 
      7 OD1        15.8740    2.5780   30.1450 O.co2     1 ASP1        0.0000 
      8 OD2        17.9720    2.9930   30.6200 O.co2     1 ASP1        0.0000 
      9 N          17.2910   -1.8860   29.0930 N.am      2 PHE2        0.0000 
     10 CA         18.0990   -3.0950   28.9680 C.3       2 PHE2        0.0000 
     11 C          19.2910   -3.0170   29.9140 C.2       2 PHE2        0.0000 
     12 O          19.7540   -1.9330   30.2770 O.2       2 PHE2        0.0000 
     13 CB         18.6360   -3.2740   27.5440 C.3       2 PHE2        0.0000 
     14 CG         17.5840   -3.4590   26.4810 C.ar      2 PHE2        0.0000 
     15 CD1        16.7520   -4.5670   26.4630 C.ar      2 PHE2        0.0000 
     16 CD2        17.4620   -2.5240   25.4690 C.ar      2 PHE2        0.0000 
     17 CE1        15.8030   -4.7190   25.4650 C.ar      2 PHE2        0.0000 
     18 CE2        16.5170   -2.6680   24.4730 C.ar      2 PHE2        0.0000 
     19 CZ         15.6840   -3.7660   24.4710 C.ar      2 PHE2        0.0000 
     20 N          19.8070   -4.1800   30.2950 N.am      3 ALA3        0.0000 
     21 CA         21.0440   -4.2120   31.0550 C.3       3 ALA3        0.0000 
     22 C          22.2420   -4.0490   30.1210 C.2       3 ALA3        0.0000 
     23 O          22.1100   -3.9890   28.8950 O.2       3 ALA3        0.0000 
     24 CB         21.1610   -5.5150   31.8440 C.3       3 ALA3        0.0000 
     25 N          23.4250   -3.9660   30.7180 N.am      4 ASN4        0.0000 
     26 CA         24.6570   -3.9900   29.9450 C.3       4 ASN4        0.0000 
     27 C          24.9540   -5.4150   29.4930 C.2       4 ASN4        0.0000 
     28 O          24.6530   -6.3840   30.1950 O.2       4 ASN4        0.0000 
     29 CB         25.8240   -3.4440   30.7720 C.3       4 ASN4        0.0000 
     30 CG         25.8190   -1.9260   30.8680 C.2       4 ASN4        0.0000 
     31 OD1        25.5830   -1.2250   29.8790 O.2       4 ASN4        0.0000 
     32 ND2        26.0840   -1.4100   32.0660 N.am      4 ASN4        0.0000 
     33 N          25.5540   -5.5390   28.3140 N.am      5 THR5        0.0000 
     34 CA         25.8190   -6.8380   27.7090 C.3       5 THR5        0.0000 
     35 C          27.3170   -7.1100   27.6900 C.2       5 THR5        0.0000 
     36 O          28.1080   -6.2640   27.2610 O.2       5 THR5        0.0000 
     37 CB         25.2400   -6.9090   26.2960 C.3       5 THR5        0.0000 
     38 OG1        23.8200   -6.7100   26.3620 O.3       5 THR5        0.0000 
     39 CG2        25.5360   -8.2690   25.6680 C.3       5 THR5        0.0000 
     40 N          27.6980   -8.2940   28.1490 N.am      6 PHE6        0.0000 
     41 CA         29.0950   -8.6550   28.3180 C.3       6 PHE6        0.0000 
     42 C          29.5390   -9.6120   27.2210 C.2       6 PHE6        0.0000 
     43 O          28.8050  -10.5310   26.8410 O.2       6 PHE6        0.0000 
     44 CB         29.3110   -9.2740   29.6960 C.3       6 PHE6        0.0000 
     45 CG         28.7300   -8.4540   30.8030 C.ar      6 PHE6        0.0000 
     46 CD1        29.1280   -7.1390   30.9820 C.ar      6 PHE6        0.0000 
     47 CD2        27.7590   -8.9770   31.6390 C.ar      6 PHE6        0.0000 
     48 CE1        28.5900   -6.3680   31.9920 C.ar      6 PHE6        0.0000 
     49 CE2        27.2150   -8.2080   32.6530 C.ar      6 PHE6        0.0000 
     50 CZ         27.6330   -6.9000   32.8290 C.ar      6 PHE6        0.0000 
     51 N          30.7470   -9.3820   26.7190 N.am      7 LEU7        0.0000 
     52 CA         31.2920  -10.1740   25.6270 C.3       7 LEU7        0.0000 
     53 C          31.7450  -11.5330   26.1450 C.2       7 LEU7        0.0000 
     54 O          32.6510  -11.5920   26.9810 O.2       7 LEU7        0.0000 
     55 CB         32.4600   -9.4400   24.9790 C.3       7 LEU7        0.0000 
     56 CG         33.3330  -10.2160   23.9930 C.3       7 LEU7        0.0000 
     57 CD1        32.5040  -10.7170   22.8210 C.3       7 LEU7        0.0000 
     58 CD2        34.4790   -9.3340   23.4990 C.3       7 LEU7        0.0000 
     59 N          31.1540  -12.6420   25.6770 N.am      8 PRO8        0.0000 
     60 CA         31.5530  -14.0040   26.0540 C.3       8 PRO8        0.0000 
     61 C          32.9660  -14.3530   25.5770 C.2       8 PRO8        0.0000 
     62 O          33.6650  -15.1840   26.1680 O.2       8 PRO8        0.0000 
     63 CB         30.5130  -14.8890   25.3500 C.3       8 PRO8        0.0000 
     64 CG         29.4050  -13.9600   24.9380 C.3       8 PRO8        0.0000 
     65 CD         30.0470  -12.6390   24.7060 C.3       8 PRO8        0.0000 
     66 OXT        33.4410  -13.8110   24.5800 O.3       8 PRO8        0.0000 
@<TRIPOS>BOND
     1    1    2 1    
     2    2    3 1    
     3    2    5 1    
     4    3    4 2    
     5    3    9 am   
     6    5    6 1    
     7    6    7 ar   
     8    6    8 ar   
     9    9   10 1    
    10   10   11 1    
    11   10   13 1    
    12   11   12 2    
    13   11   20 am   
    14   13   14 1    
    15   14   15 ar   
    16   14   16 ar   
    17   15   17 ar   
    18   16   18 ar   
    19   17   19 ar   
    20   18   19 ar   
    21   20   21 1    
    22   21   22 1    
    23   21   24 1    
    24   22   23 2    
    25   22   25 am   
    26   25   26 1    
    27   26   27 1    
    28   26   29 1    
    29   27   28 2    
    30   27   33 am   
    31   29   30 1    
    32   30   31 2    
    33   30   32 am   
    34   33   34 1    
    35   34   35 1    
    36   34   37 1    
    37   35   36 2    
    38   35   40 am   
    39   37   38 1    
    40   37   39 1    
    41   40   41 1    
    42   41   42 1    
    43   41   44 1    
    44   42   43 2    
    45   42   51 am   
    46   44   45 1    
    47   45   46 ar   
    48   45   47 ar   
    49   46   48 ar   
    50   47   49 ar   
    51   48   50 ar   
    52   49   50 ar   
    53   51   52 1    
    54   52   53 1    
    55   52   55 1    
    56   53   54 2    
    57   53   59 am   
    58   55   56 1    
    59   56   57 1    
    60   56   58 1    
    61   59   60 1    
    62   59   65 1    
    63   60   61 1    
    64   60   63 1    
    65   61   62 2    
    66   61   66 1    
    67   63   64 1    
    68   64   65 1    
@<TRIPOS>SUBSTRUCTURE
     1 ASP1        1 RESIDUE 
     2 PHE2        9 RESIDUE 
     3 ALA3       20 RESIDUE 
     4 ASN4       25 RESIDUE 
     5 THR5       33 RESIDUE 
     6 PHE6       40 RESIDUE 
     7 LEU7       51 RESIDUE 
     8 PRO8       59 RESIDUE 
@<TRIPOS>SET

