#    Name: 6j2h_1_ASP_PHE_ALA_ASN_THR_PHE_LEU_PRO
#    Modification time : Fri May 22 19:34:24 2020

@<TRIPOS>MOLECULE
6j2h_1_ASP_PHE_ALA_ASN_THR_PHE_LEU_PRO
   66    68     8     0     0
SMALL
NO_CHARGES


@<TRIPOS>ATOM
      1 N         -51.1700  -14.8510   13.3450 N.4       1 ASP1        0.0000 
      2 CA        -51.2060  -16.0420   14.1840 C.3       1 ASP1        0.0000 
      3 C         -49.8210  -16.6620   14.3370 C.2       1 ASP1        0.0000 
      4 O         -49.0200  -16.6430   13.4050 O.2       1 ASP1        0.0000 
      5 CB        -52.1690  -17.0860   13.6040 C.3       1 ASP1        0.0000 
      6 CG        -53.6090  -16.8690   14.0430 C.2       1 ASP1        0.0000 
      7 OD1       -54.0230  -15.7020   14.2060 O.co2     1 ASP1        0.0000 
      8 OD2       -54.3330  -17.8710   14.2230 O.co2     1 ASP1        0.0000 
      9 N         -49.5420  -17.2110   15.5180 N.am      2 PHE2        0.0000 
     10 CA        -48.3970  -18.0980   15.6620 C.3       2 PHE2        0.0000 
     11 C         -48.5260  -19.2640   14.6890 C.2       2 PHE2        0.0000 
     12 O         -49.6240  -19.6270   14.2590 O.2       2 PHE2        0.0000 
     13 CB        -48.3050  -18.6510   17.0860 C.3       2 PHE2        0.0000 
     14 CG        -48.0980  -17.6090   18.1500 C.ar      2 PHE2        0.0000 
     15 CD1       -46.9710  -16.7990   18.1480 C.ar      2 PHE2        0.0000 
     16 CD2       -49.0160  -17.4650   19.1760 C.ar      2 PHE2        0.0000 
     17 CE1       -46.7740  -15.8540   19.1400 C.ar      2 PHE2        0.0000 
     18 CE2       -48.8270  -16.5210   20.1720 C.ar      2 PHE2        0.0000 
     19 CZ        -47.7030  -15.7140   20.1550 C.ar      2 PHE2        0.0000 
     20 N         -47.3930  -19.8620   14.3450 N.am      3 ALA3        0.0000 
     21 CA        -47.4210  -21.0710   13.5430 C.3       3 ALA3        0.0000 
     22 C         -47.5480  -22.2840   14.4550 C.2       3 ALA3        0.0000 
     23 O         -47.4940  -22.1790   15.6820 O.2       3 ALA3        0.0000 
     24 CB        -46.1680  -21.1760   12.6730 C.3       3 ALA3        0.0000 
     25 N         -47.7430  -23.4470   13.8410 N.am      4 ASN4        0.0000 
     26 CA        -47.6990  -24.6870   14.5970 C.3       4 ASN4        0.0000 
     27 C         -46.2810  -24.9310   15.0990 C.2       4 ASN4        0.0000 
     28 O         -45.2970  -24.5460   14.4620 O.2       4 ASN4        0.0000 
     29 CB        -48.1680  -25.8620   13.7370 C.3       4 ASN4        0.0000 
     30 CG        -49.6820  -25.9140   13.5880 C.2       4 ASN4        0.0000 
     31 OD1       -50.4230  -25.5400   14.5010 O.2       4 ASN4        0.0000 
     32 ND2       -50.1480  -26.3790   12.4320 N.am      4 ASN4        0.0000 
     33 N         -46.1820  -25.5720   16.2570 N.am      5 THR5        0.0000 
     34 CA        -44.9030  -25.8480   16.8920 C.3       5 THR5        0.0000 
     35 C         -44.6650  -27.3490   16.8980 C.2       5 THR5        0.0000 
     36 O         -45.5470  -28.1210   17.2860 O.2       5 THR5        0.0000 
     37 CB        -44.8740  -25.2850   18.3120 C.3       5 THR5        0.0000 
     38 OG1       -45.2380  -23.8990   18.2670 O.3       5 THR5        0.0000 
     39 CG2       -43.4790  -25.4200   18.9120 C.3       5 THR5        0.0000 
     40 N         -43.4750  -27.7540   16.4690 N.am      6 PHE6        0.0000 
     41 CA        -43.1520  -29.1530   16.2350 C.3       6 PHE6        0.0000 
     42 C         -42.2300  -29.6690   17.3270 C.2       6 PHE6        0.0000 
     43 O         -41.2460  -29.0110   17.6830 O.2       6 PHE6        0.0000 
     44 CB        -42.5090  -29.3280   14.8580 C.3       6 PHE6        0.0000 
     45 CG        -43.3320  -28.7620   13.7440 C.ar      6 PHE6        0.0000 
     46 CD1       -44.6520  -29.1470   13.5840 C.ar      6 PHE6        0.0000 
     47 CD2       -42.8010  -27.8290   12.8730 C.ar      6 PHE6        0.0000 
     48 CE1       -45.4280  -28.6260   12.5620 C.ar      6 PHE6        0.0000 
     49 CE2       -43.5700  -27.3000   11.8510 C.ar      6 PHE6        0.0000 
     50 CZ        -44.8880  -27.7040   11.6960 C.ar      6 PHE6        0.0000 
     51 N         -42.5570  -30.8380   17.8530 N.am      7 LEU7        0.0000 
     52 CA        -41.7780  -31.4500   18.9210 C.3       7 LEU7        0.0000 
     53 C         -40.4250  -31.9040   18.3900 C.2       7 LEU7        0.0000 
     54 O         -40.3770  -32.7390   17.4760 O.2       7 LEU7        0.0000 
     55 CB        -42.5450  -32.6350   19.5050 C.3       7 LEU7        0.0000 
     56 CG        -41.8510  -33.4550   20.5900 C.3       7 LEU7        0.0000 
     57 CD1       -41.5500  -32.5860   21.8030 C.3       7 LEU7        0.0000 
     58 CD2       -42.7070  -34.6520   20.9820 C.3       7 LEU7        0.0000 
     59 N         -39.3040  -31.3840   18.9160 N.am      8 PRO8        0.0000 
     60 CA        -37.9570  -31.8270   18.5320 C.3       8 PRO8        0.0000 
     61 C         -37.7030  -33.2960   18.8940 C.2       8 PRO8        0.0000 
     62 O         -36.8100  -33.9600   18.3550 O.2       8 PRO8        0.0000 
     63 CB        -37.0380  -30.9010   19.3410 C.3       8 PRO8        0.0000 
     64 CG        -37.9050  -29.7460   19.7520 C.3       8 PRO8        0.0000 
     65 CD        -39.2640  -30.3250   19.9360 C.3       8 PRO8        0.0000 
     66 OXT       -38.3930  -33.8600   19.7490 O.3       8 PRO8        0.0000 
@<TRIPOS>BOND
     1   25   26 1    
     2   26   27 1    
     3   26   29 1    
     4   27   28 2    
     5   27   33 am   
     6   29   30 1    
     7   30   31 2    
     8   30   32 am   
     9   33   34 1    
    10   34   35 1    
    11   34   37 1    
    12   35   36 2    
    13   35   40 am   
    14   37   38 1    
    15   37   39 1    
    16   40   41 1    
    17   41   42 1    
    18   41   44 1    
    19   42   43 2    
    20   42   51 am   
    21   44   45 1    
    22   45   46 ar   
    23   45   47 ar   
    24   46   48 ar   
    25   47   49 ar   
    26   48   50 ar   
    27   49   50 ar   
    28   51   52 1    
    29   52   53 1    
    30   52   55 1    
    31   53   54 2    
    32   53   59 am   
    33   55   56 1    
    34   56   57 1    
    35   56   58 1    
    36   59   60 1    
    37   59   65 1    
    38   60   61 1    
    39   60   63 1    
    40   61   62 2    
    41   61   66 1    
    42   63   64 1    
    43   64   65 1    
    44    1    2 1    
    45    2    3 1    
    46    2    5 1    
    47    3    4 2    
    48    3    9 am   
    49    5    6 1    
    50    6    7 ar   
    51    6    8 ar   
    52    9   10 1    
    53   10   11 1    
    54   10   13 1    
    55   11   12 2    
    56   11   20 am   
    57   13   14 1    
    58   14   15 ar   
    59   14   16 ar   
    60   15   17 ar   
    61   16   18 ar   
    62   17   19 ar   
    63   18   19 ar   
    64   20   21 1    
    65   21   22 1    
    66   21   24 1    
    67   22   23 2    
    68   22   25 am   
@<TRIPOS>SUBSTRUCTURE
     1 ASP1        1 RESIDUE 
     2 PHE2        9 RESIDUE 
     3 ALA3       20 RESIDUE 
     4 ASN4       25 RESIDUE 
     5 THR5       33 RESIDUE 
     6 PHE6       40 RESIDUE 
     7 LEU7       51 RESIDUE 
     8 PRO8       59 RESIDUE 
@<TRIPOS>SET

