#    Name: 6j2h_2_ASP_PHE_ALA_ASN_THR_PHE_LEU_PRO_CAVITY_N1_4
#    Modification time : Fri May 22 19:34:30 2020

@<TRIPOS>MOLECULE
6j2h_2_ASP_PHE_ALA_ASN_THR_PHE_LEU_PRO_CAVITY_N1_4
   84     0     7     0     0
SMALL
NO_CHARGES


@<TRIPOS>ATOM
      1 OG         17.3200   -5.5400   25.2200 O.3       1 SER1        0.0000 
      2 OG         16.7600   -4.6500   26.2900 O.3       1 SER1        0.0000 
      3 OG         14.7300   -2.1900   31.5900 O.3       1 SER1        0.0000 
      4 OG         18.1400   -4.1300   26.5800 O.3       1 SER1        0.0000 
      5 OG         16.6700   -2.5600   30.8000 O.3       1 SER1        0.0000 
      6 OG         16.1100   -1.6700   31.8700 O.3       1 SER1        0.0000 
      7 OG         19.1600   -3.8100   28.9400 O.3       1 SER1        0.0000 
      8 OG         18.6000   -2.9300   30.0200 O.3       1 SER1        0.0000 
      9 OG         18.8000   -4.0200   31.0300 O.3       1 SER1        0.0000 
     10 OG         21.3000   -5.2700   29.1700 O.3       1 SER1        0.0000 
     11 OG         20.7400   -4.3900   30.2400 O.3       1 SER1        0.0000 
     12 N          14.3600   -5.4900   23.6400 N.am      2 ALA2        0.0000 
     13 N          16.3600   -2.4700   24.2700 N.am      2 ALA2        0.0000 
     14 N          16.0000   -2.6700   26.3500 N.am      2 ALA2        0.0000 
     15 N          17.7300   -1.9500   24.5600 N.am      2 ALA2        0.0000 
     16 N          17.9400   -3.0400   25.5700 N.am      2 ALA2        0.0000 
     17 N          15.7000    0.5100   29.8600 N.am      2 ALA2        0.0000 
     18 N          17.5800   -3.2400   27.6500 N.am      2 ALA2        0.0000 
     19 N          17.0200   -2.3600   28.7200 N.am      2 ALA2        0.0000 
     20 N          16.4600   -1.4700   29.7900 N.am      2 ALA2        0.0000 
     21 N          15.9000   -0.5800   30.8700 N.am      2 ALA2        0.0000 
     22 O          16.8800    2.1200   29.1300 O.2       2 ALA2        0.0000 
     23 N          18.7600   -1.6300   26.9300 N.am      2 ALA2        0.0000 
     24 N          17.0800    1.0300   30.1400 N.am      2 ALA2        0.0000 
     25 O          16.5200    1.9200   31.2100 O.2       2 ALA2        0.0000 
     26 N          18.9600   -2.7200   27.9400 N.am      2 ALA2        0.0000 
     27 N          18.4000   -1.8400   29.0100 N.am      2 ALA2        0.0000 
     28 N          17.8400   -0.9500   30.0800 N.am      2 ALA2        0.0000 
     29 N          17.2800   -0.0600   31.1500 N.am      2 ALA2        0.0000 
     30 O          16.7200    0.8300   32.2200 O.2       2 ALA2        0.0000 
     31 N          18.8100    1.7500   28.3500 N.am      2 ALA2        0.0000 
     32 N          19.5700   -0.2200   28.2800 N.am      2 ALA2        0.0000 
     33 N          19.0200    0.6600   29.3600 N.am      2 ALA2        0.0000 
     34 N          18.4600    1.5500   30.4300 N.am      2 ALA2        0.0000 
     35 N          19.7800   -1.3200   29.2900 N.am      2 ALA2        0.0000 
     36 N          19.2200   -0.4300   30.3700 N.am      2 ALA2        0.0000 
     37 N          20.5400   -3.2900   29.2300 N.am      2 ALA2        0.0000 
     38 N          21.9100   -2.7700   29.5200 N.am      2 ALA2        0.0000 
     39 OD1        18.2500    2.6400   29.4200 O.co2     3 ASP3        0.0000 
     40 OD1        17.9000    2.4400   31.5000 O.co2     3 ASP3        0.0000 
     41 OD1        21.5000   -6.3600   30.1800 O.co2     3 ASP3        0.0000 
     42 OD1        19.6300    3.1600   29.7100 O.co2     3 ASP3        0.0000 
     43 OD1        19.8300    2.0700   30.7200 O.co2     3 ASP3        0.0000 
     44 OD1        19.2800    2.9600   31.7900 O.co2     3 ASP3        0.0000 
     45 OD1        23.2300   -5.6400   28.3800 O.co2     3 ASP3        0.0000 
     46 OD1        22.6800   -4.7500   29.4500 O.co2     3 ASP3        0.0000 
     47 OD1        22.8800   -5.8400   30.4600 O.co2     3 ASP3        0.0000 
     48 NZ         18.6600    0.4600   31.4400 N.4       4 LYS4        0.0000 
     49 NZ         18.1000    1.3500   32.5100 N.4       4 LYS4        0.0000 
     50 CZ         15.1800   -4.0800   24.9900 C.ar      5 PHE5        0.0000 
     51 CZ         14.6200   -3.1900   26.0700 C.ar      5 PHE5        0.0000 
     52 CZ         15.3800   -5.1700   26.0000 C.ar      5 PHE5        0.0000 
     53 CZ         16.2000   -3.7700   27.3600 C.ar      5 PHE5        0.0000 
     54 CZ         15.1400    1.4000   30.9300 C.ar      5 PHE5        0.0000 
     55 CZ         15.3500    0.3100   31.9400 C.ar      5 PHE5        0.0000 
     56 CZ         17.2200   -3.4500   29.7300 C.ar      5 PHE5        0.0000 
     57 CZ         18.0400   -2.0400   31.0900 C.ar      5 PHE5        0.0000 
     58 CZ         17.4800   -1.1500   32.1600 C.ar      5 PHE5        0.0000 
     59 CZ         16.9300   -0.2600   33.2300 C.ar      5 PHE5        0.0000 
     60 CZ         19.9800   -2.4100   30.3000 C.ar      5 PHE5        0.0000 
     61 CZ         19.4200   -1.5200   31.3800 C.ar      5 PHE5        0.0000 
     62 CZ         18.8600   -0.6300   32.4500 C.ar      5 PHE5        0.0000 
     63 CZ         20.1800   -3.5000   31.3100 C.ar      5 PHE5        0.0000 
     64 CZ         20.9400   -5.4800   31.2500 C.ar      5 PHE5        0.0000 
     65 CZ         21.5600   -2.9800   31.6000 C.ar      5 PHE5        0.0000 
     66 CZ         21.7600   -4.0700   32.6100 C.ar      5 PHE5        0.0000 
     67 CA         13.8000   -4.6000   24.7100 C.3       6 GLY6        0.0000 
     68 CA         15.5400   -3.8800   22.9100 C.3       6 GLY6        0.0000 
     69 CA         14.9800   -2.9900   23.9900 C.3       6 GLY6        0.0000 
     70 CA         14.4200   -2.1000   25.0600 C.3       6 GLY6        0.0000 
     71 CA         15.7400   -4.9700   23.9200 C.3       6 GLY6        0.0000 
     72 CA         15.9400   -6.0600   24.9300 C.3       6 GLY6        0.0000 
     73 CA         16.9200   -3.3600   23.2000 C.3       6 GLY6        0.0000 
     74 CA         15.8000   -1.5800   25.3400 C.3       6 GLY6        0.0000 
     75 CA         17.6800   -5.3400   23.1400 C.3       6 GLY6        0.0000 
     76 CA         17.1200   -4.4500   24.2100 C.3       6 GLY6        0.0000 
     77 CA         18.4900   -3.9300   24.5000 C.3       6 GLY6        0.0000 
     78 CA         20.1900    2.2800   28.6300 C.3       6 GLY6        0.0000 
     79 CA         21.0100    3.6800   29.9900 C.3       6 GLY6        0.0000 
     80 DU         16.5600   -3.5600   25.2800 H         7 CUB7        0.0000 
     81 DU         20.3900    1.1800   29.6400 H         7 CUB7        0.0000 
     82 DU         22.1200   -3.8600   30.5300 H         7 CUB7        0.0000 
     83 DU         22.3200   -4.9600   31.5400 H         7 CUB7        0.0000 
     84 DU         23.4900   -3.3400   30.8100 H         7 CUB7        0.0000 
@<TRIPOS>BOND
@<TRIPOS>SUBSTRUCTURE
     1 SER1        1 GROUP   
     2 ALA2       12 GROUP   
     3 ASP3       39 GROUP   
     4 LYS4       48 GROUP   
     5 PHE5       50 GROUP   
     6 GLY6       67 GROUP   
     7 CUB7       80 GROUP   
@<TRIPOS>SET

