#    Name: 6ch4_1_GNP
#    Modification time : Fri May 22 19:28:42 2020

@<TRIPOS>MOLECULE
6ch4_1_GNP
   32    34     1     0     1
SMALL
NO_CHARGES


@<TRIPOS>ATOM
      1 PG         43.8110    3.4740   55.0570 P.3       1 GNP500      0.0000 
      2 O1G        44.3770    4.5950   54.0210 O.co2     1 GNP500      0.0000 
      3 O2G        42.4140    3.6340   55.4540 O.co2     1 GNP500      0.0000 
      4 O3G        44.9090    3.1950   56.2030 O.co2     1 GNP500      0.0000 
      5 N3B        43.9400    2.0720   54.2330 N.3       1 GNP500      0.0000 
      6 PB         43.9190    0.4860   54.5840 P.3       1 GNP500      0.0000 
      7 O1B        43.0750   -0.2860   53.3440 O.co2     1 GNP500      0.0000 
      8 O2B        43.0660    0.0490   55.6920 O.co2     1 GNP500      0.0000 
      9 O3A        45.4320   -0.0460   54.5720 O.3       1 GNP500      0.0000 
     10 PA         46.1950   -1.2380   55.2980 P.3       1 GNP500      0.0000 
     11 O1A        47.4180   -0.4740   55.8900 O.co2     1 GNP500      0.0000 
     12 O2A        45.3880   -1.8930   56.3720 O.co2     1 GNP500      0.0000 
     13 O5'        46.5570   -2.4220   54.2440 O.3       1 GNP500      0.0000 
     14 C5'        45.5030   -2.9150   53.4250 C.3       1 GNP500      0.0000 
     15 C4'        45.6050   -4.4150   53.4870 C.3       1 GNP500      0.0000 
     16 O4'        46.8960   -4.7760   52.9580 O.3       1 GNP500      0.0000 
     17 C3'        45.6340   -4.9880   54.8880 C.3       1 GNP500      0.0000 
     18 O3'        44.3390   -5.2180   55.4110 O.3       1 GNP500      0.0000 
     19 C2'        46.3460   -6.3150   54.6470 C.3       1 GNP500      0.0000 
     20 O2'        45.3880   -7.1740   54.0530 O.3       1 GNP500      0.0000 
     21 C1'        47.4140   -5.9040   53.6280 C.3       1 GNP500      0.0000 
     22 N9         48.7170   -5.5220   54.1770 N.pl3     1 GNP500      0.0000 
     23 C8         49.2160   -4.2390   54.2990 C.2       1 GNP500      0.0000 
     24 N7         50.4390   -4.2360   54.7640 N.2       1 GNP500      0.0000 
     25 C5         50.7240   -5.5890   54.9210 C.2       1 GNP500      0.0000 
     26 C6         51.8450   -6.1740   55.4080 C.2       1 GNP500      0.0000 
     27 O6         52.7990   -5.5950   55.8610 O.2       1 GNP500      0.0000 
     28 N1         51.7810   -7.5540   55.4460 N.am      1 GNP500      0.0000 
     29 C2         50.7080   -8.2600   55.0120 C.2       1 GNP500      0.0000 
     30 N2         50.7960   -9.5910   55.0430 N.pl3     1 GNP500      0.0000 
     31 N3         49.6120   -7.6700   54.5540 N.2       1 GNP500      0.0000 
     32 C4         49.6970   -6.3530   54.5500 C.2       1 GNP500      0.0000 
@<TRIPOS>BOND
     1    1    2 ar   
     2    1    3 ar   
     3    1    4 ar   
     4    1    5 1    
     5    5    6 1    
     6    6    7 ar   
     7    6    8 ar   
     8    6    9 1    
     9    9   10 1    
    10   10   11 ar   
    11   10   12 ar   
    12   10   13 1    
    13   13   14 1    
    14   14   15 1    
    15   15   16 1    
    16   15   17 1    
    17   16   21 1    
    18   17   18 1    
    19   17   19 1    
    20   19   20 1    
    21   19   21 1    
    22   21   22 1    
    23   22   23 1    
    24   22   32 1    
    25   23   24 2    
    26   24   25 1    
    27   25   26 1    
    28   25   32 2    
    29   26   27 2    
    30   26   28 am   
    31   28   29 1    
    32   29   30 1    
    33   29   31 2    
    34   31   32 1    
@<TRIPOS>SUBSTRUCTURE
     1 GNP500      1 GROUP   
@<TRIPOS>SET
ATOM$ORANGE STATIC     ATOMS   COLORGROUP SYSTEM 
20 14 14 15 15 17 17 19 19 21 21 23 23 25 25 26 26 29 \
29 32 32 

