#    Name: 6ch4_4_GNP
#    Modification time : Fri May 22 19:28:53 2020

@<TRIPOS>MOLECULE
6ch4_4_GNP
   32    34     1     0     1
SMALL
NO_CHARGES


@<TRIPOS>ATOM
      1 PG         71.3650   34.3860   39.2050 P.3       1 GNP500      0.0000 
      2 O1G        72.6460   34.5160   38.1820 O.co2     1 GNP500      0.0000 
      3 O2G        71.1770   35.6830   39.8520 O.co2     1 GNP500      0.0000 
      4 O3G        70.0390   33.9860   38.3530 O.co2     1 GNP500      0.0000 
      5 N3B        71.7050   33.2350   40.3280 N.3       1 GNP500      0.0000 
      6 PB         70.9690   31.8200   40.7170 P.3       1 GNP500      0.0000 
      7 O1B        69.7340   31.6510   39.5210 O.co2     1 GNP500      0.0000 
      8 O2B        70.4600   31.8620   42.0750 O.co2     1 GNP500      0.0000 
      9 O3A        71.8240   30.3650   40.8360 O.3       1 GNP500      0.0000 
     10 PA         72.9900   29.5880   40.0640 P.3       1 GNP500      0.0000 
     11 O1A        73.6670   30.6130   39.1910 O.co2     1 GNP500      0.0000 
     12 O2A        72.4530   28.3390   39.2110 O.co2     1 GNP500      0.0000 
     13 O5'        73.8110   28.9430   41.3860 O.3       1 GNP500      0.0000 
     14 C5'        74.4490   29.9570   42.2050 C.3       1 GNP500      0.0000 
     15 C4'        75.9330   29.6840   42.2390 C.3       1 GNP500      0.0000 
     16 O4'        76.1300   28.3150   42.6460 O.3       1 GNP500      0.0000 
     17 C3'        76.6700   29.7620   40.8990 C.3       1 GNP500      0.0000 
     18 O3'        77.1680   31.0370   40.5480 O.3       1 GNP500      0.0000 
     19 C2'        77.9010   28.9290   41.2070 C.3       1 GNP500      0.0000 
     20 O2'        78.7540   29.7560   41.9930 O.3       1 GNP500      0.0000 
     21 C1'        77.2760   27.7860   42.0110 C.3       1 GNP500      0.0000 
     22 N9         76.8640   26.6620   41.1800 N.pl3     1 GNP500      0.0000 
     23 C8         75.6080   26.2180   40.8150 C.2       1 GNP500      0.0000 
     24 N7         75.6170   25.1070   40.1110 N.2       1 GNP500      0.0000 
     25 C5         76.9670   24.8040   39.9960 C.2       1 GNP500      0.0000 
     26 C6         77.6380   23.7380   39.3500 C.2       1 GNP500      0.0000 
     27 O6         77.1510   22.7820   38.7600 O.2       1 GNP500      0.0000 
     28 N1         79.0050   23.8330   39.4630 N.am      1 GNP500      0.0000 
     29 C2         79.6910   24.7920   40.1720 C.2       1 GNP500      0.0000 
     30 N2         81.0190   24.6300   40.2550 N.pl3     1 GNP500      0.0000 
     31 N3         79.0930   25.8050   40.8130 N.2       1 GNP500      0.0000 
     32 C4         77.7470   25.7690   40.6620 C.2       1 GNP500      0.0000 
@<TRIPOS>BOND
     1    1    2 ar   
     2    1    3 ar   
     3    1    4 ar   
     4    1    5 1    
     5    5    6 1    
     6    6    7 ar   
     7    6    8 ar   
     8    6    9 1    
     9    9   10 1    
    10   10   11 ar   
    11   10   12 ar   
    12   10   13 1    
    13   13   14 1    
    14   14   15 1    
    15   15   16 1    
    16   15   17 1    
    17   16   21 1    
    18   17   18 1    
    19   17   19 1    
    20   19   20 1    
    21   19   21 1    
    22   21   22 1    
    23   22   23 1    
    24   22   32 1    
    25   23   24 2    
    26   24   25 1    
    27   25   26 1    
    28   25   32 2    
    29   26   27 2    
    30   26   28 am   
    31   28   29 1    
    32   29   30 1    
    33   29   31 2    
    34   31   32 1    
@<TRIPOS>SUBSTRUCTURE
     1 GNP500      1 GROUP   
@<TRIPOS>SET
ATOM$ORANGE STATIC     ATOMS   COLORGROUP SYSTEM 
20 14 14 15 15 17 17 19 19 21 21 23 23 25 25 26 26 29 \
29 32 32 

