#    Name: 6ch4_2_GNP
#    Modification time : Fri May 22 19:28:48 2020

@<TRIPOS>MOLECULE
6ch4_2_GNP
   28    30     1     0     1
SMALL
NO_CHARGES


@<TRIPOS>ATOM
      1 N3B        39.8640    0.8660   20.2430 N.3       1 GNP500      0.0000 
      2 PB         40.6510    1.8340   21.3230 P.3       1 GNP500      0.0000 
      3 O1B        42.1830    1.9550   20.9780 O.co2     1 GNP500      0.0000 
      4 O2B        40.4520    1.3470   22.6770 O.co2     1 GNP500      0.0000 
      5 O3A        40.0370    3.3930   21.2620 O.3       1 GNP500      0.0000 
      6 PA         38.8970    4.1580   20.4600 P.3       1 GNP500      0.0000 
      7 O1A        38.1510    3.2570   19.5200 O.co2     1 GNP500      0.0000 
      8 O2A        39.5810    5.3170   19.6700 O.co2     1 GNP500      0.0000 
      9 O5'        38.0130    4.5380   21.7260 O.3       1 GNP500      0.0000 
     10 C5'        37.3340    3.5780   22.5330 C.3       1 GNP500      0.0000 
     11 C4'        35.8620    3.9060   22.5110 C.3       1 GNP500      0.0000 
     12 O4'        35.6100    5.2590   22.9820 O.3       1 GNP500      0.0000 
     13 C3'        35.1940    3.8910   21.1320 C.3       1 GNP500      0.0000 
     14 O3'        34.7240    2.6020   20.8540 O.3       1 GNP500      0.0000 
     15 C2'        33.9360    4.7130   21.3970 C.3       1 GNP500      0.0000 
     16 O2'        33.1970    3.8860   22.3030 O.3       1 GNP500      0.0000 
     17 C1'        34.5090    5.8340   22.2650 C.3       1 GNP500      0.0000 
     18 N9         34.9390    7.0390   21.5370 N.pl3     1 GNP500      0.0000 
     19 C8         36.1980    7.4400   21.2400 C.2       1 GNP500      0.0000 
     20 N7         36.2180    8.5730   20.5680 N.2       1 GNP500      0.0000 
     21 C5         34.8890    8.9490   20.4560 C.2       1 GNP500      0.0000 
     22 C6         34.2940   10.1270   19.9000 C.2       1 GNP500      0.0000 
     23 O6         34.8120   11.1290   19.3700 O.2       1 GNP500      0.0000 
     24 N1         32.9330   10.0950   19.9730 N.am      1 GNP500      0.0000 
     25 C2         32.2190    9.1170   20.5450 C.2       1 GNP500      0.0000 
     26 N2         30.9210    9.2770   20.5240 N.pl3     1 GNP500      0.0000 
     27 N3         32.7540    8.0320   21.1260 N.2       1 GNP500      0.0000 
     28 C4         34.0940    8.0220   21.0300 C.2       1 GNP500      0.0000 
@<TRIPOS>BOND
     1    1    2 1    
     2    2    3 ar   
     3    2    4 ar   
     4    2    5 1    
     5    5    6 1    
     6    6    7 ar   
     7    6    8 ar   
     8    6    9 1    
     9    9   10 1    
    10   10   11 1    
    11   11   12 1    
    12   11   13 1    
    13   12   17 1    
    14   13   14 1    
    15   13   15 1    
    16   15   16 1    
    17   15   17 1    
    18   17   18 1    
    19   18   19 1    
    20   18   28 1    
    21   19   20 2    
    22   20   21 1    
    23   21   22 1    
    24   21   28 2    
    25   22   23 2    
    26   22   24 am   
    27   24   25 1    
    28   25   26 1    
    29   25   27 2    
    30   27   28 1    
@<TRIPOS>SUBSTRUCTURE
     1 GNP500      1 GROUP   
@<TRIPOS>SET
ATOM$ORANGE STATIC     ATOMS   COLORGROUP SYSTEM 
20 10 10 11 11 13 13 15 15 17 17 19 19 21 21 22 22 25 \
25 28 28 

