#    Name: 6eih_1_SER_ILE_ARG_SEP
#    Modification time : Fri May 22 19:26:21 2020

@<TRIPOS>MOLECULE
6eih_1_SER_ILE_ARG_SEP
   29    28     4     0     0
SMALL
NO_CHARGES


@<TRIPOS>ATOM
      1 N         -18.3250    4.6700  -30.7920 N.4       1 SER3        0.0000 
      2 CA        -19.2300    4.5830  -29.5990 C.3       1 SER3        0.0000 
      3 C         -18.5040    4.1140  -28.3400 C.2       1 SER3        0.0000 
      4 O         -17.8280    3.0940  -28.3700 O.2       1 SER3        0.0000 
      5 CB        -20.3930    3.6400  -29.8610 C.3       1 SER3        0.0000 
      6 OG        -21.1580    4.0850  -30.9630 O.3       1 SER3        0.0000 
      7 N         -18.6920    4.8400  -27.2380 N.am      2 ILE4        0.0000 
      8 CA        -17.9910    4.5950  -25.9810 C.3       2 ILE4        0.0000 
      9 C         -18.9290    3.8500  -25.0360 C.2       2 ILE4        0.0000 
     10 O         -20.0520    4.2730  -24.8360 O.2       2 ILE4        0.0000 
     11 CB        -17.5800    5.9240  -25.2990 C.3       2 ILE4        0.0000 
     12 CG1       -16.9120    6.8960  -26.2940 C.3       2 ILE4        0.0000 
     13 CG2       -16.6600    5.6630  -24.1210 C.3       2 ILE4        0.0000 
     14 CD1       -17.7960    8.0570  -26.7520 C.3       2 ILE4        0.0000 
     15 N         -19.4590    1.9090  -21.0250 N.am      3 ARG6        0.0000 
     16 CA        -19.0400    2.1100  -19.6490 C.3       3 ARG6        0.0000 
     17 C         -17.8020    1.2570  -19.3690 C.2       3 ARG6        0.0000 
     18 O         -17.1850    1.3390  -18.2990 O.2       3 ARG6        0.0000 
     19 CB        -20.2010    1.7380  -18.7210 C.3       3 ARG6        0.0000 
     20 N         -18.4510    2.7690  -24.4350 N.am      4 SEP5        0.0000 
     21 CA        -19.2210    2.0160  -23.4430 C.3       4 SEP5        0.0000 
     22 CB        -19.0910    0.5320  -23.7810 C.3       4 SEP5        0.0000 
     23 OG        -17.7560    0.0920  -23.5740 O.3       4 SEP5        0.0000 
     24 C         -18.7410    2.3570  -22.0520 C.2       4 SEP5        0.0000 
     25 O         -17.7480    3.0390  -21.8950 O.2       4 SEP5        0.0000 
     26 P         -17.4530   -1.4930  -23.7070 P.3       4 SEP5        0.0000 
     27 O1P       -17.7540   -1.7500  -25.1460 O.co2     4 SEP5        0.0000 
     28 O2P       -15.9740   -1.5530  -23.4870 O.co2     4 SEP5        0.0000 
     29 O3P       -18.2990   -2.1920  -22.6470 O.co2     4 SEP5        0.0000 
@<TRIPOS>BOND
     1    1    2 1    
     2    2    3 1    
     3    2    5 1    
     4    3    4 2    
     5    3    7 am   
     6    5    6 1    
     7    7    8 1    
     8    8    9 1    
     9    8   11 1    
    10    9   10 2    
    11    9   20 du   
    12   11   12 1    
    13   11   13 1    
    14   12   14 1    
    15   15   16 1    
    16   15   24 am   
    17   16   17 1    
    18   16   19 1    
    19   17   18 2    
    20   20   21 1    
    21   21   22 1    
    22   21   24 1    
    23   22   23 1    
    24   23   26 1    
    25   24   25 2    
    26   26   27 ar   
    27   26   28 ar   
    28   26   29 ar   
@<TRIPOS>SUBSTRUCTURE
     1 SER3        1 RESIDUE 
     2 ILE4        7 RESIDUE 
     3 ARG6       15 RESIDUE 
     4 SEP5       20 RESIDUE 
@<TRIPOS>SET

