#    Name: 6eih_1_SER_ILE_ARG_SEP_CAVITY_N1_6
#    Modification time : Fri May 22 19:26:22 2020

@<TRIPOS>MOLECULE
6eih_1_SER_ILE_ARG_SEP_CAVITY_N1_6
  104     0     7     0     0
SMALL
NO_CHARGES


@<TRIPOS>ATOM
      1 OG        -18.0200   -1.1200  -22.3500 O.3       1 SER1        0.0000 
      2 OG        -16.7400   -1.5500  -22.9800 O.3       1 SER1        0.0000 
      3 OG        -17.4500   -4.3900  -18.9600 O.3       1 SER1        0.0000 
      4 OG        -16.1600   -4.8200  -19.5900 O.3       1 SER1        0.0000 
      5 OG        -17.3900   -3.0900  -19.7100 O.3       1 SER1        0.0000 
      6 OG        -16.1000   -3.5200  -20.3400 O.3       1 SER1        0.0000 
      7 OG        -16.0300   -2.2300  -21.1000 O.3       1 SER1        0.0000 
      8 OG        -17.9800   -3.3300  -17.1900 O.3       1 SER1        0.0000 
      9 OG        -18.5000   -2.2800  -15.4300 O.3       1 SER1        0.0000 
     10 OG        -17.2100   -2.7100  -16.0600 O.3       1 SER1        0.0000 
     11 OG        -17.7400   -1.6600  -14.3000 O.3       1 SER1        0.0000 
     12 OG        -16.4500   -2.0900  -14.9300 O.3       1 SER1        0.0000 
     13 N         -20.0100   -0.0200  -23.6000 N.am      2 ALA2        0.0000 
     14 N         -19.9500    1.2800  -24.3600 N.am      2 ALA2        0.0000 
     15 O         -19.8300    3.8700  -25.8600 O.2       2 ALA2        0.0000 
     16 N         -19.3100   -0.6900  -21.7200 N.am      2 ALA2        0.0000 
     17 N         -19.2500    0.6100  -22.4700 N.am      2 ALA2        0.0000 
     18 N         -20.4800    2.3300  -22.5900 N.am      2 ALA2        0.0000 
     19 N         -19.1900    1.9000  -23.2200 N.am      2 ALA2        0.0000 
     20 O         -20.3500    4.9200  -24.1000 O.2       2 ALA2        0.0000 
     21 O         -19.0600    4.4900  -24.7300 O.2       2 ALA2        0.0000 
     22 O         -19.0000    5.7900  -25.4800 O.2       2 ALA2        0.0000 
     23 O         -21.1900   -0.5000  -18.5700 O.2       2 ALA2        0.0000 
     24 O         -19.9000   -0.9300  -19.2000 O.2       2 ALA2        0.0000 
     25 O         -18.6100   -1.3600  -19.8300 O.2       2 ALA2        0.0000 
     26 N         -21.1300    0.7900  -19.3200 N.am      2 ALA2        0.0000 
     27 N         -19.8400    0.3600  -19.9500 N.am      2 ALA2        0.0000 
     28 N         -18.5500   -0.0700  -20.5900 N.am      2 ALA2        0.0000 
     29 N         -19.7800    1.6600  -20.7100 N.am      2 ALA2        0.0000 
     30 N         -18.4900    1.2300  -21.3400 N.am      2 ALA2        0.0000 
     31 N         -22.3100    0.3100  -14.2800 N.am      2 ALA2        0.0000 
     32 N         -22.2500    1.6000  -15.0300 N.am      2 ALA2        0.0000 
     33 N         -21.5500    0.9300  -13.1500 N.am      2 ALA2        0.0000 
     34 N         -21.4800    2.2200  -13.9000 N.am      2 ALA2        0.0000 
     35 OD1       -18.1400   -0.2000  -26.7500 O.co2     3 ASP3        0.0000 
     36 OD1       -18.7300   -0.4500  -24.2400 O.co2     3 ASP3        0.0000 
     37 OD1       -17.4400   -0.8800  -24.8700 O.co2     3 ASP3        0.0000 
     38 OD1       -19.9700   -2.2300  -18.4500 O.co2     3 ASP3        0.0000 
     39 OD1       -19.2700   -2.9000  -16.5600 O.co2     3 ASP3        0.0000 
     40 OD1       -19.2000   -1.6100  -17.3100 O.co2     3 ASP3        0.0000 
     41 OD1       -20.4300    0.1200  -17.4300 O.co2     3 ASP3        0.0000 
     42 OD1       -21.0800   -1.4200  -14.1600 O.co2     3 ASP3        0.0000 
     43 OD1       -19.7900   -1.8500  -14.7900 O.co2     3 ASP3        0.0000 
     44 OD1       -21.0200   -0.1200  -14.9100 O.co2     3 ASP3        0.0000 
     45 OD1       -15.8600   -1.8500  -17.4500 O.co2     3 ASP3        0.0000 
     46 OD1       -16.3900   -0.8000  -15.6800 O.co2     3 ASP3        0.0000 
     47 NZ        -18.8000   -5.2500  -17.5700 N.4       4 LYS4        0.0000 
     48 NZ        -18.7400   -3.9600  -18.3200 N.4       4 LYS4        0.0000 
     49 NZ        -18.6800   -2.6600  -19.0800 N.4       4 LYS4        0.0000 
     50 NZ        -19.4300    2.4100  -13.4000 N.4       4 LYS4        0.0000 
     51 CZ        -17.5100   -5.6800  -18.2000 C.ar      5 PHE5        0.0000 
     52 CA        -19.4300    0.2300  -26.1200 C.3       6 GLY6        0.0000 
     53 CA        -19.3600    1.5200  -26.8700 C.3       6 GLY6        0.0000 
     54 CA        -21.1800    3.0100  -24.4800 C.3       6 GLY6        0.0000 
     55 CA        -19.8900    2.5700  -25.1100 C.3       6 GLY6        0.0000 
     56 CA        -20.4200    3.6300  -23.3400 C.3       6 GLY6        0.0000 
     57 CA        -19.7200    2.9500  -21.4600 C.3       6 GLY6        0.0000 
     58 CA        -19.6500    4.2500  -22.2100 C.3       6 GLY6        0.0000 
     59 CA        -18.3600    3.8200  -22.8500 C.3       6 GLY6        0.0000 
     60 CA        -19.5900    5.5400  -22.9700 C.3       6 GLY6        0.0000 
     61 CA        -18.3000    5.1100  -23.6000 C.3       6 GLY6        0.0000 
     62 CA        -18.2400    6.4100  -24.3500 C.3       6 GLY6        0.0000 
     63 CA        -16.6900   -3.7700  -17.8300 C.3       6 GLY6        0.0000 
     64 CA        -16.6200   -2.4700  -18.5800 C.3       6 GLY6        0.0000 
     65 CA        -15.3300   -2.9000  -19.2100 C.3       6 GLY6        0.0000 
     66 CA        -21.7200    0.5500  -16.8000 C.3       6 GLY6        0.0000 
     67 CA        -13.9800   -2.0400  -20.6000 C.3       6 GLY6        0.0000 
     68 CA        -21.6600    1.8400  -17.5500 C.3       6 GLY6        0.0000 
     69 CA        -20.3000    2.7100  -18.9400 C.3       6 GLY6        0.0000 
     70 CA        -15.9200   -3.1400  -16.6900 C.3       6 GLY6        0.0000 
     71 CA        -20.9600    1.1700  -15.6700 C.3       6 GLY6        0.0000 
     72 CA        -20.8900    2.4700  -16.4200 C.3       6 GLY6        0.0000 
     73 CA        -19.6000    2.0400  -17.0500 C.3       6 GLY6        0.0000 
     74 CA        -19.5400    3.3300  -17.8100 C.3       6 GLY6        0.0000 
     75 CA        -20.1900    1.7900  -14.5400 C.3       6 GLY6        0.0000 
     76 CA        -18.8400    2.6600  -15.9200 C.3       6 GLY6        0.0000 
     77 CA        -19.3700    3.7100  -14.1600 C.3       6 GLY6        0.0000 
     78 DU        -18.6600    0.8500  -24.9900 H         7 CUB7        0.0000 
     79 DU        -17.3700    0.4200  -25.6200 H         7 CUB7        0.0000 
     80 DU        -18.6000    2.1400  -25.7400 H         7 CUB7        0.0000 
     81 DU        -18.5400    3.4400  -26.5000 H         7 CUB7        0.0000 
     82 DU        -17.9600    0.1700  -23.1000 H         7 CUB7        0.0000 
     83 DU        -17.9000    1.4700  -23.8600 H         7 CUB7        0.0000 
     84 DU        -19.1300    3.2000  -23.9800 H         7 CUB7        0.0000 
     85 DU        -17.2600   -0.5000  -21.2200 H         7 CUB7        0.0000 
     86 DU        -17.2000    0.8000  -21.9700 H         7 CUB7        0.0000 
     87 DU        -18.4300    2.5200  -22.0900 H         7 CUB7        0.0000 
     88 DU        -17.9100   -2.0400  -17.9500 H         7 CUB7        0.0000 
     89 DU        -19.1400   -0.3100  -18.0700 H         7 CUB7        0.0000 
     90 DU        -17.8500   -0.7400  -18.7000 H         7 CUB7        0.0000 
     91 DU        -16.5600   -1.1700  -19.3300 H         7 CUB7        0.0000 
     92 DU        -20.3700    1.4100  -18.1900 H         7 CUB7        0.0000 
     93 DU        -19.0800    0.9800  -18.8200 H         7 CUB7        0.0000 
     94 DU        -17.7900    0.5500  -19.4500 H         7 CUB7        0.0000 
     95 DU        -18.4400   -0.9900  -16.1800 H         7 CUB7        0.0000 
     96 DU        -17.1500   -1.4200  -16.8100 H         7 CUB7        0.0000 
     97 DU        -19.6700    0.7400  -16.3000 H         7 CUB7        0.0000 
     98 DU        -18.3800    0.3100  -16.9300 H         7 CUB7        0.0000 
     99 DU        -17.0900   -0.1200  -17.5700 H         7 CUB7        0.0000 
    100 DU        -18.3100    1.6000  -17.6900 H         7 CUB7        0.0000 
    101 DU        -19.0300   -1.2300  -13.6600 H         7 CUB7        0.0000 
    102 DU        -17.6800   -0.3700  -15.0500 H         7 CUB7        0.0000 
    103 DU        -18.9000    1.3600  -15.1700 H         7 CUB7        0.0000 
    104 DU        -18.1400    1.9800  -14.0400 H         7 CUB7        0.0000 
@<TRIPOS>BOND
@<TRIPOS>SUBSTRUCTURE
     1 SER1        1 GROUP   
     2 ALA2       13 GROUP   
     3 ASP3       35 GROUP   
     4 LYS4       47 GROUP   
     5 PHE5       51 GROUP   
     6 GLY6       52 GROUP   
     7 CUB7       78 GROUP   
@<TRIPOS>SET

