#    Name: 6eih_1_SER_ILE_ARG_SEP_CAVITY_N1_4
#    Modification time : Fri May 22 19:26:22 2020

@<TRIPOS>MOLECULE
6eih_1_SER_ILE_ARG_SEP_CAVITY_N1_4
   78     0     6     0     0
SMALL
NO_CHARGES


@<TRIPOS>ATOM
      1 OG        -18.0200   -1.1200  -22.3500 O.3       1 SER1        0.0000 
      2 OG        -16.7400   -1.5500  -22.9800 O.3       1 SER1        0.0000 
      3 OG        -17.3900   -3.0900  -19.7100 O.3       1 SER1        0.0000 
      4 OG        -16.1000   -3.5200  -20.3400 O.3       1 SER1        0.0000 
      5 OG        -16.0300   -2.2300  -21.1000 O.3       1 SER1        0.0000 
      6 N         -20.0100   -0.0200  -23.6000 N.am      2 ALA2        0.0000 
      7 N         -19.9500    1.2800  -24.3600 N.am      2 ALA2        0.0000 
      8 O         -19.8300    3.8700  -25.8600 O.2       2 ALA2        0.0000 
      9 N         -19.3100   -0.6900  -21.7200 N.am      2 ALA2        0.0000 
     10 N         -19.2500    0.6100  -22.4700 N.am      2 ALA2        0.0000 
     11 N         -20.4800    2.3300  -22.5900 N.am      2 ALA2        0.0000 
     12 N         -19.1900    1.9000  -23.2200 N.am      2 ALA2        0.0000 
     13 O         -20.3500    4.9200  -24.1000 O.2       2 ALA2        0.0000 
     14 O         -19.0600    4.4900  -24.7300 O.2       2 ALA2        0.0000 
     15 O         -19.0000    5.7900  -25.4800 O.2       2 ALA2        0.0000 
     16 O         -21.1900   -0.5000  -18.5700 O.2       2 ALA2        0.0000 
     17 O         -19.9000   -0.9300  -19.2000 O.2       2 ALA2        0.0000 
     18 O         -18.6100   -1.3600  -19.8300 O.2       2 ALA2        0.0000 
     19 N         -21.1300    0.7900  -19.3200 N.am      2 ALA2        0.0000 
     20 N         -19.8400    0.3600  -19.9500 N.am      2 ALA2        0.0000 
     21 N         -18.5500   -0.0700  -20.5900 N.am      2 ALA2        0.0000 
     22 N         -19.7800    1.6600  -20.7100 N.am      2 ALA2        0.0000 
     23 N         -18.4900    1.2300  -21.3400 N.am      2 ALA2        0.0000 
     24 OD1       -18.1400   -0.2000  -26.7500 O.co2     3 ASP3        0.0000 
     25 OD1       -18.7300   -0.4500  -24.2400 O.co2     3 ASP3        0.0000 
     26 OD1       -17.4400   -0.8800  -24.8700 O.co2     3 ASP3        0.0000 
     27 OD1       -19.9700   -2.2300  -18.4500 O.co2     3 ASP3        0.0000 
     28 OD1       -19.2000   -1.6100  -17.3100 O.co2     3 ASP3        0.0000 
     29 OD1       -20.4300    0.1200  -17.4300 O.co2     3 ASP3        0.0000 
     30 OD1       -15.8600   -1.8500  -17.4500 O.co2     3 ASP3        0.0000 
     31 OD1       -16.3900   -0.8000  -15.6800 O.co2     3 ASP3        0.0000 
     32 NZ        -18.6800   -2.6600  -19.0800 N.4       4 LYS4        0.0000 
     33 CA        -19.4300    0.2300  -26.1200 C.3       5 GLY6        0.0000 
     34 CA        -19.3600    1.5200  -26.8700 C.3       5 GLY6        0.0000 
     35 CA        -21.1800    3.0100  -24.4800 C.3       5 GLY6        0.0000 
     36 CA        -19.8900    2.5700  -25.1100 C.3       5 GLY6        0.0000 
     37 CA        -20.4200    3.6300  -23.3400 C.3       5 GLY6        0.0000 
     38 CA        -19.7200    2.9500  -21.4600 C.3       5 GLY6        0.0000 
     39 CA        -19.6500    4.2500  -22.2100 C.3       5 GLY6        0.0000 
     40 CA        -18.3600    3.8200  -22.8500 C.3       5 GLY6        0.0000 
     41 CA        -19.5900    5.5400  -22.9700 C.3       5 GLY6        0.0000 
     42 CA        -18.3000    5.1100  -23.6000 C.3       5 GLY6        0.0000 
     43 CA        -18.2400    6.4100  -24.3500 C.3       5 GLY6        0.0000 
     44 CA        -16.6200   -2.4700  -18.5800 C.3       5 GLY6        0.0000 
     45 CA        -21.7200    0.5500  -16.8000 C.3       5 GLY6        0.0000 
     46 CA        -13.9800   -2.0400  -20.6000 C.3       5 GLY6        0.0000 
     47 CA        -21.6600    1.8400  -17.5500 C.3       5 GLY6        0.0000 
     48 CA        -20.3000    2.7100  -18.9400 C.3       5 GLY6        0.0000 
     49 CA        -20.9600    1.1700  -15.6700 C.3       5 GLY6        0.0000 
     50 CA        -20.8900    2.4700  -16.4200 C.3       5 GLY6        0.0000 
     51 CA        -19.6000    2.0400  -17.0500 C.3       5 GLY6        0.0000 
     52 CA        -19.5400    3.3300  -17.8100 C.3       5 GLY6        0.0000 
     53 CA        -18.8400    2.6600  -15.9200 C.3       5 GLY6        0.0000 
     54 DU        -18.6600    0.8500  -24.9900 H         6 CUB7        0.0000 
     55 DU        -17.3700    0.4200  -25.6200 H         6 CUB7        0.0000 
     56 DU        -18.6000    2.1400  -25.7400 H         6 CUB7        0.0000 
     57 DU        -18.5400    3.4400  -26.5000 H         6 CUB7        0.0000 
     58 DU        -17.9600    0.1700  -23.1000 H         6 CUB7        0.0000 
     59 DU        -17.9000    1.4700  -23.8600 H         6 CUB7        0.0000 
     60 DU        -19.1300    3.2000  -23.9800 H         6 CUB7        0.0000 
     61 DU        -17.2600   -0.5000  -21.2200 H         6 CUB7        0.0000 
     62 DU        -17.2000    0.8000  -21.9700 H         6 CUB7        0.0000 
     63 DU        -18.4300    2.5200  -22.0900 H         6 CUB7        0.0000 
     64 DU        -17.9100   -2.0400  -17.9500 H         6 CUB7        0.0000 
     65 DU        -19.1400   -0.3100  -18.0700 H         6 CUB7        0.0000 
     66 DU        -17.8500   -0.7400  -18.7000 H         6 CUB7        0.0000 
     67 DU        -16.5600   -1.1700  -19.3300 H         6 CUB7        0.0000 
     68 DU        -20.3700    1.4100  -18.1900 H         6 CUB7        0.0000 
     69 DU        -19.0800    0.9800  -18.8200 H         6 CUB7        0.0000 
     70 DU        -17.7900    0.5500  -19.4500 H         6 CUB7        0.0000 
     71 DU        -18.4400   -0.9900  -16.1800 H         6 CUB7        0.0000 
     72 DU        -17.1500   -1.4200  -16.8100 H         6 CUB7        0.0000 
     73 DU        -19.6700    0.7400  -16.3000 H         6 CUB7        0.0000 
     74 DU        -18.3800    0.3100  -16.9300 H         6 CUB7        0.0000 
     75 DU        -17.0900   -0.1200  -17.5700 H         6 CUB7        0.0000 
     76 DU        -18.3100    1.6000  -17.6900 H         6 CUB7        0.0000 
     77 DU        -17.6800   -0.3700  -15.0500 H         6 CUB7        0.0000 
     78 DU        -18.9000    1.3600  -15.1700 H         6 CUB7        0.0000 
@<TRIPOS>BOND
@<TRIPOS>SUBSTRUCTURE
     1 SER1        1 GROUP   
     2 ALA2        6 GROUP   
     3 ASP3       24 GROUP   
     4 LYS4       32 GROUP   
     5 GLY6       33 GROUP   
     6 CUB7       54 GROUP   
@<TRIPOS>SET

