#    Name: 6gnt_1_MYA
#    Modification time : Fri May 22 19:29:23 2020

@<TRIPOS>MOLECULE
6gnt_1_MYA
   63    65     1     0     0
SMALL
NO_CHARGES


@<TRIPOS>ATOM
      1 S1         26.3720   -4.6700    7.0190 S.3       1 MYA1001     0.0000 
      2 C2         26.8270   -4.8900    8.7760 C.3       1 MYA1001     0.0000 
      3 C3         27.8240   -6.0390    8.7930 C.3       1 MYA1001     0.0000 
      4 N4         28.1670   -6.3450   10.2200 N.am      1 MYA1001     0.0000 
      5 C5         29.1590   -5.7830   10.8400 C.2       1 MYA1001     0.0000 
      6 O5         29.9760   -4.9180   10.4180 O.2       1 MYA1001     0.0000 
      7 C6         29.2940   -6.2400   12.2980 C.3       1 MYA1001     0.0000 
      8 C7         30.7680   -6.3470   12.8240 C.3       1 MYA1001     0.0000 
      9 N8         31.6060   -7.1330   11.9410 N.am      1 MYA1001     0.0000 
     10 C9         31.4120   -8.4400   11.7480 C.2       1 MYA1001     0.0000 
     11 O9         30.5460   -9.0810   12.3260 O.2       1 MYA1001     0.0000 
     12 C10        32.3040   -9.1030   10.7600 C.3       1 MYA1001     0.0000 
     13 O10        33.5070   -8.3860   10.6400 O.3       1 MYA1001     0.0000 
     14 C11        31.6730   -9.4490    9.4000 C.3       1 MYA1001     0.0000 
     15 C12        32.7660  -10.0380    8.5090 C.3       1 MYA1001     0.0000 
     16 C13        31.0960   -8.1820    8.7150 C.3       1 MYA1001     0.0000 
     17 C14        30.5140  -10.4380    9.5410 C.3       1 MYA1001     0.0000 
     18 N1A        29.1320   -7.3690    4.0000 N.ar      1 MYA1001     0.0000 
     19 O1A        34.3760  -14.1230    7.7530 O.co2     1 MYA1001     0.0000 
     20 P1A        35.3520  -13.2280    7.1570 P.3       1 MYA1001     0.0000 
     21 C1X        33.6140   -9.7790    3.2520 C.3       1 MYA1001     0.0000 
     22 C2A        29.4250   -8.3050    3.0860 C.ar      1 MYA1001     0.0000 
     23 O2A        36.8390  -13.7020    7.0900 O.co2     1 MYA1001     0.0000 
     24 P2A        34.8580  -11.3260    9.2330 P.3       1 MYA1001     0.0000 
     25 C2M        25.1620   -5.8490    6.7880 C.2       1 MYA1001     0.0000 
     26 O2M        24.6260   -6.4650    7.7110 O.2       1 MYA1001     0.0000 
     27 C2X        35.0610   -9.3310    3.0070 C.3       1 MYA1001     0.0000 
     28 O2X        35.1540   -8.3710    1.9750 O.3       1 MYA1001     0.0000 
     29 N3A        30.6660   -8.7990    3.0110 N.ar      1 MYA1001     0.0000 
     30 O3A        35.3960  -11.7220    7.8040 O.3       1 MYA1001     0.0000 
     31 C3M        24.7490   -6.2600    5.3600 C.3       1 MYA1001     0.0000 
     32 C3X        35.6070  -10.7320    2.6830 C.3       1 MYA1001     0.0000 
     33 O3X        35.2930  -11.1160    1.3420 O.3       1 MYA1001     0.0000 
     34 P3X        36.4220  -10.9950    0.2000 P.3       1 MYA1001     0.0000 
     35 C4A        31.6050   -8.3790    3.9030 C.ar      1 MYA1001     0.0000 
     36 O4A        35.4500   -9.9720    9.4340 O.co2     1 MYA1001     0.0000 
     37 C4M        25.3930   -7.5660    4.9930 C.3       1 MYA1001     0.0000 
     38 C4X        34.9080  -11.6830    3.5560 C.3       1 MYA1001     0.0000 
     39 O4X        33.7290  -10.9300    4.0370 O.3       1 MYA1001     0.0000 
     40 C5A        31.3180   -7.4070    4.8590 C.ar      1 MYA1001     0.0000 
     41 O5A        35.0240  -12.3980   10.1810 O.co2     1 MYA1001     0.0000 
     42 C5M        25.3010   -7.8080    3.4740 C.3       1 MYA1001     0.0000 
     43 C5X        35.6670  -11.9110    4.8110 C.3       1 MYA1001     0.0000 
     44 O5X        35.0090  -12.8380    5.6710 O.3       1 MYA1001     0.0000 
     45 C6A        29.9960   -6.8940    4.9120 C.ar      1 MYA1001     0.0000 
     46 N6A        29.5250   -5.9530    5.7390 N.pl3     1 MYA1001     0.0000 
     47 O6A        33.2240  -11.2130    9.0570 O.3       1 MYA1001     0.0000 
     48 C6M        25.8640   -9.2240    3.2150 C.3       1 MYA1001     0.0000 
     49 N7A        32.4240   -7.2080    5.5930 N.2       1 MYA1001     0.0000 
     50 O7A        36.8640   -9.5120    0.1800 O.co2     1 MYA1001     0.0000 
     51 C7M        25.7750   -9.6090    1.7390 C.3       1 MYA1001     0.0000 
     52 C8A        33.3650   -8.0020    5.0970 C.2       1 MYA1001     0.0000 
     53 O8A        37.5700  -11.9580    0.6110 O.co2     1 MYA1001     0.0000 
     54 C8M        24.3570  -10.0920    1.4060 C.3       1 MYA1001     0.0000 
     55 N9A        32.9010   -8.7390    4.0720 N.pl3     1 MYA1001     0.0000 
     56 O9A        35.7970  -11.2550   -1.1510 O.co2     1 MYA1001     0.0000 
     57 C9M        24.3300  -10.5150   -0.0840 C.3       1 MYA1001     0.0000 
     58 CAM        22.9200  -10.9250   -0.5730 C.3       1 MYA1001     0.0000 
     59 CBM        22.5420  -12.2530   -0.0080 C.3       1 MYA1001     0.0000 
     60 CCM        21.1160  -12.7310   -0.4030 C.3       1 MYA1001     0.0000 
     61 CDM        20.9870  -12.9790   -1.9280 C.3       1 MYA1001     0.0000 
     62 CEM        19.5170  -13.5000   -2.2010 C.3       1 MYA1001     0.0000 
     63 CFM        19.2660  -13.5240   -3.7460 C.3       1 MYA1001     0.0000 
@<TRIPOS>BOND
     1    1    2 1    
     2    1   25 1    
     3    2    3 1    
     4    3    4 1    
     5    4    5 am   
     6    5    6 2    
     7    5    7 1    
     8    7    8 1    
     9    8    9 1    
    10    9   10 am   
    11   10   11 2    
    12   10   12 1    
    13   12   13 1    
    14   12   14 1    
    15   14   15 1    
    16   14   16 1    
    17   14   17 1    
    18   15   47 1    
    19   18   22 ar   
    20   18   45 ar   
    21   19   20 ar   
    22   20   23 ar   
    23   20   30 1    
    24   20   44 1    
    25   21   27 1    
    26   21   39 1    
    27   21   55 1    
    28   22   29 ar   
    29   24   30 1    
    30   24   36 ar   
    31   24   41 ar   
    32   24   47 1    
    33   25   26 2    
    34   25   31 1    
    35   27   28 1    
    36   27   32 1    
    37   29   35 ar   
    38   31   37 1    
    39   32   33 1    
    40   32   38 1    
    41   33   34 1    
    42   34   50 ar   
    43   34   53 ar   
    44   34   56 ar   
    45   35   40 ar   
    46   35   55 1    
    47   37   42 1    
    48   38   39 1    
    49   38   43 1    
    50   40   45 ar   
    51   40   49 1    
    52   42   48 1    
    53   43   44 1    
    54   45   46 1    
    55   48   51 1    
    56   49   52 2    
    57   51   54 1    
    58   52   55 1    
    59   54   57 1    
    60   57   58 1    
    61   58   59 1    
    62   59   60 1    
    63   60   61 1    
    64   61   62 1    
    65   62   63 1    
@<TRIPOS>SUBSTRUCTURE
     1 MYA1001     1 GROUP   
@<TRIPOS>SET

