#    Name: 6raw_2_ADP
#    Modification time : Fri May 22 19:28:31 2020

@<TRIPOS>MOLECULE
6raw_2_ADP
   27    29     1     0     1
SMALL
NO_CHARGES


@<TRIPOS>ATOM
      1 PB        174.8670  243.6830  236.1880 P.3       1 ADP901      0.0000 
      2 O1B       174.4820  244.6400  235.0880 O.co2     1 ADP901      0.0000 
      3 O2B       176.1440  244.0850  236.8820 O.co2     1 ADP901      0.0000 
      4 O3B       174.7600  242.2260  235.8130 O.co2     1 ADP901      0.0000 
      5 PA        172.1900  244.0840  236.9360 P.3       1 ADP901      0.0000 
      6 O1A       172.0870  245.2800  236.0250 O.co2     1 ADP901      0.0000 
      7 O2A       171.6390  242.7620  236.4630 O.co2     1 ADP901      0.0000 
      8 O3A       173.7410  243.8900  237.3200 O.3       1 ADP901      0.0000 
      9 O5'       171.5130  244.4950  238.3360 O.3       1 ADP901      0.0000 
     10 C5'       170.1100  244.3510  238.5510 C.3       1 ADP901      0.0000 
     11 C4'       169.8170  244.2420  240.0420 C.3       1 ADP901      0.0000 
     12 O4'       170.2370  245.4270  240.7200 O.3       1 ADP901      0.0000 
     13 C3'       168.3400  244.0470  240.3360 C.3       1 ADP901      0.0000 
     14 O3'       168.1060  242.7190  240.8090 O.3       1 ADP901      0.0000 
     15 C2'       168.0170  245.0430  241.4320 C.3       1 ADP901      0.0000 
     16 O2'       167.5210  244.3480  242.5780 O.3       1 ADP901      0.0000 
     17 C1'       169.3270  245.7400  241.7760 C.3       1 ADP901      0.0000 
     18 N9        169.2150  247.2230  241.8930 N.pl3     1 ADP901      0.0000 
     19 C8        170.1730  247.9910  242.4470 C.2       1 ADP901      0.0000 
     20 N7        169.8350  249.3020  242.4380 N.2       1 ADP901      0.0000 
     21 C5        168.6240  249.3960  241.8670 C.ar      1 ADP901      0.0000 
     22 C6        167.6950  250.5040  241.5500 C.ar      1 ADP901      0.0000 
     23 N6        168.0130  251.7860  241.8520 N.pl3     1 ADP901      0.0000 
     24 N1        166.5250  250.1940  240.9510 N.ar      1 ADP901      0.0000 
     25 C2        166.2060  248.9230  240.6490 C.ar      1 ADP901      0.0000 
     26 N3        167.0030  247.8710  240.9080 N.ar      1 ADP901      0.0000 
     27 C4        168.2090  248.0280  241.5120 C.ar      1 ADP901      0.0000 
@<TRIPOS>BOND
     1    1    2 ar   
     2    1    3 ar   
     3    1    4 ar   
     4    1    8 1    
     5    5    6 ar   
     6    5    7 ar   
     7    5    8 1    
     8    5    9 1    
     9    9   10 1    
    10   10   11 1    
    11   11   12 1    
    12   11   13 1    
    13   12   17 1    
    14   13   14 1    
    15   13   15 1    
    16   15   16 1    
    17   15   17 1    
    18   17   18 1    
    19   18   19 1    
    20   18   27 1    
    21   19   20 2    
    22   20   21 1    
    23   21   22 ar   
    24   21   27 ar   
    25   22   23 1    
    26   22   24 ar   
    27   24   25 ar   
    28   25   26 ar   
    29   26   27 ar   
@<TRIPOS>SUBSTRUCTURE
     1 ADP901      1 GROUP   
@<TRIPOS>SET
ATOM$ORANGE STATIC     ATOMS   COLORGROUP SYSTEM 
20 10 10 11 11 13 13 15 15 17 17 19 19 21 21 22 22 25 \
25 27 27 

