#    Name: 6raw_1_ATP
#    Modification time : Fri May 22 19:28:10 2020

@<TRIPOS>MOLECULE
6raw_1_ATP
   31    33     1     0     1
SMALL
NO_CHARGES


@<TRIPOS>ATOM
      1 PG        217.8540  249.2160  202.6620 P.3       1 ATP901      0.0000 
      2 O1G       217.0090  248.3110  201.7970 O.co2     1 ATP901      0.0000 
      3 O2G       217.1910  249.6770  203.9360 O.co2     1 ATP901      0.0000 
      4 O3G       219.2840  248.7590  202.8210 O.co2     1 ATP901      0.0000 
      5 PB        219.0990  250.4740  200.6140 P.3       1 ATP901      0.0000 
      6 O1B       219.0600  249.0770  200.0700 O.co2     1 ATP901      0.0000 
      7 O2B       220.3890  251.0050  201.1890 O.co2     1 ATP901      0.0000 
      8 O3B       217.9980  250.5450  201.7730 O.3       1 ATP901      0.0000 
      9 PA        219.5510  251.7040  198.2320 P.3       1 ATP901      0.0000 
     10 O1A       220.4460  252.8690  198.5610 O.co2     1 ATP901      0.0000 
     11 O2A       220.1130  250.3290  197.9810 O.co2     1 ATP901      0.0000 
     12 O3A       218.5850  251.5140  199.4980 O.3       1 ATP901      0.0000 
     13 O5'       218.6300  252.1560  196.9980 O.3       1 ATP901      0.0000 
     14 C5'       217.7900  253.2830  197.1840 C.3       1 ATP901      0.0000 
     15 C4'       217.6100  253.9490  195.8260 C.3       1 ATP901      0.0000 
     16 O4'       218.5080  255.0590  195.7530 O.3       1 ATP901      0.0000 
     17 C3'       217.9880  253.0490  194.6570 C.3       1 ATP901      0.0000 
     18 O3'       216.9860  253.1590  193.6420 O.3       1 ATP901      0.0000 
     19 C2'       219.2900  253.5710  194.1030 C.3       1 ATP901      0.0000 
     20 O2'       219.2590  253.5500  192.6750 O.3       1 ATP901      0.0000 
     21 C1'       219.3120  254.9970  194.5730 C.3       1 ATP901      0.0000 
     22 N9        220.7230  255.3020  194.8860 N.pl3     1 ATP901      0.0000 
     23 C8        221.1580  255.7170  196.0850 C.2       1 ATP901      0.0000 
     24 N7        222.5000  255.8940  196.0910 N.2       1 ATP901      0.0000 
     25 C5        222.9460  255.5580  194.8710 C.ar      1 ATP901      0.0000 
     26 C6        224.2640  255.5200  194.2090 C.ar      1 ATP901      0.0000 
     27 N6        225.3840  255.8760  194.8830 N.pl3     1 ATP901      0.0000 
     28 N1        224.3110  255.1060  192.9260 N.ar      1 ATP901      0.0000 
     29 C2        223.1980  254.7490  192.2600 C.ar      1 ATP901      0.0000 
     30 N3        221.9650  254.7650  192.7980 N.ar      1 ATP901      0.0000 
     31 C4        221.7770  255.1440  194.0830 C.ar      1 ATP901      0.0000 
@<TRIPOS>BOND
     1    1    2 ar   
     2    1    3 ar   
     3    1    4 ar   
     4    1    8 1    
     5    5    6 ar   
     6    5    7 ar   
     7    5    8 1    
     8    5   12 1    
     9    9   10 ar   
    10    9   11 ar   
    11    9   12 1    
    12    9   13 1    
    13   13   14 1    
    14   14   15 1    
    15   15   16 1    
    16   15   17 1    
    17   16   21 1    
    18   17   18 1    
    19   17   19 1    
    20   19   20 1    
    21   19   21 1    
    22   21   22 1    
    23   22   23 1    
    24   22   31 1    
    25   23   24 2    
    26   24   25 1    
    27   25   26 ar   
    28   25   31 ar   
    29   26   27 1    
    30   26   28 ar   
    31   28   29 ar   
    32   29   30 ar   
    33   30   31 ar   
@<TRIPOS>SUBSTRUCTURE
     1 ATP901      1 GROUP   
@<TRIPOS>SET
ATOM$ORANGE STATIC     ATOMS   COLORGROUP SYSTEM 
20 14 14 15 15 17 17 19 19 21 21 23 23 25 25 26 26 29 \
29 31 31 

