#    Name: 6clx_2_SAM
#    Modification time : Fri May 22 19:27:33 2020

@<TRIPOS>MOLECULE
6clx_2_SAM
   27    29     1     0     0
SMALL
NO_CHARGES


@<TRIPOS>ATOM
      1 N         -41.9750   16.3140  -51.4170 N.4       1 SAM401      0.0000 
      2 CA        -40.9780   16.1910  -50.3660 C.3       1 SAM401      0.0000 
      3 C         -40.6150   14.7470  -50.1560 C.2       1 SAM401      0.0000 
      4 O         -41.3320   13.8530  -50.6600 O.co2     1 SAM401      0.0000 
      5 OXT       -39.6030   14.4910  -49.4700 O.co2     1 SAM401      0.0000 
      6 CB        -41.5070   16.7470  -49.0450 C.3       1 SAM401      0.0000 
      7 CG        -41.7850   18.2480  -49.0970 C.3       1 SAM401      0.0000 
      8 SD        -41.5650   19.0300  -47.6340 S.3       1 SAM401      0.0000 
      9 CE        -42.2440   18.2210  -46.3430 C.3       1 SAM401      0.0000 
     10 C5'       -42.2680   20.5460  -47.6980 C.3       1 SAM401      0.0000 
     11 C4'       -41.9890   21.3100  -48.9860 C.3       1 SAM401      0.0000 
     12 O4'       -42.6900   22.5600  -48.9860 O.3       1 SAM401      0.0000 
     13 C3'       -40.5100   21.6580  -49.1630 C.3       1 SAM401      0.0000 
     14 O3'       -40.0080   21.0740  -50.3720 O.3       1 SAM401      0.0000 
     15 C2'       -40.4680   23.1750  -49.2190 C.3       1 SAM401      0.0000 
     16 O2'       -39.4400   23.6700  -50.0860 O.3       1 SAM401      0.0000 
     17 C1'       -41.8680   23.4660  -49.7300 C.3       1 SAM401      0.0000 
     18 N9        -42.2930   24.8970  -49.6560 N.pl3     1 SAM401      0.0000 
     19 C8        -42.2610   25.7500  -48.6060 C.2       1 SAM401      0.0000 
     20 N7        -42.7420   26.9760  -48.9610 N.2       1 SAM401      0.0000 
     21 C5        -43.0910   26.9180  -50.2620 C.ar      1 SAM401      0.0000 
     22 C6        -43.6650   27.8310  -51.2850 C.ar      1 SAM401      0.0000 
     23 N6        -43.9820   29.1140  -50.9950 N.pl3     1 SAM401      0.0000 
     24 N1        -43.8640   27.3370  -52.5330 N.ar      1 SAM401      0.0000 
     25 C2        -43.5650   26.0670  -52.8820 C.ar      1 SAM401      0.0000 
     26 N3        -43.0470   25.1910  -52.0040 N.ar      1 SAM401      0.0000 
     27 C4        -42.7910   25.5450  -50.7120 C.ar      1 SAM401      0.0000 
@<TRIPOS>BOND
     1    1    2 1    
     2    2    3 1    
     3    2    6 1    
     4    3    4 ar   
     5    3    5 ar   
     6    6    7 1    
     7    7    8 1    
     8    8    9 1    
     9    8   10 1    
    10   10   11 1    
    11   11   12 1    
    12   11   13 1    
    13   12   17 1    
    14   13   14 1    
    15   13   15 1    
    16   15   16 1    
    17   15   17 1    
    18   17   18 1    
    19   18   19 1    
    20   18   27 1    
    21   19   20 2    
    22   20   21 1    
    23   21   22 ar   
    24   21   27 ar   
    25   22   23 1    
    26   22   24 ar   
    27   24   25 ar   
    28   25   26 ar   
    29   26   27 ar   
@<TRIPOS>SUBSTRUCTURE
     1 SAM401      1 GROUP   
@<TRIPOS>SET

