#    Name: 6clx_1_SAM
#    Modification time : Fri May 22 19:27:28 2020

@<TRIPOS>MOLECULE
6clx_1_SAM
   27    29     1     0     0
SMALL
NO_CHARGES


@<TRIPOS>ATOM
      1 N         -28.9310   19.3230    2.9060 N.4       1 SAM401      0.0000 
      2 CA        -29.8690   20.1190    2.1330 C.3       1 SAM401      0.0000 
      3 C         -31.1510   19.3590    1.9020 C.2       1 SAM401      0.0000 
      4 O         -31.0860   18.2120    1.4070 O.co2     1 SAM401      0.0000 
      5 OXT       -32.2370   19.9170    2.1960 O.co2     1 SAM401      0.0000 
      6 CB        -29.2590   20.5190    0.7890 C.3       1 SAM401      0.0000 
      7 CG        -30.0560   21.6690    0.1690 C.3       1 SAM401      0.0000 
      8 SD        -29.4540   22.2010   -1.2980 S.3       1 SAM401      0.0000 
      9 CE        -29.0030   20.9190   -2.2380 C.3       1 SAM401      0.0000 
     10 C5'       -28.1360   23.2000   -1.1030 C.3       1 SAM401      0.0000 
     11 C4'       -28.3970   24.3580   -0.1440 C.3       1 SAM401      0.0000 
     12 O4'       -27.3110   25.2750   -0.2800 O.3       1 SAM401      0.0000 
     13 C3'       -29.6880   25.1550   -0.3960 C.3       1 SAM401      0.0000 
     14 O3'       -30.5420   25.1480    0.7570 O.3       1 SAM401      0.0000 
     15 C2'       -29.2280   26.5550   -0.7450 C.3       1 SAM401      0.0000 
     16 O2'       -30.1240   27.5680   -0.2630 O.3       1 SAM401      0.0000 
     17 C1'       -27.8500   26.5840   -0.1000 C.3       1 SAM401      0.0000 
     18 N9        -26.9390   27.6380   -0.6140 N.pl3     1 SAM401      0.0000 
     19 C8        -26.6350   27.9480   -1.8900 C.2       1 SAM401      0.0000 
     20 N7        -25.7530   28.9820   -1.9310 N.2       1 SAM401      0.0000 
     21 C5        -25.4780   29.3380   -0.6640 C.ar      1 SAM401      0.0000 
     22 C6        -24.6340   30.3430    0.0290 C.ar      1 SAM401      0.0000 
     23 N6        -23.8630   31.2190   -0.6560 N.pl3     1 SAM401      0.0000 
     24 N1        -24.6620   30.3500    1.3840 N.ar      1 SAM401      0.0000 
     25 C2        -25.4150   29.5060    2.1230 C.ar      1 SAM401      0.0000 
     26 N3        -26.1970   28.5750    1.5540 N.ar      1 SAM401      0.0000 
     27 C4        -26.2680   28.4470    0.1990 C.ar      1 SAM401      0.0000 
@<TRIPOS>BOND
     1    1    2 1    
     2    2    3 1    
     3    2    6 1    
     4    3    4 ar   
     5    3    5 ar   
     6    6    7 1    
     7    7    8 1    
     8    8    9 1    
     9    8   10 1    
    10   10   11 1    
    11   11   12 1    
    12   11   13 1    
    13   12   17 1    
    14   13   14 1    
    15   13   15 1    
    16   15   16 1    
    17   15   17 1    
    18   17   18 1    
    19   18   19 1    
    20   18   27 1    
    21   19   20 2    
    22   20   21 1    
    23   21   22 ar   
    24   21   27 ar   
    25   22   23 1    
    26   22   24 ar   
    27   24   25 ar   
    28   25   26 ar   
    29   26   27 ar   
@<TRIPOS>SUBSTRUCTURE
     1 SAM401      1 GROUP   
@<TRIPOS>SET

