#    Name: 6qch_2_AR6
#    Modification time : Fri May 22 19:33:28 2020

@<TRIPOS>MOLECULE
6qch_2_AR6
   36    39     1     0     0
SMALL
NO_CHARGES


@<TRIPOS>ATOM
      1 N1        -19.3940   24.6690   36.8640 N.ar      1 AR6401      0.0000 
      2 C2        -19.5390   25.5130   37.9000 C.ar      1 AR6401      0.0000 
      3 N3        -20.6290   25.7960   38.6110 N.ar      1 AR6401      0.0000 
      4 C4        -21.6740   25.0740   38.1770 C.ar      1 AR6401      0.0000 
      5 C5        -21.6920   24.1910   37.1240 C.ar      1 AR6401      0.0000 
      6 C6        -20.4760   23.9670   36.4400 C.ar      1 AR6401      0.0000 
      7 N6        -20.3210   23.0800   35.4520 N.pl3     1 AR6401      0.0000 
      8 N7        -22.9580   23.6450   37.0000 N.2       1 AR6401      0.0000 
      9 C8        -23.6600   24.1960   37.9610 C.2       1 AR6401      0.0000 
     10 N9        -22.9410   25.0960   38.6770 N.pl3     1 AR6401      0.0000 
     11 PA        -27.3050   23.9200   43.8820 P.3       1 AR6401      0.0000 
     12 PB        -26.2370   22.1350   45.9210 P.3       1 AR6401      0.0000 
     13 C1'       -23.3810   25.8360   39.8770 C.3       1 AR6401      0.0000 
     14 O1A       -27.9280   24.6530   45.0120 O.co2     1 AR6401      0.0000 
     15 O1B       -25.6050   20.8050   45.7310 O.co2     1 AR6401      0.0000 
     16 C1D       -30.7340   20.2830   47.5310 C.3       1 AR6401      0.0000 
     17 O1D       -31.9000   20.3150   48.2400 O.3       1 AR6401      0.0000 
     18 C2'       -24.6850   26.6250   39.8250 C.3       1 AR6401      0.0000 
     19 O2'       -24.3830   27.9590   39.4980 O.3       1 AR6401      0.0000 
     20 O2A       -28.0040   23.6370   42.5590 O.co2     1 AR6401      0.0000 
     21 O2B       -25.4180   23.2990   46.3900 O.co2     1 AR6401      0.0000 
     22 C2D       -30.1370   18.8980   47.6870 C.3       1 AR6401      0.0000 
     23 O2D       -30.3230   18.3390   48.9690 O.3       1 AR6401      0.0000 
     24 C3'       -25.2510   26.4720   41.2580 C.3       1 AR6401      0.0000 
     25 O3'       -25.0120   27.6800   41.9650 O.3       1 AR6401      0.0000 
     26 O3A       -26.9100   22.4920   44.4890 O.3       1 AR6401      0.0000 
     27 C3D       -28.6660   19.1540   47.5040 C.3       1 AR6401      0.0000 
     28 O3D       -27.9240   18.0650   48.0450 O.3       1 AR6401      0.0000 
     29 C4'       -24.4660   25.3000   41.8680 C.3       1 AR6401      0.0000 
     30 O4'       -23.6040   24.8320   40.8290 O.3       1 AR6401      0.0000 
     31 C4D       -28.5480   20.4350   48.3300 C.3       1 AR6401      0.0000 
     32 O4D       -29.7740   21.1570   48.0990 O.3       1 AR6401      0.0000 
     33 C5'       -25.2380   24.1100   42.3540 C.3       1 AR6401      0.0000 
     34 O5'       -25.8760   24.4880   43.6180 O.3       1 AR6401      0.0000 
     35 C5D       -27.3860   21.3250   48.0360 C.3       1 AR6401      0.0000 
     36 O5D       -27.5600   21.9170   46.7480 O.3       1 AR6401      0.0000 
@<TRIPOS>BOND
     1    1    2 ar   
     2    1    6 ar   
     3    2    3 ar   
     4    3    4 ar   
     5    4    5 ar   
     6    4   10 1    
     7    5    6 ar   
     8    5    8 1    
     9    6    7 1    
    10    8    9 2    
    11    9   10 1    
    12   10   13 1    
    13   11   14 ar   
    14   11   20 ar   
    15   11   26 1    
    16   11   34 1    
    17   12   15 ar   
    18   12   21 ar   
    19   12   26 1    
    20   12   36 1    
    21   13   18 1    
    22   13   30 1    
    23   16   17 1    
    24   16   22 1    
    25   16   32 1    
    26   18   19 1    
    27   18   24 1    
    28   22   23 1    
    29   22   27 1    
    30   24   25 1    
    31   24   29 1    
    32   27   28 1    
    33   27   31 1    
    34   29   30 1    
    35   29   33 1    
    36   31   32 1    
    37   31   35 1    
    38   33   34 1    
    39   35   36 1    
@<TRIPOS>SUBSTRUCTURE
     1 AR6401      1 GROUP   
@<TRIPOS>SET

