#    Name: 6qch_1_AR6_CAVITY_N1_4
#    Modification time : Fri May 22 19:33:21 2020

@<TRIPOS>MOLECULE
6qch_1_AR6_CAVITY_N1_4
   93     0     7     0     0
SMALL
NO_CHARGES


@<TRIPOS>ATOM
      1 OG        -27.8100   22.6800    9.0700 O.3       1 SER1        0.0000 
      2 OG        -27.3000   23.3000   10.3400 O.3       1 SER1        0.0000 
      3 OG        -26.8800   21.9400   10.8300 O.3       1 SER1        0.0000 
      4 OG        -28.2300   21.7600   11.4600 O.3       1 SER1        0.0000 
      5 OG        -32.3600   16.9500   15.4700 O.3       1 SER1        0.0000 
      6 OG        -30.5900   15.7800   15.3300 O.3       1 SER1        0.0000 
      7 OG        -26.3700   22.5600   12.1000 O.3       1 SER1        0.0000 
      8 OG        -27.7200   22.3800   12.7300 O.3       1 SER1        0.0000 
      9 OG        -25.9500   21.2100   12.5900 O.3       1 SER1        0.0000 
     10 OG        -27.3000   21.0200   13.2200 O.3       1 SER1        0.0000 
     11 OG        -32.7700   16.0200   17.8600 O.3       1 SER1        0.0000 
     12 N         -25.9600   23.4900    9.7000 N.am      2 ALA2        0.0000 
     13 N         -29.6600   17.3200   14.2000 N.am      2 ALA2        0.0000 
     14 O         -31.9400   15.5900   15.9600 O.2       2 ALA2        0.0000 
     15 N         -27.2100   25.2700   11.1100 N.am      2 ALA2        0.0000 
     16 N         -25.4500   24.1000   10.9700 N.am      2 ALA2        0.0000 
     17 O         -30.0800   16.4000   16.6000 O.2       2 ALA2        0.0000 
     18 O         -31.4300   16.2100   17.2300 O.2       2 ALA2        0.0000 
     19 N         -31.0100   14.8600   17.7200 N.am      2 ALA2        0.0000 
     20 N         -33.7000   14.4800   18.9900 N.am      2 ALA2        0.0000 
     21 N         -31.9400   13.3200   18.8500 N.am      2 ALA2        0.0000 
     22 N         -33.2800   13.1300   19.4800 N.am      2 ALA2        0.0000 
     23 N         -24.9400   24.7200   12.2400 N.am      2 ALA2        0.0000 
     24 N         -30.5000   15.4800   18.9900 N.am      2 ALA2        0.0000 
     25 N         -31.4300   13.9400   20.1100 N.am      2 ALA2        0.0000 
     26 N         -32.3500   12.3900   21.2400 N.am      2 ALA2        0.0000 
     27 N         -31.9300   11.0400   21.7300 N.am      2 ALA2        0.0000 
     28 O         -31.5100    9.6900   22.2200 O.2       2 ALA2        0.0000 
     29 N         -29.6600   10.4900   22.8600 N.am      2 ALA2        0.0000 
     30 N         -30.5800    8.9500   23.9800 N.am      2 ALA2        0.0000 
     31 N         -29.5700   12.4700   23.6300 N.am      2 ALA2        0.0000 
     32 N         -29.1500   11.1100   24.1200 N.am      2 ALA2        0.0000 
     33 O         -28.7300    9.7600   24.6200 O.2       2 ALA2        0.0000 
     34 OD1       -30.5000   20.0300   13.2200 O.co2     3 ASP3        0.0000 
     35 OD1       -30.0800   18.6700   13.7100 O.co2     3 ASP3        0.0000 
     36 OD1       -31.0100   17.1300   14.8400 O.co2     3 ASP3        0.0000 
     37 OD1       -30.4100   22.0000   13.9900 O.co2     3 ASP3        0.0000 
     38 OD1       -29.9900   20.6500   14.4900 O.co2     3 ASP3        0.0000 
     39 OD1       -30.5000   17.7500   16.1000 O.co2     3 ASP3        0.0000 
     40 OD1       -31.8500   17.5600   16.7400 O.co2     3 ASP3        0.0000 
     41 NZ        -32.2700   16.6400   19.1300 N.4       4 LYS4        0.0000 
     42 NZ        -31.8500   15.2900   19.6200 N.4       4 LYS4        0.0000 
     43 NZ        -33.1900   15.1000   20.2500 N.4       4 LYS4        0.0000 
     44 NZ        -32.7700   13.7500   20.7500 N.4       4 LYS4        0.0000 
     45 NZ        -31.8400   13.0100   22.5100 N.4       4 LYS4        0.0000 
     46 CZ        -28.2300   24.0300    8.5800 C.ar      5 PHE5        0.0000 
     47 CZ        -29.5800   23.8400    9.2100 C.ar      5 PHE5        0.0000 
     48 CZ        -26.4600   22.8700    8.4400 C.ar      5 PHE5        0.0000 
     49 CZ        -28.7400   21.1400   10.1900 C.ar      5 PHE5        0.0000 
     50 CZ        -29.0700   24.4600   10.4800 C.ar      5 PHE5        0.0000 
     51 CZ        -30.0000   22.9200   11.6000 C.ar      5 PHE5        0.0000 
     52 CZ        -29.1600   20.2200   12.5900 C.ar      5 PHE5        0.0000 
     53 CZ        -28.7400   18.8600   13.0800 C.ar      5 PHE5        0.0000 
     54 CZ        -28.5600   25.0800   11.7500 C.ar      5 PHE5        0.0000 
     55 CZ        -29.4900   23.5400   12.8700 C.ar      5 PHE5        0.0000 
     56 CZ        -28.6500   20.8300   13.8500 C.ar      5 PHE5        0.0000 
     57 CZ        -28.2300   19.4800   14.3500 C.ar      5 PHE5        0.0000 
     58 CZ        -29.5700   19.2900   14.9800 C.ar      5 PHE5        0.0000 
     59 CZ        -29.1500   17.9400   15.4700 C.ar      5 PHE5        0.0000 
     60 CZ        -28.0500   25.7000   13.0100 C.ar      5 PHE5        0.0000 
     61 CZ        -27.6300   24.3500   13.5000 C.ar      5 PHE5        0.0000 
     62 CZ        -28.9800   24.1600   14.1400 C.ar      5 PHE5        0.0000 
     63 CZ        -25.8600   23.1800   13.3600 C.ar      5 PHE5        0.0000 
     64 CZ        -27.2100   22.9900   14.0000 C.ar      5 PHE5        0.0000 
     65 CZ        -28.5600   22.8100   14.6300 C.ar      5 PHE5        0.0000 
     66 CZ        -26.7900   21.6400   14.4900 C.ar      5 PHE5        0.0000 
     67 CZ        -27.1200   24.9700   14.7700 C.ar      5 PHE5        0.0000 
     68 CZ        -25.3500   23.8000   14.6300 C.ar      5 PHE5        0.0000 
     69 CA        -29.1600   22.4900    9.7000 C.3       6 GLY6        0.0000 
     70 CA        -30.0900   20.9500   10.8300 C.3       6 GLY6        0.0000 
     71 CA        -29.6700   19.6000   11.3200 C.3       6 GLY6        0.0000 
     72 CA        -29.5800   21.5700   12.0900 C.3       6 GLY6        0.0000 
     73 CA        -28.3200   17.5100   13.5700 C.3       6 GLY6        0.0000 
     74 CA        -25.0300   22.7500   11.4600 C.3       6 GLY6        0.0000 
     75 CA        -24.5200   23.3700   12.7300 C.3       6 GLY6        0.0000 
     76 CA        -25.4400   21.8300   13.8600 C.3       6 GLY6        0.0000 
     77 CA        -30.9200   16.8300   18.5000 C.3       6 GLY6        0.0000 
     78 CA        -31.0100   12.5800   20.6100 C.3       6 GLY6        0.0000 
     79 CA        -30.5900   11.2300   21.1000 C.3       6 GLY6        0.0000 
     80 CA        -30.1700    9.8700   21.5900 C.3       6 GLY6        0.0000 
     81 CA        -30.0800   11.8500   22.3600 C.3       6 GLY6        0.0000 
     82 CA        -31.4200   11.6600   23.0000 C.3       6 GLY6        0.0000 
     83 CA        -31.0000   10.3100   23.4900 C.3       6 GLY6        0.0000 
     84 CA        -29.2400    9.1400   23.3500 C.3       6 GLY6        0.0000 
     85 CA        -30.9100   12.2800   24.2700 C.3       6 GLY6        0.0000 
     86 CA        -30.4900   10.9200   24.7600 C.3       6 GLY6        0.0000 
     87 CA        -30.0700    9.5700   25.2500 C.3       6 GLY6        0.0000 
     88 DU        -27.7200   24.6500    9.8400 H         7 CUB7        0.0000 
     89 DU        -28.6500   23.1100   10.9700 H         7 CUB7        0.0000 
     90 DU        -26.7900   23.9200   11.6000 H         7 CUB7        0.0000 
     91 DU        -28.1400   23.7300   12.2400 H         7 CUB7        0.0000 
     92 DU        -29.0700   22.1900   13.3600 H         7 CUB7        0.0000 
     93 DU        -26.2800   24.5400   12.8700 H         7 CUB7        0.0000 
@<TRIPOS>BOND
@<TRIPOS>SUBSTRUCTURE
     1 SER1        1 GROUP   
     2 ALA2       12 GROUP   
     3 ASP3       34 GROUP   
     4 LYS4       41 GROUP   
     5 PHE5       46 GROUP   
     6 GLY6       69 GROUP   
     7 CUB7       88 GROUP   
@<TRIPOS>SET

