#    Name: 6qch_1_AR6
#    Modification time : Fri May 22 19:33:19 2020

@<TRIPOS>MOLECULE
6qch_1_AR6
   36    39     1     0     0
SMALL
NO_CHARGES


@<TRIPOS>ATOM
      1 N1        -29.8500    9.5200   24.4020 N.ar      1 AR6401      0.0000 
      2 C2        -30.6670    9.3540   23.3420 C.ar      1 AR6401      0.0000 
      3 N3        -31.3440   10.2820   22.6480 N.ar      1 AR6401      0.0000 
      4 C4        -31.0140   11.5230   23.0160 C.ar      1 AR6401      0.0000 
      5 C5        -30.2240   11.8580   24.1030 C.ar      1 AR6401      0.0000 
      6 C6        -29.5990   10.7970   24.8150 C.ar      1 AR6401      0.0000 
      7 N6        -28.7420   10.9560   25.8360 N.pl3     1 AR6401      0.0000 
      8 N7        -30.1780   13.2510   24.1900 N.2       1 AR6401      0.0000 
      9 C8        -30.8710   13.6970   23.1680 C.2       1 AR6401      0.0000 
     10 N9        -31.5030   12.6940   22.4880 N.pl3     1 AR6401      0.0000 
     11 PA        -31.9530   17.1270   17.1170 P.3       1 AR6401      0.0000 
     12 PB        -29.8340   16.7480   15.0730 P.3       1 AR6401      0.0000 
     13 C1'       -32.3890   12.8310   21.2850 C.3       1 AR6401      0.0000 
     14 O1A       -32.9800   17.2800   16.0310 O.co2     1 AR6401      0.0000 
     15 O1B       -28.4050   16.3790   15.2480 O.co2     1 AR6401      0.0000 
     16 C1D       -29.6940   21.7760   13.5190 C.3       1 AR6401      0.0000 
     17 O1D       -30.3920   22.8210   12.9580 O.3       1 AR6401      0.0000 
     18 C2'       -33.4780   13.8830   21.2810 C.3       1 AR6401      0.0000 
     19 O2'       -34.6580   13.2970   21.7180 O.3       1 AR6401      0.0000 
     20 O2A       -31.9870   18.0350   18.3210 O.co2     1 AR6401      0.0000 
     21 O2B       -30.8180   15.7760   14.5030 O.co2     1 AR6401      0.0000 
     22 C2D       -28.1840   21.7090   13.2860 C.3       1 AR6401      0.0000 
     23 O2D       -27.7510   21.9890   11.9660 O.3       1 AR6401      0.0000 
     24 C3'       -33.5950   14.3190   19.7870 C.3       1 AR6401      0.0000 
     25 O3'       -34.6990   13.6990   19.1510 O.3       1 AR6401      0.0000 
     26 O3A       -30.4660   17.2640   16.4980 O.3       1 AR6401      0.0000 
     27 C3D       -27.9420   20.2150   13.5180 C.3       1 AR6401      0.0000 
     28 O3D       -26.7670   19.7150   12.8980 O.3       1 AR6401      0.0000 
     29 C4'       -32.2620   13.8840   19.1780 C.3       1 AR6401      0.0000 
     30 O4'       -31.5360   13.2270   20.2430 O.3       1 AR6401      0.0000 
     31 C4D       -29.1120   19.6390   12.7200 C.3       1 AR6401      0.0000 
     32 O4D       -30.1780   20.5710   12.9110 O.3       1 AR6401      0.0000 
     33 C5'       -31.3480   14.9060   18.5740 C.3       1 AR6401      0.0000 
     34 O5'       -32.0450   15.6010   17.4930 O.3       1 AR6401      0.0000 
     35 C5D       -29.6090   18.2560   13.0120 C.3       1 AR6401      0.0000 
     36 O5D       -29.9420   18.1820   14.4040 O.3       1 AR6401      0.0000 
@<TRIPOS>BOND
     1    1    2 ar   
     2    1    6 ar   
     3    2    3 ar   
     4    3    4 ar   
     5    4    5 ar   
     6    4   10 1    
     7    5    6 ar   
     8    5    8 1    
     9    6    7 1    
    10    8    9 2    
    11    9   10 1    
    12   10   13 1    
    13   11   14 ar   
    14   11   20 ar   
    15   11   26 1    
    16   11   34 1    
    17   12   15 ar   
    18   12   21 ar   
    19   12   26 1    
    20   12   36 1    
    21   13   18 1    
    22   13   30 1    
    23   16   17 1    
    24   16   22 1    
    25   16   32 1    
    26   18   19 1    
    27   18   24 1    
    28   22   23 1    
    29   22   27 1    
    30   24   25 1    
    31   24   29 1    
    32   27   28 1    
    33   27   31 1    
    34   29   30 1    
    35   29   33 1    
    36   31   32 1    
    37   31   35 1    
    38   33   34 1    
    39   35   36 1    
@<TRIPOS>SUBSTRUCTURE
     1 AR6401      1 GROUP   
@<TRIPOS>SET

