#    Name: 6qch_2_AR6_CAVITY_N1_ALL
#    Modification time : Fri May 22 19:33:30 2020

@<TRIPOS>MOLECULE
6qch_2_AR6_CAVITY_N1_ALL
   71     0     6     0     0
SMALL
NO_CHARGES


@<TRIPOS>ATOM
      1 OG        -30.0900   16.3700   48.5600 O.3       1 SER1        0.0000 
      2 OG        -29.0700   19.8900   48.2100 O.3       1 SER1        0.0000 
      3 OG        -28.6500   18.5300   48.7000 O.3       1 SER1        0.0000 
      4 OG        -30.0000   18.3500   49.3300 O.3       1 SER1        0.0000 
      5 OG        -31.3500   18.1600   49.9700 O.3       1 SER1        0.0000 
      6 OG        -30.9300   16.8100   50.4600 O.3       1 SER1        0.0000 
      7 OG        -30.8400   18.7800   51.2300 O.3       1 SER1        0.0000 
      8 OG        -30.4200   17.4200   51.7300 O.3       1 SER1        0.0000 
      9 OG        -29.9100   18.0400   52.9900 O.3       1 SER1        0.0000 
     10 OG        -29.4000   18.6600   54.2600 O.3       1 SER1        0.0000 
     11 N         -33.2900   15.3800   48.5500 N.am      2 ALA2        0.0000 
     12 N         -32.8700   14.0300   49.0500 N.am      2 ALA2        0.0000 
     13 O         -31.3500   20.4300   47.0800 O.2       2 ALA2        0.0000 
     14 N         -28.7400   16.5600   47.9200 N.am      2 ALA2        0.0000 
     15 N         -32.7800   16.0000   49.8200 N.am      2 ALA2        0.0000 
     16 N         -31.0200   14.8300   49.6800 N.am      2 ALA2        0.0000 
     17 N         -27.7300   20.0800   47.5700 N.am      2 ALA2        0.0000 
     18 N         -32.2700   16.6200   51.0900 N.am      2 ALA2        0.0000 
     19 N         -26.2900   22.2400   47.7200 N.am      2 ALA2        0.0000 
     20 N         -27.6400   22.0500   48.3500 N.am      2 ALA2        0.0000 
     21 N         -27.2200   20.6900   48.8400 N.am      2 ALA2        0.0000 
     22 OD1       -28.1500   21.4300   47.0800 O.co2     3 ASP3        0.0000 
     23 OD1       -29.4900   21.2400   47.7200 O.co2     3 ASP3        0.0000 
     24 OD1       -30.8400   21.0500   48.3500 O.co2     3 ASP3        0.0000 
     25 CZ        -32.8800   16.3000   46.1600 C.ar      4 PHE5        0.0000 
     26 CZ        -34.2200   16.1100   46.7900 C.ar      4 PHE5        0.0000 
     27 CZ        -31.1100   15.1400   46.0200 C.ar      4 PHE5        0.0000 
     28 CZ        -32.7900   18.2700   46.9400 C.ar      4 PHE5        0.0000 
     29 CZ        -34.1300   18.0900   47.5700 C.ar      4 PHE5        0.0000 
     30 CZ        -31.0200   17.1100   46.8000 C.ar      4 PHE5        0.0000 
     31 CZ        -32.3700   16.9200   47.4300 C.ar      4 PHE5        0.0000 
     32 CZ        -30.6000   15.7600   47.2900 C.ar      4 PHE5        0.0000 
     33 CZ        -30.0000   20.6200   46.4500 C.ar      4 PHE5        0.0000 
     34 CZ        -29.5800   19.2700   46.9400 C.ar      4 PHE5        0.0000 
     35 CZ        -30.9300   19.0800   47.5700 C.ar      4 PHE5        0.0000 
     36 CZ        -32.2800   18.8900   48.2100 C.ar      4 PHE5        0.0000 
     37 CZ        -33.6200   18.7100   48.8400 C.ar      4 PHE5        0.0000 
     38 CZ        -29.1600   17.9200   47.4300 C.ar      4 PHE5        0.0000 
     39 CZ        -30.5100   17.7300   48.0600 C.ar      4 PHE5        0.0000 
     40 CZ        -33.2000   17.3500   49.3300 C.ar      4 PHE5        0.0000 
     41 CZ        -31.7700   19.5100   49.4700 C.ar      4 PHE5        0.0000 
     42 CZ        -32.6900   17.9700   50.6000 C.ar      4 PHE5        0.0000 
     43 CZ        -31.2600   20.1300   50.7400 C.ar      4 PHE5        0.0000 
     44 CZ        -32.1900   18.5900   51.8700 C.ar      4 PHE5        0.0000 
     45 CZ        -30.0000   16.0700   52.2200 C.ar      4 PHE5        0.0000 
     46 CZ        -31.6800   19.2100   53.1300 C.ar      4 PHE5        0.0000 
     47 CZ        -29.4900   16.6900   53.4800 C.ar      4 PHE5        0.0000 
     48 CA        -32.0400   13.6000   47.1500 C.3       5 GLY6        0.0000 
     49 CA        -33.3800   13.4100   47.7800 C.3       5 GLY6        0.0000 
     50 CA        -31.5300   14.2100   48.4100 C.3       5 GLY6        0.0000 
     51 CA        -29.6700   15.0200   49.0500 C.3       5 GLY6        0.0000 
     52 CA        -30.5100   15.4500   50.9500 C.3       5 GLY6        0.0000 
     53 CA        -28.5600   20.5100   49.4800 C.3       5 GLY6        0.0000 
     54 CA        -29.9100   20.3200   50.1100 C.3       5 GLY6        0.0000 
     55 CA        -31.3500   15.8800   52.8500 C.3       5 GLY6        0.0000 
     56 CA        -30.3300   19.4000   52.5000 C.3       5 GLY6        0.0000 
     57 CA        -30.8400   16.5000   54.1200 C.3       5 GLY6        0.0000 
     58 CA        -31.1700   19.8300   54.4000 C.3       5 GLY6        0.0000 
     59 CA        -30.7500   18.4700   54.8900 C.3       5 GLY6        0.0000 
     60 CA        -28.9800   17.3100   54.7500 C.3       5 GLY6        0.0000 
     61 CA        -30.3300   17.1200   55.3900 C.3       5 GLY6        0.0000 
     62 DU        -32.9700   14.3300   45.3900 H         6 CUB7        0.0000 
     63 DU        -32.4600   14.9500   46.6500 H         6 CUB7        0.0000 
     64 DU        -33.8000   14.7600   47.2900 H         6 CUB7        0.0000 
     65 DU        -33.7100   16.7300   48.0600 H         6 CUB7        0.0000 
     66 DU        -31.9500   15.5700   47.9200 H         6 CUB7        0.0000 
     67 DU        -31.8600   17.5400   48.7000 H         6 CUB7        0.0000 
     68 DU        -31.4400   16.1900   49.1900 H         6 CUB7        0.0000 
     69 DU        -30.4200   19.7000   48.8400 H         6 CUB7        0.0000 
     70 DU        -31.7700   17.2400   52.3600 H         6 CUB7        0.0000 
     71 DU        -31.2600   17.8600   53.6300 H         6 CUB7        0.0000 
@<TRIPOS>BOND
@<TRIPOS>SUBSTRUCTURE
     1 SER1        1 GROUP   
     2 ALA2       11 GROUP   
     3 ASP3       22 GROUP   
     4 PHE5       25 GROUP   
     5 GLY6       48 GROUP   
     6 CUB7       62 GROUP   
@<TRIPOS>SET

