#    Name: 6fvg_1_ATP
#    Modification time : Fri May 22 19:27:05 2020

@<TRIPOS>MOLECULE
6fvg_1_ATP
   31    33     1     0     1
SMALL
NO_CHARGES


@<TRIPOS>ATOM
      1 PG       -115.2750 -185.5210  304.7660 P.3       1 ATP402      0.0000 
      2 O1G      -116.1420 -185.5250  303.5310 O.co2     1 ATP402      0.0000 
      3 O2G      -113.9050 -184.9310  304.5600 O.co2     1 ATP402      0.0000 
      4 O3G      -115.2970 -186.8160  305.5390 O.co2     1 ATP402      0.0000 
      5 PB       -117.0710 -185.0550  306.8070 P.3       1 ATP402      0.0000 
      6 O1B      -117.7010 -186.2990  306.2280 O.co2     1 ATP402      0.0000 
      7 O2B      -116.4010 -185.1120  308.1610 O.co2     1 ATP402      0.0000 
      8 O3B      -116.0040 -184.4860  305.7520 O.3       1 ATP402      0.0000 
      9 PA       -119.6960 -184.2750  307.2740 P.3       1 ATP402      0.0000 
     10 O1A      -120.5960 -183.7540  306.1840 O.co2     1 ATP402      0.0000 
     11 O2A      -119.7350 -185.7330  307.6640 O.co2     1 ATP402      0.0000 
     12 O3A      -118.1880 -183.9030  306.8550 O.3       1 ATP402      0.0000 
     13 O5'      -119.8760 -183.3950  308.6040 O.3       1 ATP402      0.0000 
     14 C5'      -120.8760 -182.3890  308.7030 C.3       1 ATP402      0.0000 
     15 C4'      -120.5700 -181.5470  309.9330 C.3       1 ATP402      0.0000 
     16 O4'      -121.1300 -182.1500  311.1000 O.3       1 ATP402      0.0000 
     17 C3'      -119.0710 -181.4240  310.1630 C.3       1 ATP402      0.0000 
     18 O3'      -118.6830 -180.0590  309.9830 O.3       1 ATP402      0.0000 
     19 C2'      -118.8360 -181.9060  311.5880 C.3       1 ATP402      0.0000 
     20 O2'      -118.0110 -181.0130  312.3460 O.3       1 ATP402      0.0000 
     21 C1'      -120.2270 -181.9980  312.1940 C.3       1 ATP402      0.0000 
     22 N9       -120.3520 -183.1420  313.1280 N.pl3     1 ATP402      0.0000 
     23 C8       -120.2930 -184.4460  312.8090 C.2       1 ATP402      0.0000 
     24 N7       -120.4520 -185.2220  313.9110 N.2       1 ATP402      0.0000 
     25 C5       -120.6170 -184.4020  314.9630 C.ar      1 ATP402      0.0000 
     26 C6       -120.8370 -184.5580  316.4190 C.ar      1 ATP402      0.0000 
     27 N6       -120.9110 -185.7810  316.9920 N.pl3     1 ATP402      0.0000 
     28 N1       -120.9610 -183.4350  317.1590 N.ar      1 ATP402      0.0000 
     29 C2       -120.8880 -182.2100  316.6070 C.ar      1 ATP402      0.0000 
     30 N3       -120.6940 -181.9960  315.2960 N.ar      1 ATP402      0.0000 
     31 C4       -120.5520 -183.0330  314.4390 C.ar      1 ATP402      0.0000 
@<TRIPOS>BOND
     1    1    2 ar   
     2    1    3 ar   
     3    1    4 ar   
     4    1    8 1    
     5    5    6 ar   
     6    5    7 ar   
     7    5    8 1    
     8    5   12 1    
     9    9   10 ar   
    10    9   11 ar   
    11    9   12 1    
    12    9   13 1    
    13   13   14 1    
    14   14   15 1    
    15   15   16 1    
    16   15   17 1    
    17   16   21 1    
    18   17   18 1    
    19   17   19 1    
    20   19   20 1    
    21   19   21 1    
    22   21   22 1    
    23   22   23 1    
    24   22   31 1    
    25   23   24 2    
    26   24   25 1    
    27   25   26 ar   
    28   25   31 ar   
    29   26   27 1    
    30   26   28 ar   
    31   28   29 ar   
    32   29   30 ar   
    33   30   31 ar   
@<TRIPOS>SUBSTRUCTURE
     1 ATP402      1 GROUP   
@<TRIPOS>SET
ATOM$ORANGE STATIC     ATOMS   COLORGROUP SYSTEM 
20 14 14 15 15 17 17 19 19 21 21 23 23 25 25 26 26 29 \
29 31 31 

