#    Name: 6ds1_3_NAP
#    Modification time : Fri May 22 19:34:11 2020

@<TRIPOS>MOLECULE
6ds1_3_NAP
   48    52     1     0     1
SMALL
NO_CHARGES


@<TRIPOS>ATOM
      1 PA        -14.1540  -61.6720   13.6480 P.3       1 NAP301      0.0000 
      2 O1A       -14.7230  -60.3910   13.0650 O.co2     1 NAP301      0.0000 
      3 O2A       -15.0070  -62.5460   14.5430 O.co2     1 NAP301      0.0000 
      4 O5B       -13.6100  -62.6020   12.4630 O.3       1 NAP301      0.0000 
      5 C5B       -13.1040  -63.8900   12.8060 C.3       1 NAP301      0.0000 
      6 C4B       -13.2470  -64.8260   11.6160 C.3       1 NAP301      0.0000 
      7 O4B       -12.5300  -66.0250   11.8950 O.3       1 NAP301      0.0000 
      8 C3B       -14.7050  -65.2270   11.4900 C.3       1 NAP301      0.0000 
      9 O3B       -14.9630  -65.4380   10.1020 O.3       1 NAP301      0.0000 
     10 C2B       -14.7810  -66.5430   12.2400 C.3       1 NAP301      0.0000 
     11 O2B       -15.8080  -67.3900   11.7510 O.3       1 NAP301      0.0000 
     12 C1B       -13.4320  -67.1270   11.8820 C.3       1 NAP301      0.0000 
     13 N9A       -13.0280  -68.1750   12.8350 N.pl3     1 NAP301      0.0000 
     14 C8A       -12.7600  -68.0050   14.1410 C.2       1 NAP301      0.0000 
     15 N7A       -12.4310  -69.1910   14.7160 N.2       1 NAP301      0.0000 
     16 C5A       -12.4840  -70.1340   13.7570 C.ar      1 NAP301      0.0000 
     17 C6A       -12.2470  -71.5920   13.6930 C.ar      1 NAP301      0.0000 
     18 N6A       -11.8730  -72.2790   14.8070 N.pl3     1 NAP301      0.0000 
     19 N1A       -12.4140  -72.1950   12.4900 N.ar      1 NAP301      0.0000 
     20 C2A       -12.7820  -71.5060   11.3860 C.ar      1 NAP301      0.0000 
     21 N3A       -13.0230  -70.1790   11.3750 N.ar      1 NAP301      0.0000 
     22 C4A       -12.8910  -69.4590   12.5180 C.ar      1 NAP301      0.0000 
     23 O3        -12.8080  -61.3840   14.4730 O.3       1 NAP301      0.0000 
     24 PN        -11.5600  -60.4020   14.1490 P.3       1 NAP301      0.0000 
     25 O1N       -11.5710  -59.2650   15.1510 O.co2     1 NAP301      0.0000 
     26 O2N       -11.3590  -60.1300   12.6770 O.co2     1 NAP301      0.0000 
     27 O5D       -10.4230  -61.4440   14.6270 O.3       1 NAP301      0.0000 
     28 C5D        -9.3900  -61.8520   13.7310 C.3       1 NAP301      0.0000 
     29 C4D        -8.0800  -61.9690   14.5000 C.3       1 NAP301      0.0000 
     30 O4D        -7.7080  -60.6800   14.9810 O.3       1 NAP301      0.0000 
     31 C3D        -8.1860  -62.8890   15.7090 C.3       1 NAP301      0.0000 
     32 O3D        -7.0730  -63.8020   15.6760 O.3       1 NAP301      0.0000 
     33 C2D        -8.0560  -61.9790   16.9170 C.3       1 NAP301      0.0000 
     34 O2D        -7.2890  -62.6140   17.9500 O.3       1 NAP301      0.0000 
     35 C1D        -7.3270  -60.7660   16.3550 C.3       1 NAP301      0.0000 
     36 N1N        -7.5840  -59.4940   17.0630 N.pl3     1 NAP301      0.0000 
     37 C2N        -8.6940  -58.7520   16.8200 C.ar      1 NAP301      0.0000 
     38 C3N        -8.9020  -57.5370   17.4890 C.ar      1 NAP301      0.0000 
     39 C7N       -10.1300  -56.6830   17.2500 C.2       1 NAP301      0.0000 
     40 O7N       -10.3020  -55.6890   17.9370 O.2       1 NAP301      0.0000 
     41 N7N       -10.9970  -57.0010   16.2870 N.am      1 NAP301      0.0000 
     42 C4N        -7.9430  -57.0990   18.4020 C.ar      1 NAP301      0.0000 
     43 C5N        -6.8070  -57.8730   18.6270 C.ar      1 NAP301      0.0000 
     44 C6N        -6.6450  -59.0700   17.9290 C.ar      1 NAP301      0.0000 
     45 P2B       -17.3230  -67.3160   12.3440 P.3       1 NAP301      0.0000 
     46 O1X       -17.4710  -65.9300   12.9190 O.co2     1 NAP301      0.0000 
     47 O2X       -18.1170  -67.5840   11.0850 O.co2     1 NAP301      0.0000 
     48 O3X       -17.4140  -68.3930   13.3970 O.co2     1 NAP301      0.0000 
@<TRIPOS>BOND
     1    1    2 ar   
     2    1    3 ar   
     3    1    4 1    
     4    1   23 1    
     5    4    5 1    
     6    5    6 1    
     7    6    7 1    
     8    6    8 1    
     9    7   12 1    
    10    8    9 1    
    11    8   10 1    
    12   10   11 1    
    13   10   12 1    
    14   11   45 1    
    15   12   13 1    
    16   13   14 1    
    17   13   22 1    
    18   14   15 2    
    19   15   16 1    
    20   16   17 ar   
    21   16   22 ar   
    22   17   18 1    
    23   17   19 ar   
    24   19   20 ar   
    25   20   21 ar   
    26   21   22 ar   
    27   23   24 1    
    28   24   25 ar   
    29   24   26 ar   
    30   24   27 1    
    31   27   28 1    
    32   28   29 1    
    33   29   30 1    
    34   29   31 1    
    35   30   35 1    
    36   31   32 1    
    37   31   33 1    
    38   33   34 1    
    39   33   35 1    
    40   35   36 1    
    41   36   37 ar   
    42   36   44 ar   
    43   37   38 ar   
    44   38   39 1    
    45   38   42 ar   
    46   39   40 2    
    47   39   41 am   
    48   42   43 ar   
    49   43   44 ar   
    50   45   46 ar   
    51   45   47 ar   
    52   45   48 ar   
@<TRIPOS>SUBSTRUCTURE
     1 NAP301      1 GROUP   
@<TRIPOS>SET
ATOM$ORANGE STATIC     ATOMS   COLORGROUP SYSTEM 
42 5 5 6 6 8 8 10 10 12 12 14 14 16 16 17 17 20 \
20 22 22 28 28 29 29 31 31 33 33 35 35 37 37 38 38 39 \
39 42 42 43 43 44 44 

