#    Name: 6ds1_4_NAP_CAVITY_N1_8
#    Modification time : Fri May 22 19:34:17 2020

@<TRIPOS>MOLECULE
6ds1_4_NAP_CAVITY_N1_8
   70     0     6     0     0
SMALL
NO_CHARGES


@<TRIPOS>ATOM
      1 OG         23.2200  -48.4800   12.1800 O.3       1 SER1        0.0000 
      2 OG         24.5500  -48.9400   11.6800 O.3       1 SER1        0.0000 
      3 OG         21.8900  -46.9000   11.6700 O.3       1 SER1        0.0000 
      4 OG         23.2200  -47.3700   11.1600 O.3       1 SER1        0.0000 
      5 OG         24.5600  -47.8400   10.6600 O.3       1 SER1        0.0000 
      6 OG         21.8900  -45.8000   10.6500 O.3       1 SER1        0.0000 
      7 OG         23.2300  -46.2700   10.1500 O.3       1 SER1        0.0000 
      8 OG         22.5800  -44.9000   11.6400 O.3       1 SER1        0.0000 
      9 OG         23.9100  -45.3700   11.1400 O.3       1 SER1        0.0000 
     10 OG         25.2500  -45.8300   10.6300 O.3       1 SER1        0.0000 
     11 OG         22.5900  -43.7900   10.6200 O.3       1 SER1        0.0000 
     12 OG         23.9200  -44.2600   10.1200 O.3       1 SER1        0.0000 
     13 O          23.1800  -49.6400    8.6900 O.2       2 ALA2        0.0000 
     14 O          24.5200  -50.1100    8.1900 O.2       2 ALA2        0.0000 
     15 N          24.5200  -49.0000    7.1800 N.am      2 ALA2        0.0000 
     16 N          22.5300  -49.3800   11.1900 N.am      2 ALA2        0.0000 
     17 N          23.8700  -49.8400   10.6900 N.am      2 ALA2        0.0000 
     18 N          25.2000  -50.3100   10.1900 N.am      2 ALA2        0.0000 
     19 O          23.8900  -44.3200    5.6200 O.2       2 ALA2        0.0000 
     20 N          20.5600  -45.3300   11.1600 N.am      2 ALA2        0.0000 
     21 N          20.5700  -43.1200    9.1300 N.am      2 ALA2        0.0000 
     22 N          21.9100  -43.5900    8.6300 N.am      2 ALA2        0.0000 
     23 N          21.9100  -42.4800    7.6100 N.am      2 ALA2        0.0000 
     24 N          21.2500  -44.4300   12.1400 N.am      2 ALA2        0.0000 
     25 N          22.5900  -42.6900    9.6100 N.am      2 ALA2        0.0000 
     26 N          23.9300  -43.1600    9.1100 N.am      2 ALA2        0.0000 
     27 N          25.2600  -43.6200    8.6100 N.am      2 ALA2        0.0000 
     28 N          23.9300  -42.0500    8.0900 N.am      2 ALA2        0.0000 
     29 N          23.9400  -40.9400    7.0800 N.am      2 ALA2        0.0000 
     30 N          24.6100  -43.3600   11.1100 N.am      2 ALA2        0.0000 
     31 OD1        21.2500  -43.3300   11.1300 O.co2     3 ASP3        0.0000 
     32 OD1        23.2700  -42.8900   11.6100 O.co2     3 ASP3        0.0000 
     33 CZ         25.2000  -49.2100    9.1800 C.ar      4 PHE5        0.0000 
     34 CZ         26.5400  -49.6700    8.6700 C.ar      4 PHE5        0.0000 
     35 CZ         26.5400  -48.5700    7.6600 C.ar      4 PHE5        0.0000 
     36 CZ         27.2300  -47.6700    8.6400 C.ar      4 PHE5        0.0000 
     37 CZ         28.5600  -48.1400    8.1400 C.ar      4 PHE5        0.0000 
     38 CA         21.8500  -49.1700    9.2000 C.3       5 GLY6        0.0000 
     39 CA         23.1900  -48.5300    7.6800 C.3       5 GLY6        0.0000 
     40 CA         23.2000  -47.4300    6.6700 C.3       5 GLY6        0.0000 
     41 CA         24.5300  -47.8900    6.1600 C.3       5 GLY6        0.0000 
     42 CA         23.2000  -46.3200    5.6500 C.3       5 GLY6        0.0000 
     43 CA         21.2000  -47.8000   10.6800 C.3       5 GLY6        0.0000 
     44 CA         22.5400  -48.2700   10.1800 C.3       5 GLY6        0.0000 
     45 CA         21.2100  -46.7000    9.6700 C.3       5 GLY6        0.0000 
     46 CA         22.5400  -47.1700    9.1700 C.3       5 GLY6        0.0000 
     47 CA         23.8800  -47.6300    8.6600 C.3       5 GLY6        0.0000 
     48 CA         21.2100  -45.5900    8.6500 C.3       5 GLY6        0.0000 
     49 CA         22.5500  -46.0600    8.1500 C.3       5 GLY6        0.0000 
     50 CA         23.8800  -46.5300    7.6500 C.3       5 GLY6        0.0000 
     51 CA         21.2200  -44.4900    7.6400 C.3       5 GLY6        0.0000 
     52 CA         22.5500  -44.9500    7.1400 C.3       5 GLY6        0.0000 
     53 CA         23.8900  -45.4200    6.6400 C.3       5 GLY6        0.0000 
     54 CA         25.2300  -44.7800    5.1200 C.3       5 GLY6        0.0000 
     55 CA         20.5700  -44.2300   10.1400 C.3       5 GLY6        0.0000 
     56 CA         21.9000  -44.6900    9.6400 C.3       5 GLY6        0.0000 
     57 CA         23.2800  -41.7900   10.5900 C.3       5 GLY6        0.0000 
     58 DU         23.8700  -48.7400    9.6800 H         6 CUB7        0.0000 
     59 DU         25.2100  -48.1000    8.1600 H         6 CUB7        0.0000 
     60 DU         24.5600  -46.7300    9.6500 H         6 CUB7        0.0000 
     61 DU         25.9000  -47.2000    9.1500 H         6 CUB7        0.0000 
     62 DU         23.2300  -45.1600    9.1400 H         6 CUB7        0.0000 
     63 DU         24.5700  -45.6300    8.6300 H         6 CUB7        0.0000 
     64 DU         23.2400  -44.0500    8.1200 H         6 CUB7        0.0000 
     65 DU         24.5700  -44.5200    7.6200 H         6 CUB7        0.0000 
     66 DU         23.2400  -42.9500    7.1100 H         6 CUB7        0.0000 
     67 DU         24.5800  -43.4200    6.6100 H         6 CUB7        0.0000 
     68 DU         24.5800  -42.3100    5.5900 H         6 CUB7        0.0000 
     69 DU         26.5800  -46.3000   10.1300 H         6 CUB7        0.0000 
     70 DU         25.2500  -44.7300    9.6200 H         6 CUB7        0.0000 
@<TRIPOS>BOND
@<TRIPOS>SUBSTRUCTURE
     1 SER1        1 GROUP   
     2 ALA2       13 GROUP   
     3 ASP3       31 GROUP   
     4 PHE5       33 GROUP   
     5 GLY6       38 GROUP   
     6 CUB7       58 GROUP   
@<TRIPOS>SET

