#    Name: 6ds1_4_NAP
#    Modification time : Fri May 22 19:34:15 2020

@<TRIPOS>MOLECULE
6ds1_4_NAP
   48    52     1     0     1
SMALL
NO_CHARGES


@<TRIPOS>ATOM
      1 PA         25.9160  -42.7200    4.9870 P.3       1 NAP301      0.0000 
      2 O1A        25.8380  -43.6030    3.7560 O.co2     1 NAP301      0.0000 
      3 O2A        27.2270  -42.1460    5.4460 O.co2     1 NAP301      0.0000 
      4 O5B        24.8900  -41.5070    4.7950 O.3       1 NAP301      0.0000 
      5 C5B        24.7800  -40.5000    5.7940 C.3       1 NAP301      0.0000 
      6 C4B        24.4060  -39.1940    5.1170 C.3       1 NAP301      0.0000 
      7 O4B        24.1300  -38.2210    6.1210 O.3       1 NAP301      0.0000 
      8 C3B        25.5790  -38.6550    4.3130 C.3       1 NAP301      0.0000 
      9 O3B        25.0430  -37.9490    3.1870 O.3       1 NAP301      0.0000 
     10 C2B        26.2390  -37.6660    5.2420 C.3       1 NAP301      0.0000 
     11 O2B        26.8840  -36.6320    4.5230 O.3       1 NAP301      0.0000 
     12 C1B        25.0230  -37.1200    5.9550 C.3       1 NAP301      0.0000 
     13 N9A        25.3180  -36.5480    7.2860 N.pl3     1 NAP301      0.0000 
     14 C8A        25.7560  -37.2120    8.3750 C.2       1 NAP301      0.0000 
     15 N7A        25.8950  -36.3640    9.4350 N.2       1 NAP301      0.0000 
     16 C5A        25.5340  -35.1270    9.0190 C.ar      1 NAP301      0.0000 
     17 C6A        25.4420  -33.7770    9.6280 C.ar      1 NAP301      0.0000 
     18 N6A        25.7650  -33.5500   10.9420 N.pl3     1 NAP301      0.0000 
     19 N1A        25.0050  -32.7800    8.8240 N.ar      1 NAP301      0.0000 
     20 C2A        24.6610  -32.9790    7.5310 C.ar      1 NAP301      0.0000 
     21 N3A        24.7250  -34.1750    6.9080 N.ar      1 NAP301      0.0000 
     22 C4A        25.1490  -35.2630    7.5970 C.ar      1 NAP301      0.0000 
     23 O3         25.3310  -43.5180    6.2540 O.3       1 NAP301      0.0000 
     24 PN         23.9320  -44.3270    6.3850 P.3       1 NAP301      0.0000 
     25 O1N        24.3570  -45.7300    6.8000 O.co2     1 NAP301      0.0000 
     26 O2N        22.9900  -44.0760    5.2280 O.co2     1 NAP301      0.0000 
     27 O5D        23.3390  -43.6280    7.7260 O.3       1 NAP301      0.0000 
     28 C5D        22.0570  -42.9980    7.8030 C.3       1 NAP301      0.0000 
     29 C4D        21.4030  -43.4290    9.1080 C.3       1 NAP301      0.0000 
     30 O4D        21.3560  -44.8520    9.1410 O.3       1 NAP301      0.0000 
     31 C3D        22.1810  -42.9840   10.3460 C.3       1 NAP301      0.0000 
     32 O3D        21.3030  -42.2580   11.2290 O.3       1 NAP301      0.0000 
     33 C2D        22.6250  -44.2650   11.0200 C.3       1 NAP301      0.0000 
     34 O2D        22.5150  -44.1390   12.4470 O.3       1 NAP301      0.0000 
     35 C1D        21.6390  -45.2800   10.4650 C.3       1 NAP301      0.0000 
     36 N1N        22.1130  -46.6660   10.4810 N.pl3     1 NAP301      0.0000 
     37 C2N        22.8170  -47.1780    9.4600 C.ar      1 NAP301      0.0000 
     38 C3N        23.2510  -48.5040    9.5130 C.ar      1 NAP301      0.0000 
     39 C7N        24.0370  -49.1100    8.3880 C.2       1 NAP301      0.0000 
     40 O7N        24.4470  -50.2600    8.5140 O.2       1 NAP301      0.0000 
     41 N7N        24.2420  -48.3850    7.2880 N.am      1 NAP301      0.0000 
     42 C4N        22.9490  -49.3010   10.6140 C.ar      1 NAP301      0.0000 
     43 C5N        22.2050  -48.7510   11.6520 C.ar      1 NAP301      0.0000 
     44 C6N        21.8010  -47.4200   11.5540 C.ar      1 NAP301      0.0000 
     45 P2B        28.4290  -36.7350    4.0770 P.3       1 NAP301      0.0000 
     46 O1X        28.7440  -38.2060    3.9090 O.co2     1 NAP301      0.0000 
     47 O2X        28.4360  -36.0120    2.7550 O.co2     1 NAP301      0.0000 
     48 O3X        29.1980  -36.0410    5.1680 O.co2     1 NAP301      0.0000 
@<TRIPOS>BOND
     1    1    2 ar   
     2    1    3 ar   
     3    1    4 1    
     4    1   23 1    
     5    4    5 1    
     6    5    6 1    
     7    6    7 1    
     8    6    8 1    
     9    7   12 1    
    10    8    9 1    
    11    8   10 1    
    12   10   11 1    
    13   10   12 1    
    14   11   45 1    
    15   12   13 1    
    16   13   14 1    
    17   13   22 1    
    18   14   15 2    
    19   15   16 1    
    20   16   17 ar   
    21   16   22 ar   
    22   17   18 1    
    23   17   19 ar   
    24   19   20 ar   
    25   20   21 ar   
    26   21   22 ar   
    27   23   24 1    
    28   24   25 ar   
    29   24   26 ar   
    30   24   27 1    
    31   27   28 1    
    32   28   29 1    
    33   29   30 1    
    34   29   31 1    
    35   30   35 1    
    36   31   32 1    
    37   31   33 1    
    38   33   34 1    
    39   33   35 1    
    40   35   36 1    
    41   36   37 ar   
    42   36   44 ar   
    43   37   38 ar   
    44   38   39 1    
    45   38   42 ar   
    46   39   40 2    
    47   39   41 am   
    48   42   43 ar   
    49   43   44 ar   
    50   45   46 ar   
    51   45   47 ar   
    52   45   48 ar   
@<TRIPOS>SUBSTRUCTURE
     1 NAP301      1 GROUP   
@<TRIPOS>SET
ATOM$ORANGE STATIC     ATOMS   COLORGROUP SYSTEM 
42 5 5 6 6 8 8 10 10 12 12 14 14 16 16 17 17 20 \
20 22 22 28 28 29 29 31 31 33 33 35 35 37 37 38 38 39 \
39 42 42 43 43 44 44 

