#    Name: 6cjs_1_2GJ
#    Modification time : Fri May 22 19:25:24 2020

@<TRIPOS>MOLECULE
6cjs_1_2GJ
   65    68     1     0     0
SMALL
NO_CHARGES


@<TRIPOS>ATOM
      1 C25        14.6780  -30.3060  -24.0350 C.3       1 2GJ301      0.0000 
      2 C26        14.5530  -31.8230  -23.9080 C.3       1 2GJ301      0.0000 
      3 O27        13.7530  -32.4600  -24.8930 O.3       1 2GJ301      0.0000 
      4 C28        13.9330  -31.9910  -26.2220 C.3       1 2GJ301      0.0000 
      5 C29        14.9100  -30.8080  -26.3680 C.3       1 2GJ301      0.0000 
      6 N24        14.6640  -29.7990  -25.3690 N.4       1 2GJ301      0.0000 
      7 C23        15.6620  -28.7360  -25.5080 C.3       1 2GJ301      0.0000 
      8 C20        15.5450  -27.6720  -24.3830 C.ar      1 2GJ301      0.0000 
      9 C21        16.5980  -27.4640  -23.5070 C.ar      1 2GJ301      0.0000 
     10 C22        16.4990  -26.5130  -22.4920 C.ar      1 2GJ301      0.0000 
     11 C19        14.3940  -26.9140  -24.2450 C.ar      1 2GJ301      0.0000 
     12 C18        14.2850  -25.9590  -23.2500 C.ar      1 2GJ301      0.0000 
     13 C7         15.3390  -25.7660  -22.3510 C.ar      1 2GJ301      0.0000 
     14 C3         15.2660  -24.8140  -21.3180 C.2       1 2GJ301      0.0000 
     15 C2         15.0530  -23.4660  -21.4800 C.2       1 2GJ301      0.0000 
     16 C8         14.8030  -22.7630  -22.8110 C.2       1 2GJ301      0.0000 
     17 O9         15.3050  -23.1300  -23.8260 O.2       1 2GJ301      0.0000 
     18 N10        13.9120  -21.6320  -22.8420 N.am      1 2GJ301      0.0000 
     19 C11        13.6770  -20.9790  -24.1100 C.3       1 2GJ301      0.0000 
     20 C12        12.3730  -20.1830  -24.0330 C.3       1 2GJ301      0.0000 
     21 N1         15.1240  -22.8700  -20.2560 N.2       1 2GJ301      0.0000 
     22 O5         15.3750  -23.8750  -19.2810 O.3       1 2GJ301      0.0000 
     23 C4         15.4570  -25.0420  -19.9460 C.2       1 2GJ301      0.0000 
     24 C6         15.6970  -26.2850  -19.3680 C.ar      1 2GJ301      0.0000 
     25 C13        14.8010  -27.3360  -19.5820 C.ar      1 2GJ301      0.0000 
     26 C14        15.0490  -28.5630  -18.9910 C.ar      1 2GJ301      0.0000 
     27 C30        14.1030  -29.7420  -19.1790 C.3       1 2GJ301      0.0000 
     28 C32        12.6650  -29.3230  -18.7540 C.3       1 2GJ301      0.0000 
     29 C31        14.0280  -30.1990  -20.6270 C.3       1 2GJ301      0.0000 
     30 C15        16.1880  -28.7180  -18.2140 C.ar      1 2GJ301      0.0000 
     31 O34        16.4710  -29.9480  -17.6740 O.3       1 2GJ301      0.0000 
     32 C16        17.0720  -27.6840  -17.9960 C.ar      1 2GJ301      0.0000 
     33 C17        16.8200  -26.4510  -18.5670 C.ar      1 2GJ301      0.0000 
     34 O33        17.6820  -25.3560  -18.3810 O.3       1 2GJ301      0.0000 
     35 H251       15.5140  -30.0390  -23.6210 H         1 2GJ301      0.0000 
     36 H252       13.9390  -29.9030  -23.5530 H         1 2GJ301      0.0000 
     37 H261       15.4450  -32.2020  -23.9570 H         1 2GJ301      0.0000 
     38 H262       14.1690  -32.0190  -23.0390 H         1 2GJ301      0.0000 
     39 H281       14.2660  -32.7260  -26.7590 H         1 2GJ301      0.0000 
     40 H282       13.0680  -31.7120  -26.5630 H         1 2GJ301      0.0000 
     41 H291       15.8180  -31.1340  -26.2720 H         1 2GJ301      0.0000 
     42 H292       14.8030  -30.4140  -27.2480 H         1 2GJ301      0.0000 
     43 H231       16.5470  -29.1310  -25.4720 H         1 2GJ301      0.0000 
     44 H232       15.5370  -28.2990  -26.3650 H         1 2GJ301      0.0000 
     45 H21        17.3780  -27.9630  -23.5960 H         1 2GJ301      0.0000 
     46 H19        13.6840  -27.0490  -24.8300 H         1 2GJ301      0.0000 
     47 H22        17.2110  -26.3800  -21.9090 H         1 2GJ301      0.0000 
     48 H18        13.5130  -25.4460  -23.1790 H         1 2GJ301      0.0000 
     49 H10        13.5300  -21.3520  -22.1240 H         1 2GJ301      0.0000 
     50 H111       14.4120  -20.3780  -24.3070 H         1 2GJ301      0.0000 
     51 H112       13.6090  -21.6460  -24.8110 H         1 2GJ301      0.0000 
     52 H121       12.3940  -19.4640  -24.6830 H         1 2GJ301      0.0000 
     53 H122       11.6240  -20.7700  -24.2250 H         1 2GJ301      0.0000 
     54 H123       12.2720  -19.8120  -23.1430 H         1 2GJ301      0.0000 
     55 H13        14.0480  -27.2130  -20.1140 H         1 2GJ301      0.0000 
     56 H30        14.4470  -30.4680  -18.6360 H         1 2GJ301      0.0000 
     57 H321       12.2820  -28.7460  -19.4330 H         1 2GJ301      0.0000 
     58 H322       12.1140  -30.1150  -18.6530 H         1 2GJ301      0.0000 
     59 H323       12.7040  -28.8470  -17.9090 H         1 2GJ301      0.0000 
     60 H311       14.9240  -30.3570  -20.9630 H         1 2GJ301      0.0000 
     61 H312       13.5130  -31.0190  -20.6810 H         1 2GJ301      0.0000 
     62 H313       13.5990  -29.5110  -21.1610 H         1 2GJ301      0.0000 
     63 H34        16.9560  -29.8490  -16.9820 H         1 2GJ301      0.0000 
     64 H16        17.8280  -27.8140  -17.4720 H         1 2GJ301      0.0000 
     65 H33        18.3940  -25.6180  -17.9980 H         1 2GJ301      0.0000 
@<TRIPOS>BOND
     1    1    2 1    
     2    1    6 1    
     3    1   35 1    
     4    1   36 1    
     5    2    3 1    
     6    2   37 1    
     7    2   38 1    
     8    3    4 1    
     9    4    5 1    
    10    4   39 1    
    11    4   40 1    
    12    5    6 1    
    13    5   41 1    
    14    5   42 1    
    15    6    7 1    
    16    7    8 1    
    17    7   43 1    
    18    7   44 1    
    19    8    9 ar   
    20    8   11 ar   
    21    9   10 ar   
    22    9   45 1    
    23   10   13 ar   
    24   10   47 1    
    25   11   12 ar   
    26   11   46 1    
    27   12   13 ar   
    28   12   48 1    
    29   13   14 1    
    30   14   15 1    
    31   14   23 2    
    32   15   16 1    
    33   15   21 2    
    34   16   17 2    
    35   16   18 am   
    36   18   19 1    
    37   18   49 1    
    38   19   20 1    
    39   19   50 1    
    40   19   51 1    
    41   20   52 1    
    42   20   53 1    
    43   20   54 1    
    44   21   22 1    
    45   22   23 1    
    46   23   24 1    
    47   24   25 ar   
    48   24   33 ar   
    49   25   26 ar   
    50   25   55 1    
    51   26   27 1    
    52   26   30 ar   
    53   27   28 1    
    54   27   29 1    
    55   27   56 1    
    56   28   57 1    
    57   28   58 1    
    58   28   59 1    
    59   29   60 1    
    60   29   61 1    
    61   29   62 1    
    62   30   31 1    
    63   30   32 ar   
    64   31   63 1    
    65   32   33 ar   
    66   32   64 1    
    67   33   34 1    
    68   34   65 1    
@<TRIPOS>SUBSTRUCTURE
     1 2GJ301      1 GROUP   
@<TRIPOS>SET

