#    Name: 6e67_1_P0G
#    Modification time : Fri May 22 19:26:00 2020

@<TRIPOS>MOLECULE
6e67_1_P0G
   27    29     1     0     0
SMALL
NO_CHARGES


@<TRIPOS>ATOM
      1 CAA       -65.3400  416.8410   24.0970 C.3       1 P0G3101     0.0000 
      2 CAB       -67.4530  419.6380   24.0840 C.3       1 P0G3101     0.0000 
      3 CAC       -67.9240  418.9070   21.7450 C.3       1 P0G3101     0.0000 
      4 OAD       -74.8440  420.8760   21.1060 O.2       1 P0G3101     0.0000 
      5 OAE       -73.7720  425.0430   22.9460 O.3       1 P0G3101     0.0000 
      6 OAF       -67.7920  423.7600   21.4020 O.3       1 P0G3101     0.0000 
      7 CAG       -64.8060  415.5900   20.5850 C.ar      1 P0G3101     0.0000 
      8 CAH       -64.8960  416.7570   19.8360 C.ar      1 P0G3101     0.0000 
      9 CAI       -64.9490  415.6270   21.9660 C.ar      1 P0G3101     0.0000 
     10 CAJ       -65.1220  417.9640   20.4710 C.ar      1 P0G3101     0.0000 
     11 CAK       -71.4030  425.2420   22.6800 C.ar      1 P0G3101     0.0000 
     12 CAL       -70.1810  424.6670   22.3440 C.ar      1 P0G3101     0.0000 
     13 CAM       -72.4830  420.8260   20.7710 C.3       1 P0G3101     0.0000 
     14 CAN       -68.3270  421.8360   22.7030 C.3       1 P0G3101     0.0000 
     15 CAO       -65.5300  419.3470   22.5110 C.3       1 P0G3101     0.0000 
     16 NAP       -67.1440  421.1290   22.2600 N.4       1 P0G3101     0.0000 
     17 NAQ       -73.6490  422.4350   22.1690 N.am      1 P0G3101     0.0000 
     18 OAR       -71.3390  421.2790   21.5020 O.3       1 P0G3101     0.0000 
     19 CAS       -73.7630  421.3820   21.3640 C.2       1 P0G3101     0.0000 
     20 CAT       -65.1860  416.8380   22.6000 C.ar      1 P0G3101     0.0000 
     21 CAU       -72.5710  424.4900   22.6190 C.ar      1 P0G3101     0.0000 
     22 CAV       -65.2850  418.0070   21.8530 C.ar      1 P0G3101     0.0000 
     23 CAW       -70.1160  423.3360   21.9470 C.ar      1 P0G3101     0.0000 
     24 CAX       -72.5140  423.1700   22.2170 C.ar      1 P0G3101     0.0000 
     25 CAY       -71.2990  422.5940   21.8820 C.ar      1 P0G3101     0.0000 
     26 CAZ       -68.7980  422.7500   21.5850 C.3       1 P0G3101     0.0000 
     27 CBA       -67.0030  419.7380   22.6310 C.3       1 P0G3101     0.0000 
@<TRIPOS>BOND
     1    1   20 1    
     2    2   27 1    
     3    3   27 1    
     4    4   19 2    
     5    5   21 1    
     6    6   26 1    
     7    7    8 ar   
     8    7    9 ar   
     9    8   10 ar   
    10    9   20 ar   
    11   10   22 ar   
    12   11   12 ar   
    13   11   21 ar   
    14   12   23 ar   
    15   13   18 1    
    16   13   19 1    
    17   14   16 1    
    18   14   26 1    
    19   15   22 1    
    20   15   27 1    
    21   16   27 1    
    22   17   19 am   
    23   17   24 1    
    24   18   25 1    
    25   20   22 ar   
    26   21   24 ar   
    27   23   25 ar   
    28   23   26 1    
    29   24   25 ar   
@<TRIPOS>SUBSTRUCTURE
     1 P0G3101     1 GROUP   
@<TRIPOS>SET

