#    Name: 6d6q_1_ANP
#    Modification time : Fri May 22 19:23:26 2020

@<TRIPOS>MOLECULE
6d6q_1_ANP
   27    29     1     0     1
SMALL
NO_CHARGES


@<TRIPOS>ATOM
      1 PB        188.4320  146.6800  245.6270 P.3       1 ANP2001     0.0000 
      2 O1B       187.2170  146.1410  244.8160 O.co2     1 ANP2001     0.0000 
      3 O2B       189.0390  147.8360  244.9020 O.co2     1 ANP2001     0.0000 
      4 N3B       187.9240  147.1750  247.1460 N.3       1 ANP2001     0.0000 
      5 PA        190.8130  145.8510  246.6130 P.3       1 ANP2001     0.0000 
      6 O1A       191.5670  146.9860  246.0320 O.co2     1 ANP2001     0.0000 
      7 O2A       190.3700  146.0820  248.0610 O.co2     1 ANP2001     0.0000 
      8 O3A       189.4960  145.5530  245.7830 O.3       1 ANP2001     0.0000 
      9 O5'       191.7020  144.5450  246.4830 O.3       1 ANP2001     0.0000 
     10 C5'       193.0260  144.5850  245.9050 C.3       1 ANP2001     0.0000 
     11 C4'       193.4250  143.1820  245.5200 C.3       1 ANP2001     0.0000 
     12 O4'       192.2670  142.3330  245.5130 O.3       1 ANP2001     0.0000 
     13 C3'       194.0140  143.0200  244.1250 C.3       1 ANP2001     0.0000 
     14 O3'       195.4090  143.3070  244.1150 O.3       1 ANP2001     0.0000 
     15 C2'       193.7230  141.5480  243.7980 C.3       1 ANP2001     0.0000 
     16 O2'       194.8410  140.7140  244.0840 O.3       1 ANP2001     0.0000 
     17 C1'       192.5380  141.2000  244.7140 C.3       1 ANP2001     0.0000 
     18 N9        191.3220  140.8410  243.9980 N.pl3     1 ANP2001     0.0000 
     19 C8        190.3110  141.6800  243.6090 C.2       1 ANP2001     0.0000 
     20 N7        189.3270  141.0820  242.9810 N.2       1 ANP2001     0.0000 
     21 C5        189.7180  139.7500  242.9590 C.ar      1 ANP2001     0.0000 
     22 C6        189.1050  138.5940  242.4360 C.ar      1 ANP2001     0.0000 
     23 N6        187.9280  138.5950  241.8060 N.pl3     1 ANP2001     0.0000 
     24 N1        189.7610  137.4200  242.5780 N.ar      1 ANP2001     0.0000 
     25 C2        190.9420  137.4160  243.2040 C.ar      1 ANP2001     0.0000 
     26 N3        191.6130  138.4410  243.7380 N.ar      1 ANP2001     0.0000 
     27 C4        190.9400  139.5890  243.5810 C.ar      1 ANP2001     0.0000 
@<TRIPOS>BOND
     1    1    2 ar   
     2    1    3 ar   
     3    1    4 1    
     4    1    8 1    
     5    5    6 ar   
     6    5    7 ar   
     7    5    8 1    
     8    5    9 1    
     9    9   10 1    
    10   10   11 1    
    11   11   12 1    
    12   11   13 1    
    13   12   17 1    
    14   13   14 1    
    15   13   15 1    
    16   15   16 1    
    17   15   17 1    
    18   17   18 1    
    19   18   19 1    
    20   18   27 1    
    21   19   20 2    
    22   20   21 1    
    23   21   22 ar   
    24   21   27 ar   
    25   22   23 1    
    26   22   24 ar   
    27   24   25 ar   
    28   25   26 ar   
    29   26   27 ar   
@<TRIPOS>SUBSTRUCTURE
     1 ANP2001     1 GROUP   
@<TRIPOS>SET
ATOM$ORANGE STATIC     ATOMS   COLORGROUP SYSTEM 
20 10 10 11 11 13 13 15 15 17 17 19 19 21 21 22 22 25 \
25 27 27 

