#    Name: 6i7l_1_ANP
#    Modification time : Fri May 22 19:30:36 2020

@<TRIPOS>MOLECULE
6i7l_1_ANP
   31    33     1     0     1
SMALL
NO_CHARGES


@<TRIPOS>ATOM
      1 PG        -44.1030  -46.2850  -12.3620 P.3       1 ANP501      0.0000 
      2 O1G       -42.7730  -46.8320  -12.8180 O.co2     1 ANP501      0.0000 
      3 O2G       -43.8550  -45.0770  -11.4980 O.co2     1 ANP501      0.0000 
      4 O3G       -44.6920  -47.3430  -11.4720 O.co2     1 ANP501      0.0000 
      5 PB        -46.6100  -45.3380  -13.6460 P.3       1 ANP501      0.0000 
      6 O1B       -46.7490  -44.2710  -14.6960 O.co2     1 ANP501      0.0000 
      7 O2B       -47.1660  -45.0790  -12.2730 O.co2     1 ANP501      0.0000 
      8 N3B       -45.0720  -45.9220  -13.6360 N.3       1 ANP501      0.0000 
      9 PA        -47.8510  -47.0220  -15.7060 P.3       1 ANP501      0.0000 
     10 O1A       -47.0170  -46.2050  -16.6340 O.co2     1 ANP501      0.0000 
     11 O2A       -49.3370  -46.9950  -15.8490 O.co2     1 ANP501      0.0000 
     12 O3A       -47.4760  -46.5690  -14.2100 O.3       1 ANP501      0.0000 
     13 O5'       -47.3490  -48.5480  -15.7380 O.3       1 ANP501      0.0000 
     14 C5'       -45.9710  -48.8860  -15.4140 C.3       1 ANP501      0.0000 
     15 C4'       -45.9510  -49.7740  -14.1920 C.3       1 ANP501      0.0000 
     16 O4'       -46.5350  -51.0630  -14.5120 O.3       1 ANP501      0.0000 
     17 C3'       -44.5760  -50.1470  -13.6270 C.3       1 ANP501      0.0000 
     18 O3'       -43.9870  -49.1260  -12.8330 O.3       1 ANP501      0.0000 
     19 C2'       -44.9440  -51.3690  -12.7820 C.3       1 ANP501      0.0000 
     20 O2'       -45.4980  -51.0300  -11.5290 O.3       1 ANP501      0.0000 
     21 C1'       -45.9770  -52.0560  -13.6750 C.3       1 ANP501      0.0000 
     22 N9        -45.3860  -53.1190  -14.4980 N.pl3     1 ANP501      0.0000 
     23 C8        -44.1910  -53.0900  -15.1930 C.2       1 ANP501      0.0000 
     24 N7        -43.9380  -54.2210  -15.8100 N.2       1 ANP501      0.0000 
     25 C5        -45.0140  -55.0420  -15.4910 C.ar      1 ANP501      0.0000 
     26 C6        -45.3300  -56.3710  -15.8330 C.ar      1 ANP501      0.0000 
     27 N6        -44.5580  -57.1420  -16.5940 N.pl3     1 ANP501      0.0000 
     28 N1        -46.4800  -56.8880  -15.3370 N.ar      1 ANP501      0.0000 
     29 C2        -47.2520  -56.1080  -14.5690 C.ar      1 ANP501      0.0000 
     30 N3        -47.0570  -54.8490  -14.1800 N.ar      1 ANP501      0.0000 
     31 C4        -45.9070  -54.3710  -14.6830 C.ar      1 ANP501      0.0000 
@<TRIPOS>BOND
     1    1    2 ar   
     2    1    3 ar   
     3    1    4 ar   
     4    1    8 1    
     5    5    6 ar   
     6    5    7 ar   
     7    5    8 1    
     8    5   12 1    
     9    9   10 ar   
    10    9   11 ar   
    11    9   12 1    
    12    9   13 1    
    13   13   14 1    
    14   14   15 1    
    15   15   16 1    
    16   15   17 1    
    17   16   21 1    
    18   17   18 1    
    19   17   19 1    
    20   19   20 1    
    21   19   21 1    
    22   21   22 1    
    23   22   23 1    
    24   22   31 1    
    25   23   24 2    
    26   24   25 1    
    27   25   26 ar   
    28   25   31 ar   
    29   26   27 1    
    30   26   28 ar   
    31   28   29 ar   
    32   29   30 ar   
    33   30   31 ar   
@<TRIPOS>SUBSTRUCTURE
     1 ANP501      1 GROUP   
@<TRIPOS>SET
ATOM$ORANGE STATIC     ATOMS   COLORGROUP SYSTEM 
20 14 14 15 15 17 17 19 19 21 21 23 23 25 25 26 26 29 \
29 31 31 

