#    Name: 6i1r_2_C5P
#    Modification time : Fri May 22 19:43:34 2020

@<TRIPOS>MOLECULE
6i1r_2_C5P
   21    22     1     0     0
SMALL
NO_CHARGES


@<TRIPOS>ATOM
      1 O3P       -18.6010  -64.9130    9.6040 O.co2     1 C5P401      0.0000 
      2 P         -19.5930  -64.1120    8.7960 P.3       1 C5P401      0.0000 
      3 O1P       -21.0020  -64.6540    8.8260 O.co2     1 C5P401      0.0000 
      4 O2P       -19.4960  -62.6180    8.9920 O.co2     1 C5P401      0.0000 
      5 O5'       -19.1230  -64.3370    7.2720 O.3       1 C5P401      0.0000 
      6 C5'       -18.6570  -63.2400    6.4880 C.3       1 C5P401      0.0000 
      7 C4'       -19.5560  -63.0690    5.2710 C.3       1 C5P401      0.0000 
      8 O4'       -20.6060  -62.1460    5.5730 O.3       1 C5P401      0.0000 
      9 C3'       -18.7790  -62.5220    4.0820 C.3       1 C5P401      0.0000 
     10 O3'       -18.7710  -63.4880    3.0230 O.3       1 C5P401      0.0000 
     11 C2'       -19.4670  -61.2210    3.6890 C.3       1 C5P401      0.0000 
     12 O2'       -19.9660  -61.2410    2.3450 O.3       1 C5P401      0.0000 
     13 C1'       -20.6230  -61.0430    4.6620 C.3       1 C5P401      0.0000 
     14 N1        -20.4630  -59.7850    5.3950 N.am      1 C5P401      0.0000 
     15 C2        -20.6320  -58.5550    4.7270 C.2       1 C5P401      0.0000 
     16 N3        -20.4860  -57.3910    5.3960 N.2       1 C5P401      0.0000 
     17 C4        -20.1760  -57.3960    6.7110 C.2       1 C5P401      0.0000 
     18 C5        -20.0060  -58.6010    7.3820 C.2       1 C5P401      0.0000 
     19 C6        -20.1560  -59.8000    6.6960 C.2       1 C5P401      0.0000 
     20 O2        -20.9190  -58.5420    3.5100 O.2       1 C5P401      0.0000 
     21 N4        -20.0310  -56.2240    7.3760 N.pl3     1 C5P401      0.0000 
@<TRIPOS>BOND
     1    1    2 ar   
     2    2    3 ar   
     3    2    4 ar   
     4    2    5 1    
     5    5    6 1    
     6    6    7 1    
     7    7    8 1    
     8    7    9 1    
     9    8   13 1    
    10    9   10 1    
    11    9   11 1    
    12   11   12 1    
    13   11   13 1    
    14   13   14 1    
    15   14   15 am   
    16   14   19 1    
    17   15   16 1    
    18   15   20 2    
    19   16   17 2    
    20   17   18 1    
    21   17   21 1    
    22   18   19 2    
@<TRIPOS>SUBSTRUCTURE
     1 C5P401      1 GROUP   
@<TRIPOS>SET

