#    Name: 6i1r_1_C5P
#    Modification time : Fri May 22 19:43:31 2020

@<TRIPOS>MOLECULE
6i1r_1_C5P
   21    22     1     0     0
SMALL
NO_CHARGES


@<TRIPOS>ATOM
      1 O3P       -26.2000  -24.7660    9.1750 O.co2     1 C5P401      0.0000 
      2 P         -25.3610  -25.8360    8.5190 P.3       1 C5P401      0.0000 
      3 O1P       -23.8720  -25.6510    8.6880 O.co2     1 C5P401      0.0000 
      4 O2P       -25.8460  -27.2450    8.7620 O.co2     1 C5P401      0.0000 
      5 O5'       -25.6040  -25.6070    6.9430 O.3       1 C5P401      0.0000 
      6 C5'       -26.1920  -26.6320    6.1440 C.3       1 C5P401      0.0000 
      7 C4'       -25.3100  -26.8970    4.9300 C.3       1 C5P401      0.0000 
      8 O4'       -24.2770  -27.8240    5.2770 O.3       1 C5P401      0.0000 
      9 C3'       -26.1110  -27.4950    3.7840 C.3       1 C5P401      0.0000 
     10 O3'       -26.1110  -26.5930    2.6700 O.3       1 C5P401      0.0000 
     11 C2'       -25.4560  -28.8320    3.4620 C.3       1 C5P401      0.0000 
     12 O2'       -24.9760  -28.9040    2.1120 O.3       1 C5P401      0.0000 
     13 C1'       -24.2890  -28.9750    4.4280 C.3       1 C5P401      0.0000 
     14 N1        -24.4600  -30.1880    5.2320 N.am      1 C5P401      0.0000 
     15 C2        -24.3310  -31.4550    4.6270 C.2       1 C5P401      0.0000 
     16 N3        -24.4870  -32.5780    5.3620 N.2       1 C5P401      0.0000 
     17 C4        -24.7670  -32.4970    6.6800 C.2       1 C5P401      0.0000 
     18 C5        -24.8960  -31.2540    7.2890 C.2       1 C5P401      0.0000 
     19 C6        -24.7370  -30.0970    6.5370 C.2       1 C5P401      0.0000 
     20 O2        -24.0730  -31.5400    3.4070 O.2       1 C5P401      0.0000 
     21 N4        -24.9210  -33.6280    7.4100 N.pl3     1 C5P401      0.0000 
@<TRIPOS>BOND
     1    1    2 ar   
     2    2    3 ar   
     3    2    4 ar   
     4    2    5 1    
     5    5    6 1    
     6    6    7 1    
     7    7    8 1    
     8    7    9 1    
     9    8   13 1    
    10    9   10 1    
    11    9   11 1    
    12   11   12 1    
    13   11   13 1    
    14   13   14 1    
    15   14   15 am   
    16   14   19 1    
    17   15   16 1    
    18   15   20 2    
    19   16   17 2    
    20   17   18 1    
    21   17   21 1    
    22   18   19 2    
@<TRIPOS>SUBSTRUCTURE
     1 C5P401      1 GROUP   
@<TRIPOS>SET

