#    Name: 5mns_6_DEB
#    Modification time : Fri May 22 19:19:36 2020

@<TRIPOS>MOLECULE
5mns_6_DEB
   27    27     1     0     0
SMALL
NO_CHARGES


@<TRIPOS>ATOM
      1 C1         56.3930   28.1500   98.5280 C.2       1 DEB502      0.0000 
      2 C2         57.7270   27.5280   98.8540 C.3       1 DEB502      0.0000 
      3 C3         57.9100   26.1660   98.1260 C.3       1 DEB502      0.0000 
      4 C4         58.1480   25.0140   99.1120 C.3       1 DEB502      0.0000 
      5 C5         58.0000   23.6330   98.4500 C.3       1 DEB502      0.0000 
      6 C6         56.5570   23.1160   98.2960 C.3       1 DEB502      0.0000 
      7 C7         55.8020   22.7950   99.6090 C.3       1 DEB502      0.0000 
      8 C8         54.3170   22.3980   99.4200 C.3       1 DEB502      0.0000 
      9 C9         53.5050   23.4950   98.7660 C.2       1 DEB502      0.0000 
     10 C10        52.9970   24.6780   99.5470 C.3       1 DEB502      0.0000 
     11 C11        53.5040   25.9850   98.9160 C.3       1 DEB502      0.0000 
     12 C12        53.2580   27.2370   99.7710 C.3       1 DEB502      0.0000 
     13 C13        54.0240   28.4220   99.1850 C.3       1 DEB502      0.0000 
     14 C14        53.4170   29.7580   99.6170 C.3       1 DEB502      0.0000 
     15 C15        54.2450   30.9360   99.1580 C.3       1 DEB502      0.0000 
     16 O16        55.4020   28.3340   99.5840 O.3       1 DEB502      0.0000 
     17 O17        56.1420   28.5080   97.3890 O.2       1 DEB502      0.0000 
     18 C18        58.8280   28.5550   98.5650 C.3       1 DEB502      0.0000 
     19 O19        58.9780   26.1920   97.1530 O.3       1 DEB502      0.0000 
     20 C20        59.5220   25.1470   99.7620 C.3       1 DEB502      0.0000 
     21 O21        58.7620   22.6370   99.1490 O.3       1 DEB502      0.0000 
     22 C22        56.5950   21.8860   97.3810 C.3       1 DEB502      0.0000 
     23 C23        53.6710   21.9970  100.7450 C.3       1 DEB502      0.0000 
     24 O24        53.2690   23.4310   97.5680 O.2       1 DEB502      0.0000 
     25 C25        51.4750   24.6380   99.6330 C.3       1 DEB502      0.0000 
     26 O26        52.8900   26.1610   97.6260 O.3       1 DEB502      0.0000 
     27 C27        53.5970   27.0340  101.2530 C.3       1 DEB502      0.0000 
@<TRIPOS>BOND
     1    1    2 1    
     2    1   16 1    
     3    1   17 2    
     4    2    3 1    
     5    2   18 1    
     6    3    4 1    
     7    3   19 1    
     8    4    5 1    
     9    4   20 1    
    10    5    6 1    
    11    5   21 1    
    12    6    7 1    
    13    6   22 1    
    14    7    8 1    
    15    8    9 1    
    16    8   23 1    
    17    9   10 1    
    18    9   24 2    
    19   10   11 1    
    20   10   25 1    
    21   11   12 1    
    22   11   26 1    
    23   12   13 1    
    24   12   27 1    
    25   13   14 1    
    26   13   16 1    
    27   14   15 1    
@<TRIPOS>SUBSTRUCTURE
     1 DEB502      1 GROUP   
@<TRIPOS>SET

