#    Name: 5mns_2_DEB
#    Modification time : Fri May 22 19:19:20 2020

@<TRIPOS>MOLECULE
5mns_2_DEB
   27    27     1     0     0
SMALL
NO_CHARGES


@<TRIPOS>ATOM
      1 C1         38.5450    5.1950   69.7760 C.2       1 DEB502      0.0000 
      2 C2         39.4730    5.9560   70.6470 C.3       1 DEB502      0.0000 
      3 C3         39.5560    7.4210   70.2340 C.3       1 DEB502      0.0000 
      4 C4         40.9180    7.7760   69.6760 C.3       1 DEB502      0.0000 
      5 C5         40.8670    9.0760   68.9040 C.3       1 DEB502      0.0000 
      6 C6         40.4300    8.8740   67.4830 C.3       1 DEB502      0.0000 
      7 C7         41.4250    8.1190   66.6290 C.3       1 DEB502      0.0000 
      8 C8         40.9270    8.0470   65.1950 C.3       1 DEB502      0.0000 
      9 C9         39.7540    7.1530   65.1530 C.2       1 DEB502      0.0000 
     10 C10        39.8610    5.6900   65.3410 C.3       1 DEB502      0.0000 
     11 C11        39.0260    5.3310   66.5350 C.3       1 DEB502      0.0000 
     12 C12        38.9720    3.8540   66.7800 C.3       1 DEB502      0.0000 
     13 C13        38.2280    3.5590   68.0460 C.3       1 DEB502      0.0000 
     14 C14        38.0790    2.0620   68.1590 C.3       1 DEB502      0.0000 
     15 C15        37.1640    1.6650   69.2620 C.3       1 DEB502      0.0000 
     16 O16        39.0010    4.0360   69.0980 O.3       1 DEB502      0.0000 
     17 O17        37.4200    5.5370   69.6750 O.2       1 DEB502      0.0000 
     18 C18        38.9890    5.7380   72.0640 C.3       1 DEB502      0.0000 
     19 O19        39.2850    8.3040   71.3010 O.3       1 DEB502      0.0000 
     20 C20        41.9720    7.8180   70.7650 C.3       1 DEB502      0.0000 
     21 O21        42.1090    9.7100   68.8490 O.3       1 DEB502      0.0000 
     22 C22        40.1190   10.2240   66.8860 C.3       1 DEB502      0.0000 
     23 C23        41.9750    7.5110   64.2610 C.3       1 DEB502      0.0000 
     24 O24        38.6760    7.6160   64.9970 O.2       1 DEB502      0.0000 
     25 C25        39.3550    5.0180   64.0990 C.3       1 DEB502      0.0000 
     26 O26        37.7230    5.7650   66.2760 O.3       1 DEB502      0.0000 
     27 C27        40.3360    3.2280   66.8590 C.3       1 DEB502      0.0000 
@<TRIPOS>BOND
     1    1    2 1    
     2    1   16 1    
     3    1   17 2    
     4    2    3 1    
     5    2   18 1    
     6    3    4 1    
     7    3   19 1    
     8    4    5 1    
     9    4   20 1    
    10    5    6 1    
    11    5   21 1    
    12    6    7 1    
    13    6   22 1    
    14    7    8 1    
    15    8    9 1    
    16    8   23 1    
    17    9   10 1    
    18    9   24 2    
    19   10   11 1    
    20   10   25 1    
    21   11   12 1    
    22   11   26 1    
    23   12   13 1    
    24   12   27 1    
    25   13   14 1    
    26   13   16 1    
    27   14   15 1    
@<TRIPOS>SUBSTRUCTURE
     1 DEB502      1 GROUP   
@<TRIPOS>SET

