#    Name: 5mns_4_DEB
#    Modification time : Fri May 22 19:19:28 2020

@<TRIPOS>MOLECULE
5mns_4_DEB
   27    27     1     0     0
SMALL
NO_CHARGES


@<TRIPOS>ATOM
      1 C1        -35.2440    5.5880    9.5670 C.2       1 DEB502      0.0000 
      2 C2        -34.4110    6.3330   10.5800 C.3       1 DEB502      0.0000 
      3 C3        -34.2590    7.8250   10.1960 C.3       1 DEB502      0.0000 
      4 C4        -32.8680    8.1040    9.6010 C.3       1 DEB502      0.0000 
      5 C5        -32.8550    9.4500    8.8570 C.3       1 DEB502      0.0000 
      6 C6        -33.2600    9.3280    7.3730 C.3       1 DEB502      0.0000 
      7 C7        -32.1630    8.7640    6.4380 C.3       1 DEB502      0.0000 
      8 C8        -32.5920    8.6340    4.9650 C.3       1 DEB502      0.0000 
      9 C9        -33.8810    7.8570    4.8890 C.2       1 DEB502      0.0000 
     10 C10       -33.8340    6.3530    4.8820 C.3       1 DEB502      0.0000 
     11 C11       -34.6720    5.8560    6.0570 C.3       1 DEB502      0.0000 
     12 C12       -34.6970    4.3390    6.2590 C.3       1 DEB502      0.0000 
     13 C13       -35.4060    4.0770    7.5950 C.3       1 DEB502      0.0000 
     14 C14       -35.6910    2.6000    7.8280 C.3       1 DEB502      0.0000 
     15 C15       -36.6500    2.4500    8.9850 C.3       1 DEB502      0.0000 
     16 O16       -34.6350    4.5710    8.7050 O.3       1 DEB502      0.0000 
     17 O17       -36.4350    5.8350    9.4780 O.2       1 DEB502      0.0000 
     18 C18       -35.0280    6.1550   11.9720 C.3       1 DEB502      0.0000 
     19 O19       -34.5290    8.7260   11.2990 O.3       1 DEB502      0.0000 
     20 C20       -31.7730    8.0760   10.6740 C.3       1 DEB502      0.0000 
     21 O21       -31.5870   10.1110    8.9900 O.3       1 DEB502      0.0000 
     22 C22       -33.7710   10.6890    6.8920 C.3       1 DEB502      0.0000 
     23 C23       -31.5120    7.9840    4.0760 C.3       1 DEB502      0.0000 
     24 O24       -34.9550    8.4420    4.8880 O.2       1 DEB502      0.0000 
     25 C25       -34.2620    5.8090    3.5250 C.3       1 DEB502      0.0000 
     26 O26       -36.0080    6.3350    5.8950 O.3       1 DEB502      0.0000 
     27 C27       -33.3100    3.6980    6.1790 C.3       1 DEB502      0.0000 
@<TRIPOS>BOND
     1    1    2 1    
     2    1   16 1    
     3    1   17 2    
     4    2    3 1    
     5    2   18 1    
     6    3    4 1    
     7    3   19 1    
     8    4    5 1    
     9    4   20 1    
    10    5    6 1    
    11    5   21 1    
    12    6    7 1    
    13    6   22 1    
    14    7    8 1    
    15    8    9 1    
    16    8   23 1    
    17    9   10 1    
    18    9   24 2    
    19   10   11 1    
    20   10   25 1    
    21   11   12 1    
    22   11   26 1    
    23   12   13 1    
    24   12   27 1    
    25   13   14 1    
    26   13   16 1    
    27   14   15 1    
@<TRIPOS>SUBSTRUCTURE
     1 DEB502      1 GROUP   
@<TRIPOS>SET

