#    Name: 5mns_1_DEB
#    Modification time : Fri May 22 19:19:16 2020

@<TRIPOS>MOLECULE
5mns_1_DEB
   27    27     1     0     0
SMALL
NO_CHARGES


@<TRIPOS>ATOM
      1 C1        -72.0470  -32.7040   20.4730 C.2       1 DEB502      0.0000 
      2 C2        -72.6230  -33.1370   19.1380 C.3       1 DEB502      0.0000 
      3 C3        -71.5220  -33.2400   18.0650 C.3       1 DEB502      0.0000 
      4 C4        -71.5410  -32.0460   17.1020 C.3       1 DEB502      0.0000 
      5 C5        -70.2370  -32.0150   16.2950 C.3       1 DEB502      0.0000 
      6 C6        -69.1960  -31.1020   16.9320 C.3       1 DEB502      0.0000 
      7 C7        -69.4340  -29.5990   16.7430 C.3       1 DEB502      0.0000 
      8 C8        -68.4100  -28.7190   17.4750 C.3       1 DEB502      0.0000 
      9 C9        -68.2800  -29.1020   18.9300 C.2       1 DEB502      0.0000 
     10 C10       -69.2800  -28.6170   19.9640 C.3       1 DEB502      0.0000 
     11 C11       -69.8780  -29.8380   20.6780 C.3       1 DEB502      0.0000 
     12 C12       -70.9790  -29.5400   21.7040 C.3       1 DEB502      0.0000 
     13 C13       -71.6590  -30.8510   22.0930 C.3       1 DEB502      0.0000 
     14 C14       -72.6200  -30.6940   23.2700 C.3       1 DEB502      0.0000 
     15 C15       -72.9470  -32.0400   23.8600 C.3       1 DEB502      0.0000 
     16 O16       -72.3940  -31.3680   20.9720 O.3       1 DEB502      0.0000 
     17 O17       -71.3280  -33.4500   21.1230 O.2       1 DEB502      0.0000 
     18 C18       -73.4270  -34.4320   19.3160 C.3       1 DEB502      0.0000 
     19 O19       -71.5920  -34.4740   17.3330 O.3       1 DEB502      0.0000 
     20 C20       -72.7590  -32.0510   16.1790 C.3       1 DEB502      0.0000 
     21 O21       -70.4160  -31.6500   14.9240 O.3       1 DEB502      0.0000 
     22 C22       -67.8280  -31.4890   16.3800 C.3       1 DEB502      0.0000 
     23 C23       -68.7800  -27.2390   17.3780 C.3       1 DEB502      0.0000 
     24 O24       -67.3690  -29.8510   19.2650 O.2       1 DEB502      0.0000 
     25 C25       -68.6360  -27.6270   20.9170 C.3       1 DEB502      0.0000 
     26 O26       -68.8400  -30.6100   21.2880 O.3       1 DEB502      0.0000 
     27 C27       -72.0310  -28.5420   21.2000 C.3       1 DEB502      0.0000 
@<TRIPOS>BOND
     1    1    2 1    
     2    1   16 1    
     3    1   17 2    
     4    2    3 1    
     5    2   18 1    
     6    3    4 1    
     7    3   19 1    
     8    4    5 1    
     9    4   20 1    
    10    5    6 1    
    11    5   21 1    
    12    6    7 1    
    13    6   22 1    
    14    7    8 1    
    15    8    9 1    
    16    8   23 1    
    17    9   10 1    
    18    9   24 2    
    19   10   11 1    
    20   10   25 1    
    21   11   12 1    
    22   11   26 1    
    23   12   13 1    
    24   12   27 1    
    25   13   14 1    
    26   13   16 1    
    27   14   15 1    
@<TRIPOS>SUBSTRUCTURE
     1 DEB502      1 GROUP   
@<TRIPOS>SET

