#    Name: 5mns_5_DEB
#    Modification time : Fri May 22 19:19:32 2020

@<TRIPOS>MOLECULE
5mns_5_DEB
   27    27     1     0     0
SMALL
NO_CHARGES


@<TRIPOS>ATOM
      1 C1        -18.6190   22.7520   39.8100 C.2       1 DEB502      0.0000 
      2 C2        -17.1690   22.6180   40.0750 C.3       1 DEB502      0.0000 
      3 C3        -16.5380   21.8310   38.9500 C.3       1 DEB502      0.0000 
      4 C4        -16.2720   20.4100   39.3760 C.3       1 DEB502      0.0000 
      5 C5        -16.0350   19.5480   38.1530 C.3       1 DEB502      0.0000 
      6 C6        -17.2910   18.8940   37.6380 C.3       1 DEB502      0.0000 
      7 C7        -17.8290   17.9080   38.6440 C.3       1 DEB502      0.0000 
      8 C8        -19.0720   17.1880   38.1750 C.3       1 DEB502      0.0000 
      9 C9        -20.2020   18.1460   38.1990 C.2       1 DEB502      0.0000 
     10 C10       -20.8890   18.6040   39.4300 C.3       1 DEB502      0.0000 
     11 C11       -20.6740   20.0820   39.4310 C.3       1 DEB502      0.0000 
     12 C12       -21.2040   20.7960   40.6410 C.3       1 DEB502      0.0000 
     13 C13       -20.8650   22.2580   40.5370 C.3       1 DEB502      0.0000 
     14 C14       -21.6190   23.0160   41.5850 C.3       1 DEB502      0.0000 
     15 C15       -21.5870   24.4620   41.2410 C.3       1 DEB502      0.0000 
     16 O16       -19.5230   22.4530   40.8590 O.3       1 DEB502      0.0000 
     17 O17       -19.0280   23.1050   38.7550 O.2       1 DEB502      0.0000 
     18 C18       -16.6010   24.0090   40.2680 C.3       1 DEB502      0.0000 
     19 O19       -15.3160   22.4060   38.5370 O.3       1 DEB502      0.0000 
     20 C20       -15.0960   20.3890   40.3150 C.3       1 DEB502      0.0000 
     21 O21       -15.0970   18.5130   38.3780 O.3       1 DEB502      0.0000 
     22 C22       -16.9430   18.2010   36.3500 C.3       1 DEB502      0.0000 
     23 C23       -19.3630   16.0180   39.0800 C.3       1 DEB502      0.0000 
     24 O24       -20.5550   18.6080   37.1710 O.2       1 DEB502      0.0000 
     25 C25       -22.3610   18.2830   39.3570 C.3       1 DEB502      0.0000 
     26 O26       -21.3820   20.5700   38.3160 O.3       1 DEB502      0.0000 
     27 C27       -20.6590   20.2440   41.9260 C.3       1 DEB502      0.0000 
@<TRIPOS>BOND
     1    1    2 1    
     2    1   16 1    
     3    1   17 2    
     4    2    3 1    
     5    2   18 1    
     6    3    4 1    
     7    3   19 1    
     8    4    5 1    
     9    4   20 1    
    10    5    6 1    
    11    5   21 1    
    12    6    7 1    
    13    6   22 1    
    14    7    8 1    
    15    8    9 1    
    16    8   23 1    
    17    9   10 1    
    18    9   24 2    
    19   10   11 1    
    20   10   25 1    
    21   11   12 1    
    22   11   26 1    
    23   12   13 1    
    24   12   27 1    
    25   13   14 1    
    26   13   16 1    
    27   14   15 1    
@<TRIPOS>SUBSTRUCTURE
     1 DEB502      1 GROUP   
@<TRIPOS>SET

