#    Name: 5mns_3_DEB
#    Modification time : Fri May 22 19:19:24 2020

@<TRIPOS>MOLECULE
5mns_3_DEB
   27    27     1     0     0
SMALL
NO_CHARGES


@<TRIPOS>ATOM
      1 C1          0.1260  -31.0720   82.7850 C.2       1 DEB502      0.0000 
      2 C2         -0.4080  -31.4810   81.4370 C.3       1 DEB502      0.0000 
      3 C3          0.7220  -31.7320   80.3970 C.3       1 DEB502      0.0000 
      4 C4          0.6680  -30.6980   79.2510 C.3       1 DEB502      0.0000 
      5 C5          1.9460  -30.7470   78.3950 C.3       1 DEB502      0.0000 
      6 C6          3.1560  -29.9790   78.9360 C.3       1 DEB502      0.0000 
      7 C7          2.9650  -28.4550   78.9550 C.3       1 DEB502      0.0000 
      8 C8          4.1110  -27.6620   79.6010 C.3       1 DEB502      0.0000 
      9 C9          4.1000  -27.9440   81.0690 C.2       1 DEB502      0.0000 
     10 C10         3.0970  -27.2750   81.9660 C.3       1 DEB502      0.0000 
     11 C11         2.3400  -28.3770   82.7260 C.3       1 DEB502      0.0000 
     12 C12         1.1960  -27.8690   83.6000 C.3       1 DEB502      0.0000 
     13 C13         0.5070  -29.0840   84.2460 C.3       1 DEB502      0.0000 
     14 C14        -0.4490  -28.7040   85.3720 C.3       1 DEB502      0.0000 
     15 C15        -0.9760  -29.9540   86.0330 C.3       1 DEB502      0.0000 
     16 O16        -0.2680  -29.7630   83.2630 O.3       1 DEB502      0.0000 
     17 O17         0.8320  -31.7860   83.4660 O.2       1 DEB502      0.0000 
     18 C18        -1.3400  -32.6740   81.6280 C.3       1 DEB502      0.0000 
     19 O19         0.7350  -33.0880   79.8650 O.3       1 DEB502      0.0000 
     20 C20        -0.5790  -30.8760   78.3750 C.3       1 DEB502      0.0000 
     21 O21         1.6570  -30.2800   77.0710 O.3       1 DEB502      0.0000 
     22 C22         4.3830  -30.3490   78.0940 C.3       1 DEB502      0.0000 
     23 C23         3.9910  -26.1580   79.3220 C.3       1 DEB502      0.0000 
     24 O24         4.8850  -28.7630   81.5230 O.2       1 DEB502      0.0000 
     25 C25         3.7970  -26.2460   82.8540 C.3       1 DEB502      0.0000 
     26 O26         3.2340  -29.1510   83.5390 O.3       1 DEB502      0.0000 
     27 C27         0.2310  -26.9710   82.8110 C.3       1 DEB502      0.0000 
@<TRIPOS>BOND
     1    1    2 1    
     2    1   16 1    
     3    1   17 2    
     4    2    3 1    
     5    2   18 1    
     6    3    4 1    
     7    3   19 1    
     8    4    5 1    
     9    4   20 1    
    10    5    6 1    
    11    5   21 1    
    12    6    7 1    
    13    6   22 1    
    14    7    8 1    
    15    8    9 1    
    16    8   23 1    
    17    9   10 1    
    18    9   24 2    
    19   10   11 1    
    20   10   25 1    
    21   11   12 1    
    22   11   26 1    
    23   12   13 1    
    24   12   27 1    
    25   13   14 1    
    26   13   16 1    
    27   14   15 1    
@<TRIPOS>SUBSTRUCTURE
     1 DEB502      1 GROUP   
@<TRIPOS>SET

