#    Name: 6r8u_2_AMP
#    Modification time : Fri May 22 19:24:49 2020

@<TRIPOS>MOLECULE
6r8u_2_AMP
   35    37     1     0     1
SMALL
NO_CHARGES


@<TRIPOS>ATOM
      1 P         102.7950  119.9310  122.4760 P.3       1 AMP501      0.0000 
      2 O1P       102.3140  119.2500  121.2170 O.co2     1 AMP501      0.0000 
      3 O2P       102.7390  121.4150  122.3680 O.co2     1 AMP501      0.0000 
      4 O3P       104.0490  119.3760  123.1190 O.co2     1 AMP501      0.0000 
      5 O5'       101.6860  119.6130  123.5680 O.3       1 AMP501      0.0000 
      6 C5'       101.7420  120.2180  124.8530 C.3       1 AMP501      0.0000 
      7 C4'       100.4270  120.0870  125.5600 C.3       1 AMP501      0.0000 
      8 O4'        99.4480  120.8520  124.8030 O.3       1 AMP501      0.0000 
      9 C3'        99.8870  118.6640  125.6310 C.3       1 AMP501      0.0000 
     10 O3'        99.1990  118.4800  126.8610 O.3       1 AMP501      0.0000 
     11 C2'        98.9030  118.6090  124.4690 C.3       1 AMP501      0.0000 
     12 O2'        97.8780  117.6420  124.6050 O.3       1 AMP501      0.0000 
     13 C1'        98.3450  120.0280  124.5110 C.3       1 AMP501      0.0000 
     14 N9         97.7620  120.4950  123.2550 N.pl3     1 AMP501      0.0000 
     15 C8         98.0680  120.1890  121.9770 C.2       1 AMP501      0.0000 
     16 N7         97.2600  120.8800  121.1370 N.2       1 AMP501      0.0000 
     17 C5         96.4070  121.6100  121.8820 C.ar      1 AMP501      0.0000 
     18 C6         95.3100  122.5610  121.6370 C.ar      1 AMP501      0.0000 
     19 N6         94.9140  122.8450  120.3710 N.pl3     1 AMP501      0.0000 
     20 N1         94.6860  123.1090  122.6990 N.ar      1 AMP501      0.0000 
     21 C2         95.0740  122.8390  123.9580 C.ar      1 AMP501      0.0000 
     22 N3         96.0750  121.9830  124.2420 N.ar      1 AMP501      0.0000 
     23 C4         96.7560  121.3450  123.2690 C.ar      1 AMP501      0.0000 
     24 H5'1      101.9740  121.1560  124.7640 H         1 AMP501      0.0000 
     25 H5'2      102.4410  119.8020  125.3820 H         1 AMP501      0.0000 
     26 H4'       100.5700  120.3950  126.4690 H         1 AMP501      0.0000 
     27 H3'       100.5750  117.9820  125.5810 H         1 AMP501      0.0000 
     28 HO3'       98.4690  118.0890  126.7180 H         1 AMP501      0.0000 
     29 H2'        99.3210  118.3410  123.6350 H         1 AMP501      0.0000 
     30 HO2'       97.6440  117.3730  123.8450 H         1 AMP501      0.0000 
     31 H1'        97.6260  120.0520  125.1620 H         1 AMP501      0.0000 
     32 H8         98.7610  119.5690  121.7010 H         1 AMP501      0.0000 
     33 HN61       95.3040  122.4690  119.7030 H         1 AMP501      0.0000 
     34 HN62       94.2720  123.4020  120.2370 H         1 AMP501      0.0000 
     35 H2         94.6150  123.2780  124.6910 H         1 AMP501      0.0000 
@<TRIPOS>BOND
     1    1    2 ar   
     2    1    3 ar   
     3    1    4 ar   
     4    1    5 1    
     5    5    6 1    
     6    6    7 1    
     7    6   24 1    
     8    6   25 1    
     9    7    8 1    
    10    7    9 1    
    11    7   26 1    
    12    8   13 1    
    13    9   10 1    
    14    9   11 1    
    15    9   27 1    
    16   10   28 1    
    17   11   12 1    
    18   11   13 1    
    19   11   29 1    
    20   12   30 1    
    21   13   14 1    
    22   13   31 1    
    23   14   15 1    
    24   14   23 1    
    25   15   16 2    
    26   15   32 1    
    27   16   17 1    
    28   17   18 ar   
    29   17   23 ar   
    30   18   19 1    
    31   18   20 ar   
    32   20   21 ar   
    33   19   33 1    
    34   19   34 1    
    35   21   22 ar   
    36   21   35 1    
    37   22   23 ar   
@<TRIPOS>SUBSTRUCTURE
     1 AMP501      1 GROUP   
@<TRIPOS>SET
ATOM$ORANGE STATIC     ATOMS   COLORGROUP SYSTEM 
20 6 6 7 7 9 9 11 11 13 13 15 15 17 17 18 18 21 \
21 23 23 

