#    Name: 6r8u_4_AMP
#    Modification time : Fri May 22 19:25:10 2020

@<TRIPOS>MOLECULE
6r8u_4_AMP
   35    37     1     0     1
SMALL
NO_CHARGES


@<TRIPOS>ATOM
      1 P         106.5890   89.4570  122.4850 P.3       1 AMP501      0.0000 
      2 O1P       107.0700   90.1380  121.2260 O.co2     1 AMP501      0.0000 
      3 O2P       106.6460   87.9730  122.3770 O.co2     1 AMP501      0.0000 
      4 O3P       105.3340   90.0110  123.1270 O.co2     1 AMP501      0.0000 
      5 O5'       107.6970   89.7750  123.5780 O.3       1 AMP501      0.0000 
      6 C5'       107.6400   89.1700  124.8640 C.3       1 AMP501      0.0000 
      7 C4'       108.9550   89.3020  125.5710 C.3       1 AMP501      0.0000 
      8 O4'       109.9350   88.5380  124.8150 O.3       1 AMP501      0.0000 
      9 C3'       109.4930   90.7250  125.6430 C.3       1 AMP501      0.0000 
     10 O3'       110.1800   90.9100  126.8730 O.3       1 AMP501      0.0000 
     11 C2'       110.4790   90.7810  124.4820 C.3       1 AMP501      0.0000 
     12 O2'       111.5030   91.7490  124.6180 O.3       1 AMP501      0.0000 
     13 C1'       111.0380   89.3620  124.5240 C.3       1 AMP501      0.0000 
     14 N9        111.6220   88.8960  123.2680 N.pl3     1 AMP501      0.0000 
     15 C8        111.3160   89.2010  121.9900 C.2       1 AMP501      0.0000 
     16 N7        112.1250   88.5110  121.1500 N.2       1 AMP501      0.0000 
     17 C5        112.9780   87.7820  121.8960 C.ar      1 AMP501      0.0000 
     18 C6        114.0760   86.8320  121.6520 C.ar      1 AMP501      0.0000 
     19 N6        114.4730   86.5470  120.3860 N.pl3     1 AMP501      0.0000 
     20 N1        114.6990   86.2840  122.7140 N.ar      1 AMP501      0.0000 
     21 C2        114.3100   86.5530  123.9730 C.ar      1 AMP501      0.0000 
     22 N3        113.3090   87.4090  124.2560 N.ar      1 AMP501      0.0000 
     23 C4        112.6280   88.0470  123.2820 C.ar      1 AMP501      0.0000 
     24 H5'1      107.4090   88.2320  124.7740 H         1 AMP501      0.0000 
     25 H5'2      106.9410   89.5850  125.3910 H         1 AMP501      0.0000 
     26 H4'       108.8110   88.9940  126.4800 H         1 AMP501      0.0000 
     27 H3'       108.8050   91.4070  125.5930 H         1 AMP501      0.0000 
     28 HO3'      110.9100   91.3010  126.7310 H         1 AMP501      0.0000 
     29 H2'       110.0610   91.0480  123.6470 H         1 AMP501      0.0000 
     30 HO2'      111.7380   92.0180  123.8590 H         1 AMP501      0.0000 
     31 H1'       111.7560   89.3390  125.1750 H         1 AMP501      0.0000 
     32 H8        110.6230   89.8210  121.7130 H         1 AMP501      0.0000 
     33 HN61      114.0840   86.9230  119.7180 H         1 AMP501      0.0000 
     34 HN62      115.1160   85.9910  120.2520 H         1 AMP501      0.0000 
     35 H2        114.7690   86.1140  124.7060 H         1 AMP501      0.0000 
@<TRIPOS>BOND
     1    1    2 ar   
     2    1    3 ar   
     3    1    4 ar   
     4    1    5 1    
     5    5    6 1    
     6    6    7 1    
     7    6   24 1    
     8    6   25 1    
     9    7    8 1    
    10    7    9 1    
    11    7   26 1    
    12    8   13 1    
    13    9   10 1    
    14    9   11 1    
    15    9   27 1    
    16   10   28 1    
    17   11   12 1    
    18   11   13 1    
    19   11   29 1    
    20   12   30 1    
    21   13   14 1    
    22   13   31 1    
    23   14   15 1    
    24   14   23 1    
    25   15   16 2    
    26   15   32 1    
    27   16   17 1    
    28   17   18 ar   
    29   17   23 ar   
    30   18   19 1    
    31   18   20 ar   
    32   20   21 ar   
    33   19   33 1    
    34   19   34 1    
    35   21   22 ar   
    36   21   35 1    
    37   22   23 ar   
@<TRIPOS>SUBSTRUCTURE
     1 AMP501      1 GROUP   
@<TRIPOS>SET
ATOM$ORANGE STATIC     ATOMS   COLORGROUP SYSTEM 
20 6 6 7 7 9 9 11 11 13 13 15 15 17 17 18 18 21 \
21 23 23 

