#    Name: 6r8u_1_AMP
#    Modification time : Fri May 22 19:24:41 2020

@<TRIPOS>MOLECULE
6r8u_1_AMP
   35    37     1     0     1
SMALL
NO_CHARGES


@<TRIPOS>ATOM
      1 P         106.5760  119.9420   86.9090 P.3       1 AMP501      0.0000 
      2 O1P       105.3220  119.3870   86.2660 O.co2     1 AMP501      0.0000 
      3 O2P       106.6320  121.4260   87.0170 O.co2     1 AMP501      0.0000 
      4 O3P       107.0570  119.2610   88.1680 O.co2     1 AMP501      0.0000 
      5 O5'       107.6850  119.6240   85.8170 O.3       1 AMP501      0.0000 
      6 C5'       107.6290  120.2290   84.5310 C.3       1 AMP501      0.0000 
      7 C4'       108.9440  120.0970   83.8240 C.3       1 AMP501      0.0000 
      8 O4'       109.9230  120.8620   84.5810 O.3       1 AMP501      0.0000 
      9 C3'       109.4830  118.6740   83.7530 C.3       1 AMP501      0.0000 
     10 O3'       110.1710  118.4900   82.5230 O.3       1 AMP501      0.0000 
     11 C2'       110.4680  118.6190   84.9150 C.3       1 AMP501      0.0000 
     12 O2'       111.4930  117.6520   84.7790 O.3       1 AMP501      0.0000 
     13 C1'       111.0260  120.0380   84.8730 C.3       1 AMP501      0.0000 
     14 N9        111.6090  120.5050   86.1290 N.pl3     1 AMP501      0.0000 
     15 C8        111.3030  120.2000   87.4070 C.2       1 AMP501      0.0000 
     16 N7        112.1110  120.8910   88.2470 N.2       1 AMP501      0.0000 
     17 C5        112.9640  121.6200   87.5010 C.ar      1 AMP501      0.0000 
     18 C6        114.0610  122.5710   87.7460 C.ar      1 AMP501      0.0000 
     19 N6        114.4580  122.8560   89.0120 N.pl3     1 AMP501      0.0000 
     20 N1        114.6850  123.1190   86.6840 N.ar      1 AMP501      0.0000 
     21 C2        114.2970  122.8490   85.4250 C.ar      1 AMP501      0.0000 
     22 N3        113.2960  121.9930   85.1410 N.ar      1 AMP501      0.0000 
     23 C4        112.6150  121.3550   86.1150 C.ar      1 AMP501      0.0000 
     24 H5'1      107.3970  121.1670   84.6200 H         1 AMP501      0.0000 
     25 H5'2      106.9300  119.8130   84.0030 H         1 AMP501      0.0000 
     26 H4'       108.8000  120.4050   82.9150 H         1 AMP501      0.0000 
     27 H3'       108.7950  117.9920   83.8030 H         1 AMP501      0.0000 
     28 HO3'      110.9010  118.0990   82.6660 H         1 AMP501      0.0000 
     29 H2'       110.0500  118.3520   85.7490 H         1 AMP501      0.0000 
     30 HO2'      111.7270  117.3830   85.5390 H         1 AMP501      0.0000 
     31 H1'       111.7450  120.0620   84.2220 H         1 AMP501      0.0000 
     32 H8        110.6100  119.5800   87.6830 H         1 AMP501      0.0000 
     33 HN61      114.0680  122.4800   89.6800 H         1 AMP501      0.0000 
     34 HN62      115.1000  123.4130   89.1460 H         1 AMP501      0.0000 
     35 H2        114.7560  123.2880   84.6920 H         1 AMP501      0.0000 
@<TRIPOS>BOND
     1    1    2 ar   
     2    1    3 ar   
     3    1    4 ar   
     4    1    5 1    
     5    5    6 1    
     6    6    7 1    
     7    6   24 1    
     8    6   25 1    
     9    7    8 1    
    10    7    9 1    
    11    7   26 1    
    12    8   13 1    
    13    9   10 1    
    14    9   11 1    
    15    9   27 1    
    16   10   28 1    
    17   11   12 1    
    18   11   13 1    
    19   11   29 1    
    20   12   30 1    
    21   13   14 1    
    22   13   31 1    
    23   14   15 1    
    24   14   23 1    
    25   15   16 2    
    26   15   32 1    
    27   16   17 1    
    28   17   18 ar   
    29   17   23 ar   
    30   18   19 1    
    31   18   20 ar   
    32   20   21 ar   
    33   19   33 1    
    34   19   34 1    
    35   21   22 ar   
    36   21   35 1    
    37   22   23 ar   
@<TRIPOS>SUBSTRUCTURE
     1 AMP501      1 GROUP   
@<TRIPOS>SET
ATOM$ORANGE STATIC     ATOMS   COLORGROUP SYSTEM 
20 6 6 7 7 9 9 11 11 13 13 15 15 17 17 18 18 21 \
21 23 23 

