#    Name: 6r8u_3_AMP
#    Modification time : Fri May 22 19:25:00 2020

@<TRIPOS>MOLECULE
6r8u_3_AMP
   35    37     1     0     1
SMALL
NO_CHARGES


@<TRIPOS>ATOM
      1 P         102.8010   89.4560   86.9020 P.3       1 AMP501      0.0000 
      2 O1P       104.0550   90.0110   86.2580 O.co2     1 AMP501      0.0000 
      3 O2P       102.7450   87.9720   87.0100 O.co2     1 AMP501      0.0000 
      4 O3P       102.3210   90.1370   88.1610 O.co2     1 AMP501      0.0000 
      5 O5'       101.6920   89.7740   85.8100 O.3       1 AMP501      0.0000 
      6 C5'       101.7480   89.1690   84.5240 C.3       1 AMP501      0.0000 
      7 C4'       100.4330   89.3010   83.8170 C.3       1 AMP501      0.0000 
      8 O4'        99.4540   88.5360   84.5750 O.3       1 AMP501      0.0000 
      9 C3'        99.8940   90.7240   83.7460 C.3       1 AMP501      0.0000 
     10 O3'        99.2050   90.9080   82.5160 O.3       1 AMP501      0.0000 
     11 C2'        98.9090   90.7790   84.9090 C.3       1 AMP501      0.0000 
     12 O2'        97.8840   91.7460   84.7730 O.3       1 AMP501      0.0000 
     13 C1'        98.3510   89.3600   84.8670 C.3       1 AMP501      0.0000 
     14 N9         97.7680   88.8930   86.1230 N.pl3     1 AMP501      0.0000 
     15 C8         98.0740   89.1980   87.4010 C.2       1 AMP501      0.0000 
     16 N7         97.2670   88.5070   88.2410 N.2       1 AMP501      0.0000 
     17 C5         96.4130   87.7780   87.4960 C.ar      1 AMP501      0.0000 
     18 C6         95.3160   86.8270   87.7410 C.ar      1 AMP501      0.0000 
     19 N6         94.9200   86.5430   89.0070 N.pl3     1 AMP501      0.0000 
     20 N1         94.6920   86.2790   86.6790 N.ar      1 AMP501      0.0000 
     21 C2         95.0800   86.5490   85.4200 C.ar      1 AMP501      0.0000 
     22 N3         96.0810   87.4050   85.1360 N.ar      1 AMP501      0.0000 
     23 C4         96.7620   88.0430   86.1090 C.ar      1 AMP501      0.0000 
     24 H5'1      101.9800   88.2310   84.6130 H         1 AMP501      0.0000 
     25 H5'2      102.4470   89.5850   83.9960 H         1 AMP501      0.0000 
     26 H4'       100.5760   88.9930   82.9080 H         1 AMP501      0.0000 
     27 H3'       100.5820   91.4060   83.7960 H         1 AMP501      0.0000 
     28 HO3'       98.4750   91.2990   82.6600 H         1 AMP501      0.0000 
     29 H2'        99.3270   91.0460   85.7420 H         1 AMP501      0.0000 
     30 HO2'       97.6500   92.0150   85.5330 H         1 AMP501      0.0000 
     31 H1'        97.6320   89.3360   84.2160 H         1 AMP501      0.0000 
     32 H8         98.7670   89.8180   87.6770 H         1 AMP501      0.0000 
     33 HN61       95.3100   86.9190   89.6750 H         1 AMP501      0.0000 
     34 HN62       94.2780   85.9860   89.1410 H         1 AMP501      0.0000 
     35 H2         94.6210   86.1100   84.6870 H         1 AMP501      0.0000 
@<TRIPOS>BOND
     1    1    2 ar   
     2    1    3 ar   
     3    1    4 ar   
     4    1    5 1    
     5    5    6 1    
     6    6    7 1    
     7    6   24 1    
     8    6   25 1    
     9    7    8 1    
    10    7    9 1    
    11    7   26 1    
    12    8   13 1    
    13    9   10 1    
    14    9   11 1    
    15    9   27 1    
    16   10   28 1    
    17   11   12 1    
    18   11   13 1    
    19   11   29 1    
    20   12   30 1    
    21   13   14 1    
    22   13   31 1    
    23   14   15 1    
    24   14   23 1    
    25   15   16 2    
    26   15   32 1    
    27   16   17 1    
    28   17   18 ar   
    29   17   23 ar   
    30   18   19 1    
    31   18   20 ar   
    32   20   21 ar   
    33   19   33 1    
    34   19   34 1    
    35   21   22 ar   
    36   21   35 1    
    37   22   23 ar   
@<TRIPOS>SUBSTRUCTURE
     1 AMP501      1 GROUP   
@<TRIPOS>SET
ATOM$ORANGE STATIC     ATOMS   COLORGROUP SYSTEM 
20 6 6 7 7 9 9 11 11 13 13 15 15 17 17 18 18 21 \
21 23 23 

