#    Name: 6jwz_1_AMP
#    Modification time : Fri May 22 19:35:10 2020

@<TRIPOS>MOLECULE
6jwz_1_AMP
   23    25     1     0     1
SMALL
NO_CHARGES


@<TRIPOS>ATOM
      1 P         -33.3050   90.3700   61.0400 P.3       1 AMP803      0.0000 
      2 O1P       -34.4180   89.6910   60.2700 O.co2     1 AMP803      0.0000 
      3 O2P       -32.1420   89.4460   61.3390 O.co2     1 AMP803      0.0000 
      4 O3P       -32.9000   91.7580   60.5530 O.co2     1 AMP803      0.0000 
      5 O5'       -33.9940   90.6380   62.4730 O.3       1 AMP803      0.0000 
      6 C5'       -33.2320   91.1630   63.5580 C.3       1 AMP803      0.0000 
      7 C4'       -34.0960   91.2330   64.8120 C.3       1 AMP803      0.0000 
      8 O4'       -33.3140   91.6650   65.9300 O.3       1 AMP803      0.0000 
      9 C3'       -35.2100   92.2540   64.6670 C.3       1 AMP803      0.0000 
     10 O3'       -36.3000   91.8040   65.4720 O.3       1 AMP803      0.0000 
     11 C2'       -34.6800   93.5120   65.3000 C.3       1 AMP803      0.0000 
     12 O2'       -35.7630   94.2400   65.8630 O.3       1 AMP803      0.0000 
     13 C1'       -33.7320   92.9750   66.3710 C.3       1 AMP803      0.0000 
     14 N9        -32.5350   93.8350   66.6410 N.pl3     1 AMP803      0.0000 
     15 C8        -32.0820   94.1580   67.8730 C.2       1 AMP803      0.0000 
     16 N7        -30.9720   94.9440   67.8370 N.2       1 AMP803      0.0000 
     17 C5        -30.6950   95.1290   66.5420 C.ar      1 AMP803      0.0000 
     18 C6        -29.6590   95.8470   65.7900 C.ar      1 AMP803      0.0000 
     19 N6        -28.6920   96.5250   66.4390 N.pl3     1 AMP803      0.0000 
     20 N1        -29.7150   95.8030   64.4430 N.ar      1 AMP803      0.0000 
     21 C2        -30.6660   95.1250   63.7750 C.ar      1 AMP803      0.0000 
     22 N3        -31.6320   94.4460   64.3990 N.ar      1 AMP803      0.0000 
     23 C4        -31.7090   94.4070   65.7540 C.ar      1 AMP803      0.0000 
@<TRIPOS>BOND
     1    1    2 ar   
     2    1    3 ar   
     3    1    4 ar   
     4    1    5 1    
     5    5    6 1    
     6    6    7 1    
     7    7    8 1    
     8    7    9 1    
     9    8   13 1    
    10    9   10 1    
    11    9   11 1    
    12   11   12 1    
    13   11   13 1    
    14   13   14 1    
    15   14   15 1    
    16   14   23 1    
    17   15   16 2    
    18   16   17 1    
    19   17   18 ar   
    20   17   23 ar   
    21   18   19 1    
    22   18   20 ar   
    23   20   21 ar   
    24   21   22 ar   
    25   22   23 ar   
@<TRIPOS>SUBSTRUCTURE
     1 AMP803      1 GROUP   
@<TRIPOS>SET
ATOM$ORANGE STATIC     ATOMS   COLORGROUP SYSTEM 
20 6 6 7 7 9 9 11 11 13 13 15 15 17 17 18 18 21 \
21 23 23 

