#    Name: 6jwz_2_AMP_CAVITY_N1_ALL
#    Modification time : Fri May 22 19:35:16 2020

@<TRIPOS>MOLECULE
6jwz_2_AMP_CAVITY_N1_ALL
   74     0     7     0     0
SMALL
NO_CHARGES


@<TRIPOS>ATOM
      1 OG         44.3700   59.9500   61.4000 O.3       1 SER1        0.0000 
      2 OG         45.0300   60.1500   59.4000 O.3       1 SER1        0.0000 
      3 OG         45.2200   59.1300   60.4800 O.3       1 SER1        0.0000 
      4 OG         46.0600   58.3100   59.5500 O.3       1 SER1        0.0000 
      5 OG         45.4000   61.7000   60.7900 O.3       1 SER1        0.0000 
      6 O          44.2700   57.0500   56.6000 O.2       2 ALA2        0.0000 
      7 N          44.6500   55.0100   58.7600 N.am      2 ALA2        0.0000 
      8 O          45.1200   56.2300   55.6700 O.2       2 ALA2        0.0000 
      9 O          45.8800   55.7300   59.2400 O.2       2 ALA2        0.0000 
     10 N          46.1600   57.9800   55.0600 N.am      2 ALA2        0.0000 
     11 N          47.1000   56.4600   59.7100 N.am      2 ALA2        0.0000 
     12 N          48.3200   57.1900   60.1800 N.am      2 ALA2        0.0000 
     13 N          49.1700   56.3700   59.2600 N.am      2 ALA2        0.0000 
     14 O          45.7800   63.2500   62.1900 O.2       2 ALA2        0.0000 
     15 N          49.5500   57.9200   60.6600 N.am      2 ALA2        0.0000 
     16 N          50.0100   59.1400   57.5700 N.am      2 ALA2        0.0000 
     17 N          50.2000   58.1200   58.6500 N.am      2 ALA2        0.0000 
     18 N          50.3900   57.0900   59.7300 N.am      2 ALA2        0.0000 
     19 N          50.8600   58.3200   56.6400 N.am      2 ALA2        0.0000 
     20 N          51.0500   57.2900   57.7200 N.am      2 ALA2        0.0000 
     21 N          50.3900   60.6900   58.9600 N.am      2 ALA2        0.0000 
     22 N          50.5800   59.6700   60.0500 N.am      2 ALA2        0.0000 
     23 N          51.0500   60.8900   56.9600 N.am      2 ALA2        0.0000 
     24 N          51.6100   61.4200   59.4400 N.am      2 ALA2        0.0000 
     25 OD1        45.8700   59.3300   58.4700 O.co2     3 ASP3        0.0000 
     26 OD1        46.7200   58.5100   57.5500 O.co2     3 ASP3        0.0000 
     27 OD1        47.3800   58.7000   55.5400 O.co2     3 ASP3        0.0000 
     28 OD1        46.2500   60.8800   59.8700 O.co2     3 ASP3        0.0000 
     29 OD1        47.1000   60.0600   58.9400 O.co2     3 ASP3        0.0000 
     30 OD1        47.9400   59.2300   58.0200 O.co2     3 ASP3        0.0000 
     31 OD1        48.3200   60.7800   59.4200 O.co2     3 ASP3        0.0000 
     32 OD1        48.7900   62.0000   56.3300 O.co2     3 ASP3        0.0000 
     33 OD1        48.9800   60.9800   57.4100 O.co2     3 ASP3        0.0000 
     34 OD1        49.1700   59.9600   58.4900 O.co2     3 ASP3        0.0000 
     35 OD1        49.8300   60.1600   56.4800 O.co2     3 ASP3        0.0000 
     36 NZ         45.5000   57.7800   57.0700 N.4       4 LYS4        0.0000 
     37 CZ         44.4600   56.0300   57.6800 C.ar      5 PHE5        0.0000 
     38 CZ         44.1800   57.3800   61.0900 C.ar      5 PHE5        0.0000 
     39 CZ         44.8400   57.5800   59.0800 C.ar      5 PHE5        0.0000 
     40 CZ         45.0300   56.5600   60.1600 C.ar      5 PHE5        0.0000 
     41 CZ         45.6900   56.7600   58.1500 C.ar      5 PHE5        0.0000 
     42 CZ         45.4100   58.1100   61.5600 C.ar      5 PHE5        0.0000 
     43 CZ         46.2500   57.2800   60.6300 C.ar      5 PHE5        0.0000 
     44 CZ         45.5900   60.6800   61.8800 C.ar      5 PHE5        0.0000 
     45 CZ         46.4400   59.8600   60.9500 C.ar      5 PHE5        0.0000 
     46 CZ         47.4800   58.0100   61.1100 C.ar      5 PHE5        0.0000 
     47 CZ         46.8200   61.4100   62.3500 C.ar      5 PHE5        0.0000 
     48 CZ         47.6600   60.5800   61.4200 C.ar      5 PHE5        0.0000 
     49 CZ         48.5100   59.7600   60.5000 C.ar      5 PHE5        0.0000 
     50 CZ         48.8900   61.3100   61.9000 C.ar      5 PHE5        0.0000 
     51 CZ         49.7300   60.4900   60.9700 C.ar      5 PHE5        0.0000 
     52 CZ         50.7700   58.6400   61.1300 C.ar      5 PHE5        0.0000 
     53 CZ         51.1500   60.1900   62.5300 C.ar      5 PHE5        0.0000 
     54 CA         44.2800   53.4600   57.3600 C.3       6 GLY6        0.0000 
     55 CA         45.3100   55.2100   56.7600 C.3       6 GLY6        0.0000 
     56 CA         45.5000   54.1800   57.8400 C.3       6 GLY6        0.0000 
     57 CA         46.3400   56.9600   56.1500 C.3       6 GLY6        0.0000 
     58 CA         46.5300   55.9300   57.2300 C.3       6 GLY6        0.0000 
     59 CA         46.7200   54.9100   58.3100 C.3       6 GLY6        0.0000 
     60 CA         47.5700   57.6800   56.6200 C.3       6 GLY6        0.0000 
     61 CA         47.7600   56.6600   57.7000 C.3       6 GLY6        0.0000 
     62 CA         47.9500   55.6400   58.7800 C.3       6 GLY6        0.0000 
     63 CA         48.6000   59.4300   56.0100 C.3       6 GLY6        0.0000 
     64 CA         48.7900   58.4100   57.0900 C.3       6 GLY6        0.0000 
     65 CA         48.9800   57.3900   58.1700 C.3       6 GLY6        0.0000 
     66 CA         49.6400   57.5900   56.1700 C.3       6 GLY6        0.0000 
     67 CA         49.8300   56.5700   57.2500 C.3       6 GLY6        0.0000 
     68 DU         46.9100   57.4800   58.6300 H         7 CUB7        0.0000 
     69 DU         47.2900   59.0300   60.0300 H         7 CUB7        0.0000 
     70 DU         48.1300   58.2100   59.1000 H         7 CUB7        0.0000 
     71 DU         47.4700   61.6100   60.3400 H         7 CUB7        0.0000 
     72 DU         49.3600   58.9400   59.5700 H         7 CUB7        0.0000 
     73 DU         49.5400   61.5100   59.8900 H         7 CUB7        0.0000 
     74 DU         50.9600   61.2200   61.4400 H         7 CUB7        0.0000 
@<TRIPOS>BOND
@<TRIPOS>SUBSTRUCTURE
     1 SER1        1 GROUP   
     2 ALA2        6 GROUP   
     3 ASP3       25 GROUP   
     4 LYS4       36 GROUP   
     5 PHE5       37 GROUP   
     6 GLY6       54 GROUP   
     7 CUB7       68 GROUP   
@<TRIPOS>SET

