#    Name: 6jwz_2_AMP
#    Modification time : Fri May 22 19:35:15 2020

@<TRIPOS>MOLECULE
6jwz_2_AMP
   23    25     1     0     1
SMALL
NO_CHARGES


@<TRIPOS>ATOM
      1 P          47.9080   62.7670   57.8190 P.3       1 AMP803      0.0000 
      2 O1P        47.8430   61.8560   56.6070 O.co2     1 AMP803      0.0000 
      3 O2P        49.2170   63.5130   57.9590 O.co2     1 AMP803      0.0000 
      4 O3P        46.6760   63.6190   58.0290 O.co2     1 AMP803      0.0000 
      5 O5'        47.8810   61.7620   59.0810 O.3       1 AMP803      0.0000 
      6 C5'        47.9470   60.3570   58.8690 C.3       1 AMP803      0.0000 
      7 C4'        48.9670   59.7500   59.8140 C.3       1 AMP803      0.0000 
      8 O4'        48.2850   58.8630   60.6950 O.3       1 AMP803      0.0000 
      9 C3'        49.9980   58.9070   59.0840 C.3       1 AMP803      0.0000 
     10 O3'        51.2350   59.0270   59.7920 O.3       1 AMP803      0.0000 
     11 C2'        49.4870   57.4800   59.1710 C.3       1 AMP803      0.0000 
     12 O2'        50.5190   56.5330   59.4230 O.3       1 AMP803      0.0000 
     13 C1'        48.5430   57.4970   60.3570 C.3       1 AMP803      0.0000 
     14 N9         47.2620   56.8020   60.0710 N.pl3     1 AMP803      0.0000 
     15 C8         46.5310   56.1890   61.0190 C.2       1 AMP803      0.0000 
     16 N7         45.4080   55.6310   60.5150 N.2       1 AMP803      0.0000 
     17 C5         45.4070   55.9000   59.2070 C.ar      1 AMP803      0.0000 
     18 C6         44.4980   55.6010   58.0980 C.ar      1 AMP803      0.0000 
     19 N6         43.3750   54.8980   58.3440 N.pl3     1 AMP803      0.0000 
     20 N1         44.8300   56.0510   56.8700 N.ar      1 AMP803      0.0000 
     21 C2         45.9590   56.7610   56.6550 C.ar      1 AMP803      0.0000 
     22 N3         46.8350   57.0720   57.6250 N.ar      1 AMP803      0.0000 
     23 C4         46.6210   56.6740   58.9030 C.ar      1 AMP803      0.0000 
@<TRIPOS>BOND
     1    1    2 ar   
     2    1    3 ar   
     3    1    4 ar   
     4    1    5 1    
     5    5    6 1    
     6    6    7 1    
     7    7    8 1    
     8    7    9 1    
     9    8   13 1    
    10    9   10 1    
    11    9   11 1    
    12   11   12 1    
    13   11   13 1    
    14   13   14 1    
    15   14   15 1    
    16   14   23 1    
    17   15   16 2    
    18   16   17 1    
    19   17   18 ar   
    20   17   23 ar   
    21   18   19 1    
    22   18   20 ar   
    23   20   21 ar   
    24   21   22 ar   
    25   22   23 ar   
@<TRIPOS>SUBSTRUCTURE
     1 AMP803      1 GROUP   
@<TRIPOS>SET
ATOM$ORANGE STATIC     ATOMS   COLORGROUP SYSTEM 
20 6 6 7 7 9 9 11 11 13 13 15 15 17 17 18 18 21 \
21 23 23 

