#    Name: 6jwz_1_AMP_CAVITY_N1_ALL
#    Modification time : Fri May 22 19:35:11 2020

@<TRIPOS>MOLECULE
6jwz_1_AMP_CAVITY_N1_ALL
   72     0     7     0     0
SMALL
NO_CHARGES


@<TRIPOS>ATOM
      1 OG        -31.5000   92.0900   65.5100 O.3       1 SER1        0.0000 
      2 OG        -30.6500   91.2700   64.5800 O.3       1 SER1        0.0000 
      3 OG        -30.4700   90.2500   65.6600 O.3       1 SER1        0.0000 
      4 OG        -29.6200   89.4300   64.7400 O.3       1 SER1        0.0000 
      5 OG        -30.2800   92.8200   65.9800 O.3       1 SER1        0.0000 
      6 OG        -30.0900   91.8000   67.0600 O.3       1 SER1        0.0000 
      7 O         -36.8700   91.5600   65.9400 O.2       2 ALA2        0.0000 
      8 N         -36.0200   90.7300   65.0100 N.am      2 ALA2        0.0000 
      9 N         -35.5500   91.9500   61.9200 N.am      2 ALA2        0.0000 
     10 N         -36.0200   94.3300   64.2500 N.am      2 ALA2        0.0000 
     11 N         -35.8300   93.3100   65.3300 N.am      2 ALA2        0.0000 
     12 N         -35.1700   93.5000   63.3200 N.am      2 ALA2        0.0000 
     13 N         -34.9800   92.4800   64.4000 N.am      2 ALA2        0.0000 
     14 N         -34.6100   94.0300   65.8000 N.am      2 ALA2        0.0000 
     15 N         -34.4200   93.0100   66.8800 N.am      2 ALA2        0.0000 
     16 N         -31.3100   87.4800   67.3500 N.am      2 ALA2        0.0000 
     17 N         -33.3800   94.7600   66.2800 N.am      2 ALA2        0.0000 
     18 N         -32.5400   93.9400   65.3500 N.am      2 ALA2        0.0000 
     19 N         -32.3500   92.9200   66.4300 N.am      2 ALA2        0.0000 
     20 N         -32.1600   95.4900   66.7500 N.am      2 ALA2        0.0000 
     21 N         -31.9700   94.4700   67.8300 N.am      2 ALA2        0.0000 
     22 O         -30.2800   96.4100   65.2200 O.2       2 ALA2        0.0000 
     23 OD1       -34.3300   92.6800   62.4000 O.co2     3 ASP3        0.0000 
     24 OD1       -33.4800   91.8600   61.4700 O.co2     3 ASP3        0.0000 
     25 OD1       -33.2900   90.8400   62.5500 O.co2     3 ASP3        0.0000 
     26 OD1       -33.1000   93.4100   62.8700 O.co2     3 ASP3        0.0000 
     27 OD1       -32.2600   92.5900   61.9500 O.co2     3 ASP3        0.0000 
     28 OD1       -32.0700   91.5700   63.0300 O.co2     3 ASP3        0.0000 
     29 OD1       -31.8800   90.5400   64.1100 O.co2     3 ASP3        0.0000 
     30 OD1       -31.6900   93.1200   64.4300 O.co2     3 ASP3        0.0000 
     31 OD1       -30.8400   92.2900   63.5000 O.co2     3 ASP3        0.0000 
     32 NZ        -32.6300   91.0400   60.5500 N.4       4 LYS4        0.0000 
     33 NZ        -31.8800   94.1400   63.3400 N.4       4 LYS4        0.0000 
     34 CZ        -35.6400   92.2800   66.4100 C.ar      5 PHE5        0.0000 
     35 CZ        -34.8000   91.4600   65.4900 C.ar      5 PHE5        0.0000 
     36 CZ        -34.6100   90.4400   66.5700 C.ar      5 PHE5        0.0000 
     37 CZ        -33.7600   89.6200   65.6400 C.ar      5 PHE5        0.0000 
     38 CZ        -33.3800   87.5700   67.8100 C.ar      5 PHE5        0.0000 
     39 CZ        -33.5700   92.1900   65.9600 C.ar      5 PHE5        0.0000 
     40 CZ        -32.5400   90.3400   66.1200 C.ar      5 PHE5        0.0000 
     41 CZ        -32.3500   89.3200   67.2000 C.ar      5 PHE5        0.0000 
     42 CZ        -32.1600   88.3000   68.2800 C.ar      5 PHE5        0.0000 
     43 CZ        -30.6500   87.6800   65.3500 C.ar      5 PHE5        0.0000 
     44 CZ        -31.3100   91.0700   66.5900 C.ar      5 PHE5        0.0000 
     45 CZ        -31.1200   90.0500   67.6700 C.ar      5 PHE5        0.0000 
     46 CZ        -30.9300   89.0300   68.7500 C.ar      5 PHE5        0.0000 
     47 CZ        -31.1200   93.6400   66.9100 C.ar      5 PHE5        0.0000 
     48 CZ        -30.9400   92.6200   67.9900 C.ar      5 PHE5        0.0000 
     49 CZ        -30.4700   93.8400   64.9000 C.ar      5 PHE5        0.0000 
     50 CZ        -30.0900   95.3900   66.3000 C.ar      5 PHE5        0.0000 
     51 CZ        -29.9000   94.3700   67.3800 C.ar      5 PHE5        0.0000 
     52 CA        -37.9000   89.8100   66.5500 C.3       6 GLY6        0.0000 
     53 CA        -36.6800   90.5300   67.0200 C.3       6 GLY6        0.0000 
     54 CA        -34.8000   95.0500   64.7200 C.3       6 GLY6        0.0000 
     55 CA        -34.1400   95.2500   62.7100 C.3       6 GLY6        0.0000 
     56 CA        -33.9500   94.2300   63.8000 C.3       6 GLY6        0.0000 
     57 CA        -32.7300   94.9600   64.2700 C.3       6 GLY6        0.0000 
     58 CA        -30.2800   89.2300   66.7500 C.3       6 GLY6        0.0000 
     59 CA        -30.0900   88.2100   67.8300 C.3       6 GLY6        0.0000 
     60 CA        -31.5000   95.6900   64.7400 C.3       6 GLY6        0.0000 
     61 CA        -29.9000   90.7800   68.1400 C.3       6 GLY6        0.0000 
     62 CA        -31.1300   97.2400   66.1400 C.3       6 GLY6        0.0000 
     63 CA        -30.9400   96.2200   67.2200 C.3       6 GLY6        0.0000 
     64 CA        -29.7100   93.3500   68.4600 C.3       6 GLY6        0.0000 
     65 DU        -34.1400   91.6600   63.4800 H         7 CUB7        0.0000 
     66 DU        -33.9500   90.6400   64.5600 H         7 CUB7        0.0000 
     67 DU        -33.7600   93.2100   64.8800 H         7 CUB7        0.0000 
     68 DU        -32.9100   92.3900   63.9500 H         7 CUB7        0.0000 
     69 DU        -32.7200   91.3700   65.0300 H         7 CUB7        0.0000 
     70 DU        -31.6900   89.5200   65.1900 H         7 CUB7        0.0000 
     71 DU        -31.5000   88.5000   66.2700 H         7 CUB7        0.0000 
     72 DU        -31.3100   94.6700   65.8200 H         7 CUB7        0.0000 
@<TRIPOS>BOND
@<TRIPOS>SUBSTRUCTURE
     1 SER1        1 GROUP   
     2 ALA2        7 GROUP   
     3 ASP3       23 GROUP   
     4 LYS4       32 GROUP   
     5 PHE5       34 GROUP   
     6 GLY6       52 GROUP   
     7 CUB7       65 GROUP   
@<TRIPOS>SET

