#    Name: 6cny_2_FMN
#    Modification time : Fri May 22 19:33:38 2020

@<TRIPOS>MOLECULE
6cny_2_FMN
   31    33     1     0     1
SMALL
NO_CHARGES


@<TRIPOS>ATOM
      1 N1        -32.3810   73.7430   -0.8400 N.2       1 FMN201      0.0000 
      2 C2        -31.5530   74.8020   -1.0890 C.2       1 FMN201      0.0000 
      3 O2        -32.0020   75.8650   -1.5270 O.2       1 FMN201      0.0000 
      4 N3        -30.1660   74.6800   -0.8470 N.am      1 FMN201      0.0000 
      5 C4        -29.5200   73.5530   -0.3590 C.2       1 FMN201      0.0000 
      6 O4        -28.3070   73.5720   -0.1480 O.2       1 FMN201      0.0000 
      7 C4A       -30.4270   72.4160   -0.1140 C.2       1 FMN201      0.0000 
      8 N5        -29.9110   71.2940    0.3160 N.2       1 FMN201      0.0000 
      9 C5A       -30.7690   70.2250    0.5440 C.ar      1 FMN201      0.0000 
     10 C6        -30.2380   69.0250    1.0180 C.ar      1 FMN201      0.0000 
     11 C7        -31.0600   67.9480    1.3330 C.ar      1 FMN201      0.0000 
     12 C7M       -30.4350   66.6650    1.8230 C.3       1 FMN201      0.0000 
     13 C8        -32.4550   68.0740    1.1820 C.ar      1 FMN201      0.0000 
     14 C8M       -33.3890   66.9600    1.5790 C.3       1 FMN201      0.0000 
     15 C9        -32.9870   69.2580    0.6810 C.ar      1 FMN201      0.0000 
     16 C9A       -32.1580   70.3260    0.3410 C.ar      1 FMN201      0.0000 
     17 N10       -32.6680   71.5390   -0.1850 N.pl3     1 FMN201      0.0000 
     18 C10       -31.8490   72.6190   -0.3940 C.2       1 FMN201      0.0000 
     19 C1'       -34.0360   71.6070   -0.7150 C.3       1 FMN201      0.0000 
     20 C2'       -35.0290   72.1990    0.2730 C.3       1 FMN201      0.0000 
     21 O2'       -34.7850   71.7020    1.5910 O.3       1 FMN201      0.0000 
     22 C3'       -36.4600   71.8560   -0.1450 C.3       1 FMN201      0.0000 
     23 O3'       -36.5810   70.4350   -0.1560 O.3       1 FMN201      0.0000 
     24 C4'       -36.8700   72.4260   -1.5050 C.3       1 FMN201      0.0000 
     25 O4'       -36.9830   73.8540   -1.4250 O.3       1 FMN201      0.0000 
     26 C5'       -38.1200   71.7760   -2.0700 C.3       1 FMN201      0.0000 
     27 O5'       -39.1010   71.5080   -1.0350 O.3       1 FMN201      0.0000 
     28 P         -40.1320   72.6650   -0.6610 P.3       1 FMN201      0.0000 
     29 O1P       -40.9610   73.0410   -1.8360 O.co2     1 FMN201      0.0000 
     30 O2P       -40.9330   72.1450    0.5260 O.co2     1 FMN201      0.0000 
     31 O3P       -39.2860   73.8350   -0.1550 O.co2     1 FMN201      0.0000 
@<TRIPOS>BOND
     1    1    2 1    
     2    1   18 2    
     3    2    3 2    
     4    2    4 am   
     5    4    5 am   
     6    5    6 2    
     7    5    7 1    
     8    7    8 2    
     9    7   18 1    
    10    8    9 1    
    11    9   10 ar   
    12    9   16 ar   
    13   10   11 ar   
    14   11   12 1    
    15   11   13 ar   
    16   13   14 1    
    17   13   15 ar   
    18   15   16 ar   
    19   16   17 1    
    20   17   18 1    
    21   17   19 1    
    22   19   20 1    
    23   20   21 1    
    24   20   22 1    
    25   22   23 1    
    26   22   24 1    
    27   24   25 1    
    28   24   26 1    
    29   26   27 1    
    30   27   28 1    
    31   28   29 ar   
    32   28   30 ar   
    33   28   31 ar   
@<TRIPOS>SUBSTRUCTURE
     1 FMN201      1 GROUP   
@<TRIPOS>SET
ATOM$ORANGE STATIC     ATOMS   COLORGROUP SYSTEM 
34 2 2 5 5 7 7 9 9 10 10 11 11 12 12 13 13 14 \
14 15 15 16 16 18 18 19 19 20 20 22 22 24 24 26 26 

