#    Name: 6sd8_2_FAD
#    Modification time : Fri May 22 19:32:55 2020

@<TRIPOS>MOLECULE
6sd8_2_FAD
   53    58     1     0     1
SMALL
NO_CHARGES


@<TRIPOS>ATOM
      1 PA        -14.8780   66.4660   94.4720 P.3       1 FAD601      0.0000 
      2 O1A       -15.9150   65.4330   94.6240 O.co2     1 FAD601      0.0000 
      3 O2A       -13.5010   66.0980   94.1240 O.co2     1 FAD601      0.0000 
      4 O5B       -15.3990   67.5420   93.4330 O.3       1 FAD601      0.0000 
      5 C5B       -14.4890   68.2090   92.5700 C.3       1 FAD601      0.0000 
      6 C4B       -15.2630   68.6840   91.3700 C.3       1 FAD601      0.0000 
      7 O4B       -15.7460   67.5260   90.6490 O.3       1 FAD601      0.0000 
      8 C3B       -16.5070   69.5240   91.6900 C.3       1 FAD601      0.0000 
      9 O3B       -16.4980   70.7410   90.9750 O.3       1 FAD601      0.0000 
     10 C2B       -17.6860   68.6830   91.2000 C.3       1 FAD601      0.0000 
     11 O2B       -18.7460   69.4190   90.6520 O.3       1 FAD601      0.0000 
     12 C1B       -17.0190   67.8220   90.1430 C.3       1 FAD601      0.0000 
     13 N9A       -17.7170   66.5950   89.8790 N.pl3     1 FAD601      0.0000 
     14 C8A       -17.7100   65.4740   90.6040 C.2       1 FAD601      0.0000 
     15 N7A       -18.4540   64.5310   90.0830 N.2       1 FAD601      0.0000 
     16 C5A       -18.9790   65.0920   88.9340 C.ar      1 FAD601      0.0000 
     17 C6A       -19.8300   64.6110   87.9260 C.ar      1 FAD601      0.0000 
     18 N6A       -20.3630   63.3960   87.9210 N.pl3     1 FAD601      0.0000 
     19 N1A       -20.1360   65.4560   86.9240 N.ar      1 FAD601      0.0000 
     20 C2A       -19.6240   66.6850   86.9410 C.ar      1 FAD601      0.0000 
     21 N3A       -18.8110   67.2330   87.8260 N.ar      1 FAD601      0.0000 
     22 C4A       -18.5270   66.3730   88.8030 C.ar      1 FAD601      0.0000 
     23 N1        -17.5060   66.6800  104.6170 N.2       1 FAD601      0.0000 
     24 C2        -17.9530   65.8730  105.5720 C.2       1 FAD601      0.0000 
     25 O2        -18.2120   64.7180  105.3240 O.2       1 FAD601      0.0000 
     26 N3        -18.1540   66.2940  106.8350 N.am      1 FAD601      0.0000 
     27 C4        -17.8880   67.5820  107.2170 C.2       1 FAD601      0.0000 
     28 O4        -18.0760   67.9010  108.3710 O.2       1 FAD601      0.0000 
     29 C4X       -17.4280   68.4870  106.2190 C.2       1 FAD601      0.0000 
     30 N5        -17.1720   69.7350  106.5300 N.2       1 FAD601      0.0000 
     31 C5X       -16.7450   70.5610  105.5260 C.ar      1 FAD601      0.0000 
     32 C6        -16.4670   71.9020  105.8210 C.ar      1 FAD601      0.0000 
     33 C7        -16.0340   72.7690  104.8530 C.ar      1 FAD601      0.0000 
     34 C7M       -15.7360   74.1990  105.2070 C.3       1 FAD601      0.0000 
     35 C8        -15.8810   72.3350  103.5430 C.ar      1 FAD601      0.0000 
     36 C8M       -15.4240   73.2860  102.4710 C.3       1 FAD601      0.0000 
     37 C9        -16.1230   71.0210  103.2340 C.ar      1 FAD601      0.0000 
     38 C9A       -16.5680   70.1170  104.2030 C.ar      1 FAD601      0.0000 
     39 N10       -16.8430   68.7840  103.9220 N.pl3     1 FAD601      0.0000 
     40 C10       -17.2640   67.9330  104.9080 C.2       1 FAD601      0.0000 
     41 C1'       -16.5630   68.2420  102.5840 C.3       1 FAD601      0.0000 
     42 C2'       -17.5940   68.4670  101.5350 C.3       1 FAD601      0.0000 
     43 O2'       -18.6900   67.6400  101.8130 O.3       1 FAD601      0.0000 
     44 C3'       -16.9190   68.0410  100.2270 C.3       1 FAD601      0.0000 
     45 O3'       -16.0260   69.0220   99.7900 O.3       1 FAD601      0.0000 
     46 C4'       -17.8780   67.7510   99.0800 C.3       1 FAD601      0.0000 
     47 O4'       -18.6550   66.6130   99.4270 O.3       1 FAD601      0.0000 
     48 C5'       -17.1810   67.5680   97.7510 C.3       1 FAD601      0.0000 
     49 O5'       -16.2290   66.4990   97.7780 O.3       1 FAD601      0.0000 
     50 P         -14.7370   66.7620   97.3200 P.3       1 FAD601      0.0000 
     51 O1P       -14.1600   67.8200   98.1700 O.co2     1 FAD601      0.0000 
     52 O2P       -14.0060   65.4880   97.2760 O.co2     1 FAD601      0.0000 
     53 O3P       -14.8620   67.2950   95.8350 O.3       1 FAD601      0.0000 
@<TRIPOS>BOND
     1    1    2 ar   
     2    1    3 ar   
     3    1    4 1    
     4    1   53 1    
     5    4    5 1    
     6    5    6 1    
     7    6    7 1    
     8    6    8 1    
     9    7   12 1    
    10    8    9 1    
    11    8   10 1    
    12   10   11 1    
    13   10   12 1    
    14   12   13 1    
    15   13   14 1    
    16   13   22 1    
    17   14   15 2    
    18   15   16 1    
    19   16   17 ar   
    20   16   22 ar   
    21   17   18 1    
    22   17   19 ar   
    23   19   20 ar   
    24   20   21 ar   
    25   21   22 ar   
    26   23   24 1    
    27   23   40 2    
    28   24   25 2    
    29   24   26 am   
    30   26   27 am   
    31   27   28 2    
    32   27   29 1    
    33   29   30 2    
    34   29   40 1    
    35   30   31 1    
    36   31   32 ar   
    37   31   38 ar   
    38   32   33 ar   
    39   33   34 1    
    40   33   35 ar   
    41   35   36 1    
    42   35   37 ar   
    43   37   38 ar   
    44   38   39 1    
    45   39   40 1    
    46   39   41 1    
    47   41   42 1    
    48   42   43 1    
    49   42   44 1    
    50   44   45 1    
    51   44   46 1    
    52   46   47 1    
    53   46   48 1    
    54   48   49 1    
    55   49   50 1    
    56   50   51 ar   
    57   50   52 ar   
    58   50   53 1    
@<TRIPOS>SUBSTRUCTURE
     1 FAD601      1 GROUP   
@<TRIPOS>SET
ATOM$ORANGE STATIC     ATOMS   COLORGROUP SYSTEM 
54 5 5 6 6 8 8 10 10 12 12 14 14 16 16 17 17 20 \
20 22 22 24 24 27 27 29 29 31 31 32 32 33 33 34 34 35 \
35 36 36 37 37 38 38 40 40 41 41 42 42 44 44 46 46 48 \
48 

