#    Name: 6sd8_1_FAD
#    Modification time : Fri May 22 19:32:46 2020

@<TRIPOS>MOLECULE
6sd8_1_FAD
   53    58     1     0     1
SMALL
NO_CHARGES


@<TRIPOS>ATOM
      1 PA        -17.0120  104.7240   96.3260 P.3       1 FAD601      0.0000 
      2 O1A       -16.7050  105.7250   95.3000 O.co2     1 FAD601      0.0000 
      3 O2A       -17.5540  105.1510   97.6220 O.co2     1 FAD601      0.0000 
      4 O5B       -17.9610  103.6240   95.6880 O.3       1 FAD601      0.0000 
      5 C5B       -19.0060  103.0580   96.4800 C.3       1 FAD601      0.0000 
      6 C4B       -20.0750  102.5600   95.5480 C.3       1 FAD601      0.0000 
      7 O4B       -20.7060  103.7230   94.9700 O.3       1 FAD601      0.0000 
      8 C3B       -19.5530  101.7380   94.3640 C.3       1 FAD601      0.0000 
      9 O3B       -20.1880  100.4830   94.2170 O.3       1 FAD601      0.0000 
     10 C2B       -19.8600  102.5940   93.1400 C.3       1 FAD601      0.0000 
     11 O2B       -20.1240  101.8520   91.9810 O.3       1 FAD601      0.0000 
     12 C1B       -21.0110  103.4500   93.6330 C.3       1 FAD601      0.0000 
     13 N9A       -21.0860  104.6950   92.9130 N.pl3     1 FAD601      0.0000 
     14 C8A       -20.2800  105.7560   93.0200 C.2       1 FAD601      0.0000 
     15 N7A       -20.6130  106.7340   92.2190 N.2       1 FAD601      0.0000 
     16 C5A       -21.7230  106.2640   91.5470 C.ar      1 FAD601      0.0000 
     17 C6A       -22.5600  106.8220   90.5720 C.ar      1 FAD601      0.0000 
     18 N6A       -22.3970  108.0360   90.0760 N.pl3     1 FAD601      0.0000 
     19 N1A       -23.5830  106.0650   90.1300 N.ar      1 FAD601      0.0000 
     20 C2A       -23.7440  104.8400   90.6310 C.ar      1 FAD601      0.0000 
     21 N3A       -23.0310  104.2220   91.5570 N.ar      1 FAD601      0.0000 
     22 C4A       -22.0280  104.9990   91.9750 C.ar      1 FAD601      0.0000 
     23 N1         -6.5850  104.4160   95.2740 N.2       1 FAD601      0.0000 
     24 C2         -5.5520  105.1990   94.9690 C.2       1 FAD601      0.0000 
     25 O2         -5.7260  106.3650   94.6670 O.2       1 FAD601      0.0000 
     26 N3         -4.2910  104.7590   95.0060 N.am      1 FAD601      0.0000 
     27 C4         -3.9760  103.4740   95.3490 C.2       1 FAD601      0.0000 
     28 O4         -2.8170  103.1340   95.3740 O.2       1 FAD601      0.0000 
     29 C4X        -5.0400  102.6020   95.6600 C.2       1 FAD601      0.0000 
     30 N5         -4.7870  101.3650   95.9950 N.2       1 FAD601      0.0000 
     31 C5X        -5.8510  100.5580   96.2820 C.ar      1 FAD601      0.0000 
     32 C6         -5.6160   99.2210   96.6360 C.ar      1 FAD601      0.0000 
     33 C7         -6.6470   98.3730   96.9370 C.ar      1 FAD601      0.0000 
     34 C7M        -6.3470   96.9490   97.3020 C.3       1 FAD601      0.0000 
     35 C8         -7.9670   98.8180   96.8440 C.ar      1 FAD601      0.0000 
     36 C8M        -9.1190   97.8980   97.1400 C.3       1 FAD601      0.0000 
     37 C9         -8.2170  100.1200   96.5210 C.ar      1 FAD601      0.0000 
     38 C9A        -7.1780  101.0070   96.2220 C.ar      1 FAD601      0.0000 
     39 N10        -7.4020  102.3310   95.8740 N.pl3     1 FAD601      0.0000 
     40 C10        -6.3530  103.1690   95.5930 C.2       1 FAD601      0.0000 
     41 C1'        -8.7620  102.8790   95.9410 C.3       1 FAD601      0.0000 
     42 C2'        -9.6450  102.6480   94.7830 C.3       1 FAD601      0.0000 
     43 O2'        -9.2240  103.4580   93.7370 O.3       1 FAD601      0.0000 
     44 C3'       -11.0260  103.1020   95.2660 C.3       1 FAD601      0.0000 
     45 O3'       -11.5690  102.1290   96.0960 O.3       1 FAD601      0.0000 
     46 C4'       -12.0120  103.3890   94.1420 C.3       1 FAD601      0.0000 
     47 O4'       -11.5700  104.5460   93.4480 O.3       1 FAD601      0.0000 
     48 C5'       -13.4260  103.5670   94.6390 C.3       1 FAD601      0.0000 
     49 O5'       -13.5050  104.6300   95.6070 O.3       1 FAD601      0.0000 
     50 P         -14.2390  104.3910   96.9830 P.3       1 FAD601      0.0000 
     51 O1P       -13.5630  103.2890   97.6850 O.co2     1 FAD601      0.0000 
     52 O2P       -14.3980  105.6740   97.6770 O.co2     1 FAD601      0.0000 
     53 O3P       -15.6860  103.9000   96.5940 O.3       1 FAD601      0.0000 
@<TRIPOS>BOND
     1    1    2 ar   
     2    1    3 ar   
     3    1    4 1    
     4    1   53 1    
     5    4    5 1    
     6    5    6 1    
     7    6    7 1    
     8    6    8 1    
     9    7   12 1    
    10    8    9 1    
    11    8   10 1    
    12   10   11 1    
    13   10   12 1    
    14   12   13 1    
    15   13   14 1    
    16   13   22 1    
    17   14   15 2    
    18   15   16 1    
    19   16   17 ar   
    20   16   22 ar   
    21   17   18 1    
    22   17   19 ar   
    23   19   20 ar   
    24   20   21 ar   
    25   21   22 ar   
    26   23   24 1    
    27   23   40 2    
    28   24   25 2    
    29   24   26 am   
    30   26   27 am   
    31   27   28 2    
    32   27   29 1    
    33   29   30 2    
    34   29   40 1    
    35   30   31 1    
    36   31   32 ar   
    37   31   38 ar   
    38   32   33 ar   
    39   33   34 1    
    40   33   35 ar   
    41   35   36 1    
    42   35   37 ar   
    43   37   38 ar   
    44   38   39 1    
    45   39   40 1    
    46   39   41 1    
    47   41   42 1    
    48   42   43 1    
    49   42   44 1    
    50   44   45 1    
    51   44   46 1    
    52   46   47 1    
    53   46   48 1    
    54   48   49 1    
    55   49   50 1    
    56   50   51 ar   
    57   50   52 ar   
    58   50   53 1    
@<TRIPOS>SUBSTRUCTURE
     1 FAD601      1 GROUP   
@<TRIPOS>SET
ATOM$ORANGE STATIC     ATOMS   COLORGROUP SYSTEM 
54 5 5 6 6 8 8 10 10 12 12 14 14 16 16 17 17 20 \
20 22 22 24 24 27 27 29 29 31 31 32 32 33 33 34 34 35 \
35 36 36 37 37 38 38 40 40 41 41 42 42 44 44 46 46 48 \
48 

