#    Name: 5yht_2_HSO
#    Modification time : Fri May 22 19:18:21 2020

@<TRIPOS>MOLECULE
5yht_2_HSO
   10    10     1     0     0
SMALL
NO_CHARGES


@<TRIPOS>ATOM
      1 N         -40.0210   29.5560   14.0040 N.4       1 HSO301      0.0000 
      2 CA        -41.0620   29.6450   12.9300 C.3       1 HSO301      0.0000 
      3 CB        -41.4630   31.1170   12.7740 C.3       1 HSO301      0.0000 
      4 CG        -41.7390   31.7670   14.0860 C.2       1 HSO301      0.0000 
      5 ND1       -42.4840   32.9260   14.1990 N.2       1 HSO301      0.0000 
      6 CD2       -41.3730   31.4350   15.3410 C.2       1 HSO301      0.0000 
      7 CE1       -42.6240   33.2240   15.4840 C.2       1 HSO301      0.0000 
      8 NE2       -41.9590   32.3380   16.1930 N.pl3     1 HSO301      0.0000 
      9 C         -40.4910   29.0730   11.6190 C.3       1 HSO301      0.0000 
     10 O         -41.4640   29.0550   10.5750 O.3       1 HSO301      0.0000 
@<TRIPOS>BOND
     1    1    2 1    
     2    2    3 1    
     3    2    9 1    
     4    3    4 1    
     5    4    5 1    
     6    4    6 2    
     7    5    7 2    
     8    6    8 1    
     9    7    8 1    
    10    9   10 1    
@<TRIPOS>SUBSTRUCTURE
     1 HSO301      1 GROUP   
@<TRIPOS>SET

