#    Name: 6nh1_3_H4B
#    Modification time : Fri May 22 19:32:23 2020

@<TRIPOS>MOLECULE
6nh1_3_H4B
   17    18     1     0     1
SMALL
NO_CHARGES


@<TRIPOS>ATOM
      1 N1        102.4850  -17.9410 -213.3090 N.2       1 H4B502      0.0000 
      2 C2        102.9510  -16.7910 -213.8460 C.2       1 H4B502      0.0000 
      3 N2        102.0980  -15.7530 -214.0150 N.pl3     1 H4B502      0.0000 
      4 N3        104.2470  -16.6700 -214.2170 N.am      1 H4B502      0.0000 
      5 C4        105.1080  -17.6960 -214.0530 C.2       1 H4B502      0.0000 
      6 O4        106.3050  -17.5810 -214.4000 O.2       1 H4B502      0.0000 
      7 C4A       104.6450  -18.8800 -213.5060 C.2       1 H4B502      0.0000 
      8 C8A       103.3100  -18.9970 -213.1330 C.2       1 H4B502      0.0000 
      9 N5        105.4520  -19.9490 -213.3380 N.3       1 H4B502      0.0000 
     10 N8        102.8380  -20.1630 -212.5930 N.pl3     1 H4B502      0.0000 
     11 C6        104.7260  -21.1900 -213.5250 C.3       1 H4B502      0.0000 
     12 C7        103.7130  -21.3110 -212.3930 C.3       1 H4B502      0.0000 
     13 C9        105.6550  -22.3750 -213.7680 C.3       1 H4B502      0.0000 
     14 O9        107.0220  -21.9810 -213.5630 O.3       1 H4B502      0.0000 
     15 C10       105.2670  -23.5810 -212.9280 C.3       1 H4B502      0.0000 
     16 C11       106.2790  -24.7080 -213.0950 C.3       1 H4B502      0.0000 
     17 O10       103.9660  -24.0470 -213.3130 O.3       1 H4B502      0.0000 
@<TRIPOS>BOND
     1    1    2 2    
     2    1    8 1    
     3    2    3 1    
     4    2    4 1    
     5    4    5 am   
     6    5    6 2    
     7    5    7 1    
     8    7    8 2    
     9    7    9 1    
    10    8   10 1    
    11    9   11 1    
    12   10   12 1    
    13   11   12 1    
    14   11   13 1    
    15   13   14 1    
    16   13   15 1    
    17   15   16 1    
    18   15   17 1    
@<TRIPOS>SUBSTRUCTURE
     1 H4B502      1 GROUP   
@<TRIPOS>SET
ATOM$ORANGE STATIC     ATOMS   COLORGROUP SYSTEM 
18 2 2 5 5 7 7 8 8 11 11 12 12 13 13 15 15 16 \
16 

