#    Name: 6nh1_2_H4B_CAVITY_N1_8
#    Modification time : Fri May 22 19:32:11 2020

@<TRIPOS>MOLECULE
6nh1_2_H4B_CAVITY_N1_8
   92     0     6     0     0
SMALL
NO_CHARGES


@<TRIPOS>ATOM
      1 N          70.5300    9.6800 -165.3600 N.am      1 ALA2        0.0000 
      2 O          70.4400    8.6500 -164.2700 O.2       1 ALA2        0.0000 
      3 O          70.3400    7.6300 -163.1700 O.2       1 ALA2        0.0000 
      4 N          72.2300   12.3000 -168.9300 N.am      1 ALA2        0.0000 
      5 N          72.1300   11.2800 -167.8300 N.am      1 ALA2        0.0000 
      6 N          72.0400   10.2600 -166.7400 N.am      1 ALA2        0.0000 
      7 N          72.8400   14.3300 -169.0300 N.am      1 ALA2        0.0000 
      8 N          72.7400   13.3100 -167.9400 N.am      1 ALA2        0.0000 
      9 N          72.6400   12.2900 -166.8500 N.am      1 ALA2        0.0000 
     10 N          72.5500   11.2700 -165.7500 N.am      1 ALA2        0.0000 
     11 N          72.4500   10.2500 -164.6600 N.am      1 ALA2        0.0000 
     12 N          72.3600    9.2300 -163.5600 N.am      1 ALA2        0.0000 
     13 N          73.3500   15.3400 -168.0500 N.am      1 ALA2        0.0000 
     14 N          73.9500   17.3700 -168.1600 N.am      1 ALA2        0.0000 
     15 O          74.4600   18.3800 -167.1700 O.2       1 ALA2        0.0000 
     16 N          75.9700   18.9700 -168.5500 N.am      1 ALA2        0.0000 
     17 O          75.7800   16.9200 -166.3600 O.2       1 ALA2        0.0000 
     18 N          73.6600   20.8500 -167.0000 N.am      1 ALA2        0.0000 
     19 O          73.5700   19.8200 -165.9000 O.2       1 ALA2        0.0000 
     20 N          75.0700   20.4100 -167.2800 N.am      1 ALA2        0.0000 
     21 O          74.9800   19.3900 -166.1900 O.2       1 ALA2        0.0000 
     22 N          76.4800   19.9800 -167.5600 N.am      1 ALA2        0.0000 
     23 N          77.8900   19.5400 -167.8500 N.am      1 ALA2        0.0000 
     24 OD1        73.4400    9.8300 -167.0200 O.co2     2 ASP3        0.0000 
     25 OD1        73.3500    8.8000 -165.9300 O.co2     2 ASP3        0.0000 
     26 OD1        74.9500   10.4100 -168.4000 O.co2     2 ASP3        0.0000 
     27 OD1        73.9600   10.8300 -166.0400 O.co2     2 ASP3        0.0000 
     28 OD1        73.8600    9.8100 -164.9400 O.co2     2 ASP3        0.0000 
     29 OD1        75.4600   11.4200 -167.4100 O.co2     2 ASP3        0.0000 
     30 OD1        74.2700    9.8000 -162.8600 O.co2     2 ASP3        0.0000 
     31 OD1        75.9700   12.4300 -166.4300 O.co2     2 ASP3        0.0000 
     32 OD1        75.8700   11.4100 -165.3300 O.co2     2 ASP3        0.0000 
     33 NZ         71.2400    6.1900 -164.4400 N.4       3 LYS4        0.0000 
     34 NZ         71.7500    7.2000 -163.4600 N.4       3 LYS4        0.0000 
     35 NZ         73.2500    7.7800 -164.8300 N.4       3 LYS4        0.0000 
     36 NZ         73.7600    8.7900 -163.8500 N.4       3 LYS4        0.0000 
     37 CZ         74.2400   13.9000 -169.3200 C.ar      4 PHE5        0.0000 
     38 CZ         75.6500   13.4600 -169.6000 C.ar      4 PHE5        0.0000 
     39 CZ         73.1500   13.3000 -165.8600 C.ar      4 PHE5        0.0000 
     40 CZ         72.9600   11.2600 -163.6700 C.ar      4 PHE5        0.0000 
     41 CZ         74.7500   14.9100 -168.3300 C.ar      4 PHE5        0.0000 
     42 CZ         74.5600   12.8600 -166.1400 C.ar      4 PHE5        0.0000 
     43 CZ         74.4700   11.8400 -165.0500 C.ar      4 PHE5        0.0000 
     44 CZ         74.3700   10.8200 -163.9600 C.ar      4 PHE5        0.0000 
     45 CZ         76.1600   14.4700 -168.6200 C.ar      4 PHE5        0.0000 
     46 CZ         75.3600   16.9400 -168.4400 C.ar      4 PHE5        0.0000 
     47 CZ         75.2600   15.9200 -167.3500 C.ar      4 PHE5        0.0000 
     48 CZ         75.1700   14.8900 -166.2500 C.ar      4 PHE5        0.0000 
     49 CZ         75.0700   13.8700 -165.1600 C.ar      4 PHE5        0.0000 
     50 CZ         76.6700   15.4800 -167.6300 C.ar      4 PHE5        0.0000 
     51 CZ         76.4800   13.4400 -165.4400 C.ar      4 PHE5        0.0000 
     52 CZ         73.0600   18.8200 -166.8900 C.ar      4 PHE5        0.0000 
     53 CZ         74.5600   19.4000 -168.2700 C.ar      4 PHE5        0.0000 
     54 CZ         75.8700   17.9500 -167.4500 C.ar      4 PHE5        0.0000 
     55 CZ         77.2800   17.5100 -167.7400 C.ar      4 PHE5        0.0000 
     56 CZ         78.6900   17.0700 -168.0200 C.ar      4 PHE5        0.0000 
     57 CZ         76.2900   17.9300 -165.3700 C.ar      4 PHE5        0.0000 
     58 CZ         79.2000   18.0800 -167.0400 C.ar      4 PHE5        0.0000 
     59 CZ         78.4000   20.5500 -166.8600 C.ar      4 PHE5        0.0000 
     60 CA         70.0200    8.6700 -166.3500 C.3       5 GLY6        0.0000 
     61 CA         71.6200   10.2700 -168.8200 C.3       5 GLY6        0.0000 
     62 CA         71.5300    9.2500 -167.7200 C.3       5 GLY6        0.0000 
     63 CA         71.4300    8.2300 -166.6300 C.3       5 GLY6        0.0000 
     64 CA         71.3300    7.2100 -165.5400 C.3       5 GLY6        0.0000 
     65 CA         73.0300    9.8400 -169.1000 C.3       5 GLY6        0.0000 
     66 CA         72.9300    8.8200 -168.0100 C.3       5 GLY6        0.0000 
     67 CA         72.8400    7.8000 -166.9100 C.3       5 GLY6        0.0000 
     68 CA         74.4400    9.4000 -169.3900 C.3       5 GLY6        0.0000 
     69 CA         74.3400    8.3800 -168.2900 C.3       5 GLY6        0.0000 
     70 CA         73.6400   11.8700 -169.2100 C.3       5 GLY6        0.0000 
     71 CA         73.5400   10.8500 -168.1200 C.3       5 GLY6        0.0000 
     72 CA         75.0400   11.4300 -169.4900 C.3       5 GLY6        0.0000 
     73 CA         70.8500    8.6400 -162.1900 C.3       5 GLY6        0.0000 
     74 CA         73.2500   14.3200 -166.9500 C.3       5 GLY6        0.0000 
     75 CA         73.1500   19.8400 -167.9800 C.3       5 GLY6        0.0000 
     76 CA         76.3800   18.9500 -166.4700 C.3       5 GLY6        0.0000 
     77 CA         77.7900   18.5200 -166.7500 C.3       5 GLY6        0.0000 
     78 CA         77.6900   17.5000 -165.6600 C.3       5 GLY6        0.0000 
     79 CA         79.2900   19.1000 -168.1300 C.3       5 GLY6        0.0000 
     80 CA         75.4900   20.4000 -165.2000 C.3       5 GLY6        0.0000 
     81 CA         76.9900   20.9800 -166.5800 C.3       5 GLY6        0.0000 
     82 CA         78.3000   19.5300 -165.7700 C.3       5 GLY6        0.0000 
     83 DU         71.9400    9.2400 -165.6400 H         6 CUB7        0.0000 
     84 DU         71.8500    8.2200 -164.5500 H         6 CUB7        0.0000 
     85 DU         72.2600    8.2100 -162.4700 H         6 CUB7        0.0000 
     86 DU         74.1500   12.8800 -168.2200 H         6 CUB7        0.0000 
     87 DU         74.0500   11.8600 -167.1300 H         6 CUB7        0.0000 
     88 DU         75.5500   12.4400 -168.5100 H         6 CUB7        0.0000 
     89 DU         74.6600   13.8900 -167.2400 H         6 CUB7        0.0000 
     90 DU         76.0600   13.4500 -167.5200 H         6 CUB7        0.0000 
     91 DU         76.5800   14.4600 -166.5400 H         6 CUB7        0.0000 
     92 DU         77.1800   16.4900 -166.6400 H         6 CUB7        0.0000 
@<TRIPOS>BOND
@<TRIPOS>SUBSTRUCTURE
     1 ALA2        1 GROUP   
     2 ASP3       24 GROUP   
     3 LYS4       33 GROUP   
     4 PHE5       37 GROUP   
     5 GLY6       60 GROUP   
     6 CUB7       83 GROUP   
@<TRIPOS>SET

