#    Name: 6nh1_3_H4B_CAVITY_N1_4
#    Modification time : Fri May 22 19:32:24 2020

@<TRIPOS>MOLECULE
6nh1_3_H4B_CAVITY_N1_4
   66     0     6     0     0
SMALL
NO_CHARGES


@<TRIPOS>ATOM
      1 N         103.1100  -23.7300 -214.2500 N.am      1 ALA2        0.0000 
      2 N         103.0100  -24.7500 -213.1600 N.am      1 ALA2        0.0000 
      3 N         104.5200  -24.1600 -214.5400 N.am      1 ALA2        0.0000 
      4 N         104.4200  -25.1900 -213.4400 N.am      1 ALA2        0.0000 
      5 O         103.7200  -21.7000 -214.3600 O.2       1 ALA2        0.0000 
      6 O         103.5200  -23.7400 -212.1700 O.2       1 ALA2        0.0000 
      7 N         104.9300  -24.1800 -212.4600 N.am      1 ALA2        0.0000 
      8 O         102.9200  -19.2300 -214.1900 O.2       1 ALA2        0.0000 
      9 N         102.8200  -20.2500 -213.0900 N.am      1 ALA2        0.0000 
     10 O         104.2300  -20.6900 -213.3800 O.2       1 ALA2        0.0000 
     11 N         105.5400  -22.1500 -212.5700 N.am      1 ALA2        0.0000 
     12 N         100.9000  -14.2900 -215.9200 N.am      1 ALA2        0.0000 
     13 N         102.0200  -17.7900 -212.9200 N.am      1 ALA2        0.0000 
     14 N         103.4300  -18.2200 -213.2000 N.am      1 ALA2        0.0000 
     15 N         100.0000  -12.8400 -214.6500 N.am      1 ALA2        0.0000 
     16 N         101.4100  -13.2800 -214.9300 N.am      1 ALA2        0.0000 
     17 N         101.3200  -14.3000 -213.8400 N.am      1 ALA2        0.0000 
     18 N         102.7200  -14.7400 -214.1200 N.am      1 ALA2        0.0000 
     19 N         102.6300  -15.7600 -213.0300 N.am      1 ALA2        0.0000 
     20 N         102.5300  -16.7800 -211.9300 N.am      1 ALA2        0.0000 
     21 OD1       104.2200  -14.1500 -215.5000 O.co2     2 ASP3        0.0000 
     22 OD1       104.1300  -15.1700 -214.4000 O.co2     2 ASP3        0.0000 
     23 OD1       103.3300  -12.7100 -214.2300 O.co2     2 ASP3        0.0000 
     24 OD1       103.2300  -13.7300 -213.1300 O.co2     2 ASP3        0.0000 
     25 OD1       104.5400  -15.1900 -212.3200 O.co2     2 ASP3        0.0000 
     26 OD1       103.7400  -12.7200 -212.1500 O.co2     2 ASP3        0.0000 
     27 NZ        102.9100  -12.6900 -216.3100 N.4       3 LYS4        0.0000 
     28 CZ        103.6200  -22.7200 -213.2700 C.ar      4 PHE5        0.0000 
     29 CZ        102.7200  -21.2800 -212.0000 C.ar      4 PHE5        0.0000 
     30 CZ        104.3200  -19.6700 -214.4700 C.ar      4 PHE5        0.0000 
     31 CZ        104.1300  -21.7100 -212.2800 C.ar      4 PHE5        0.0000 
     32 CZ        108.4500  -22.0000 -214.2300 C.ar      4 PHE5        0.0000 
     33 CZ        102.4000  -13.7000 -217.2900 C.ar      4 PHE5        0.0000 
     34 CZ        102.3100  -14.7200 -216.2000 C.ar      4 PHE5        0.0000 
     35 CZ        102.2100  -15.7500 -215.1100 C.ar      4 PHE5        0.0000 
     36 CZ        103.5200  -17.2000 -214.2900 C.ar      4 PHE5        0.0000 
     37 CZ        103.3300  -19.2500 -212.1100 C.ar      4 PHE5        0.0000 
     38 CZ        104.9300  -17.6400 -214.5800 C.ar      4 PHE5        0.0000 
     39 CZ        104.8300  -18.6600 -213.4800 C.ar      4 PHE5        0.0000 
     40 CZ        104.7400  -19.6800 -212.3900 C.ar      4 PHE5        0.0000 
     41 CZ        106.1400  -20.1200 -212.6700 C.ar      4 PHE5        0.0000 
     42 CZ        107.5500  -20.5500 -212.9600 C.ar      4 PHE5        0.0000 
     43 CZ        102.4300  -17.8000 -210.8400 C.ar      4 PHE5        0.0000 
     44 CZ        103.9400  -17.2200 -212.2100 C.ar      4 PHE5        0.0000 
     45 CZ        105.3400  -17.6500 -212.5000 C.ar      4 PHE5        0.0000 
     46 CZ        105.8600  -16.6400 -211.5100 C.ar      4 PHE5        0.0000 
     47 CA        102.2100  -22.2800 -212.9800 C.3       5 GLY6        0.0000 
     48 CA        105.1200  -22.1300 -214.6500 C.3       5 GLY6        0.0000 
     49 CA        105.0300  -23.1600 -213.5500 C.3       5 GLY6        0.0000 
     50 CA        106.4300  -23.5900 -213.8300 C.3       5 GLY6        0.0000 
     51 CA        106.9500  -22.5800 -212.8500 C.3       5 GLY6        0.0000 
     52 CA        102.1200  -16.7700 -214.0100 C.3       5 GLY6        0.0000 
     53 CA        101.9200  -12.2700 -213.9400 C.3       5 GLY6        0.0000 
     54 CA        101.8300  -13.2900 -212.8500 C.3       5 GLY6        0.0000 
     55 CA        101.7300  -14.3200 -211.7600 C.3       5 GLY6        0.0000 
     56 CA        103.1400  -14.7500 -212.0400 C.3       5 GLY6        0.0000 
     57 CA        103.0400  -15.7700 -210.9400 C.3       5 GLY6        0.0000 
     58 CA        104.4500  -16.2100 -211.2300 C.3       5 GLY6        0.0000 
     59 CA        105.9500  -15.6200 -212.6100 C.3       5 GLY6        0.0000 
     60 CA        103.6500  -13.7400 -211.0500 C.3       5 GLY6        0.0000 
     61 CA        105.0600  -14.1800 -211.3400 C.3       5 GLY6        0.0000 
     62 DU        105.6300  -21.1300 -213.6600 H         6 CUB7        0.0000 
     63 DU        106.2400  -19.1000 -213.7700 H         6 CUB7        0.0000 
     64 DU        102.8200  -13.7200 -215.2100 H         6 CUB7        0.0000 
     65 DU        104.0300  -16.1900 -213.3100 H         6 CUB7        0.0000 
     66 DU        105.4400  -16.6300 -213.5900 H         6 CUB7        0.0000 
@<TRIPOS>BOND
@<TRIPOS>SUBSTRUCTURE
     1 ALA2        1 GROUP   
     2 ASP3       21 GROUP   
     3 LYS4       27 GROUP   
     4 PHE5       28 GROUP   
     5 GLY6       47 GROUP   
     6 CUB7       62 GROUP   
@<TRIPOS>SET

