#    Name: 6nh1_1_H4B_CAVITY_N1_4
#    Modification time : Fri May 22 19:31:57 2020

@<TRIPOS>MOLECULE
6nh1_1_H4B_CAVITY_N1_4
   98     0     6     0     0
SMALL
NO_CHARGES


@<TRIPOS>ATOM
      1 N          61.4200   18.4600 -176.4700 N.am      1 ALA2        0.0000 
      2 N          60.5300   19.9000 -175.2000 N.am      1 ALA2        0.0000 
      3 N          60.4300   18.8800 -174.1000 N.am      1 ALA2        0.0000 
      4 N          61.9300   19.4700 -175.4800 N.am      1 ALA2        0.0000 
      5 N          61.0400   20.9100 -174.2100 N.am      1 ALA2        0.0000 
      6 N          60.9400   19.8900 -173.1200 N.am      1 ALA2        0.0000 
      7 O          62.6400   22.5200 -176.6800 O.2       1 ALA2        0.0000 
      8 O          62.5400   21.5000 -175.5900 O.2       1 ALA2        0.0000 
      9 N          62.4400   20.4700 -174.4900 N.am      1 ALA2        0.0000 
     10 N          62.3500   19.4500 -173.4000 N.am      1 ALA2        0.0000 
     11 O          64.0400   22.0800 -176.9700 O.2       1 ALA2        0.0000 
     12 N          63.9500   21.0600 -175.8700 N.am      1 ALA2        0.0000 
     13 N          65.4500   21.6500 -177.2500 N.am      1 ALA2        0.0000 
     14 N          65.3500   20.6300 -176.1500 N.am      1 ALA2        0.0000 
     15 N          67.1400   24.2800 -180.8200 N.am      1 ALA2        0.0000 
     16 N          67.0500   23.2500 -179.7200 N.am      1 ALA2        0.0000 
     17 N          68.5500   23.8400 -181.1000 N.am      1 ALA2        0.0000 
     18 N          68.3600   21.8000 -178.9100 N.am      1 ALA2        0.0000 
     19 N          69.8600   22.3800 -180.2900 N.am      1 ALA2        0.0000 
     20 O          63.0500   22.5000 -174.6000 O.2       1 ALA2        0.0000 
     21 N          62.9500   21.4800 -173.5100 N.am      1 ALA2        0.0000 
     22 O          62.8600   20.4600 -172.4100 O.2       1 ALA2        0.0000 
     23 O          63.5600   23.5100 -173.6200 O.2       1 ALA2        0.0000 
     24 N          63.4700   22.4900 -172.5200 N.am      1 ALA2        0.0000 
     25 OD1        59.2800   19.9400 -181.4400 O.co2     2 ASP3        0.0000 
     26 OD1        59.7900   20.9500 -180.4500 O.co2     2 ASP3        0.0000 
     27 OD1        59.7000   19.9300 -179.3600 O.co2     2 ASP3        0.0000 
     28 OD1        59.6000   18.9100 -178.2600 O.co2     2 ASP3        0.0000 
     29 OD1        60.3000   21.9600 -179.4600 O.co2     2 ASP3        0.0000 
     30 OD1        60.2100   20.9400 -178.3700 O.co2     2 ASP3        0.0000 
     31 OD1        61.8000   22.5400 -180.8400 O.co2     2 ASP3        0.0000 
     32 OD1        61.7100   21.5200 -179.7500 O.co2     2 ASP3        0.0000 
     33 OD1        61.6100   20.5000 -178.6500 O.co2     2 ASP3        0.0000 
     34 OD1        63.2100   22.1100 -181.1300 O.co2     2 ASP3        0.0000 
     35 OD1        64.6200   21.6700 -181.4100 O.co2     2 ASP3        0.0000 
     36 OD1        64.5200   20.6500 -180.3200 O.co2     2 ASP3        0.0000 
     37 OD1        63.6300   22.1000 -179.0500 O.co2     2 ASP3        0.0000 
     38 NZ         64.8100   23.7200 -183.6000 N.4       3 LYS4        0.0000 
     39 NZ         66.7300   24.2900 -182.9000 N.4       3 LYS4        0.0000 
     40 CZ         58.8000   21.3700 -178.0900 C.ar      4 PHE5        0.0000 
     41 CZ         58.7000   20.3500 -176.9900 C.ar      4 PHE5        0.0000 
     42 CZ         60.1100   19.9200 -177.2800 C.ar      4 PHE5        0.0000 
     43 CZ         61.9000   23.5700 -181.9400 C.ar      4 PHE5        0.0000 
     44 CZ         61.5200   19.4800 -177.5600 C.ar      4 PHE5        0.0000 
     45 CZ         63.3100   23.1300 -182.2200 C.ar      4 PHE5        0.0000 
     46 CZ         60.8100   22.9700 -178.4800 C.ar      4 PHE5        0.0000 
     47 CZ         62.3200   23.5500 -179.8600 C.ar      4 PHE5        0.0000 
     48 CZ         62.2200   22.5300 -178.7600 C.ar      4 PHE5        0.0000 
     49 CZ         62.0300   20.4900 -176.5700 C.ar      4 PHE5        0.0000 
     50 CZ         63.9100   25.1600 -182.3300 C.ar      4 PHE5        0.0000 
     51 CZ         63.8200   24.1400 -181.2300 C.ar      4 PHE5        0.0000 
     52 CZ         63.7200   23.1200 -180.1400 C.ar      4 PHE5        0.0000 
     53 CZ         63.5300   21.0700 -177.9500 C.ar      4 PHE5        0.0000 
     54 CZ         63.4400   20.0500 -176.8600 C.ar      4 PHE5        0.0000 
     55 CZ         63.3400   19.0300 -175.7600 C.ar      4 PHE5        0.0000 
     56 CZ         65.3200   24.7200 -182.6100 C.ar      4 PHE5        0.0000 
     57 CZ         65.2300   23.7000 -181.5200 C.ar      4 PHE5        0.0000 
     58 CZ         65.1300   22.6800 -180.4200 C.ar      4 PHE5        0.0000 
     59 CZ         64.9400   20.6400 -178.2400 C.ar      4 PHE5        0.0000 
     60 CZ         66.4400   21.2200 -179.6100 C.ar      4 PHE5        0.0000 
     61 CZ         66.3500   20.2000 -178.5200 C.ar      4 PHE5        0.0000 
     62 CZ         64.1400   23.1000 -178.0600 C.ar      4 PHE5        0.0000 
     63 CZ         63.8500   20.0400 -174.7800 C.ar      4 PHE5        0.0000 
     64 CZ         65.6400   23.6900 -179.4400 C.ar      4 PHE5        0.0000 
     65 CZ         65.5500   22.6700 -178.3400 C.ar      4 PHE5        0.0000 
     66 CZ         67.2400   25.3000 -181.9100 C.ar      4 PHE5        0.0000 
     67 CZ         64.4600   22.0700 -174.8900 C.ar      4 PHE5        0.0000 
     68 CZ         64.3600   21.0500 -173.7900 C.ar      4 PHE5        0.0000 
     69 CA         58.2900   20.3600 -179.0700 C.3       5 GLY6        0.0000 
     70 CA         65.6100   21.2500 -183.7700 C.3       5 GLY6        0.0000 
     71 CA         60.0100   18.8900 -176.1800 C.3       5 GLY6        0.0000 
     72 CA         66.2200   23.2800 -183.8800 C.3       5 GLY6        0.0000 
     73 CA         66.0300   21.2400 -181.6900 C.3       5 GLY6        0.0000 
     74 CA         65.9300   20.2200 -180.6000 C.3       5 GLY6        0.0000 
     75 CA         67.5300   21.8200 -183.0700 C.3       5 GLY6        0.0000 
     76 CA         67.4300   20.8000 -181.9800 C.3       5 GLY6        0.0000 
     77 CA         67.3400   19.7800 -180.8800 C.3       5 GLY6        0.0000 
     78 CA         59.3100   22.3800 -177.1000 C.3       5 GLY6        0.0000 
     79 CA         59.2100   21.3600 -176.0100 C.3       5 GLY6        0.0000 
     80 CA         60.7200   21.9500 -177.3800 C.3       5 GLY6        0.0000 
     81 CA         60.6200   20.9200 -176.2900 C.3       5 GLY6        0.0000 
     82 CA         68.1400   23.8500 -183.1800 C.3       5 GLY6        0.0000 
     83 CA         68.0400   22.8300 -182.0800 C.3       5 GLY6        0.0000 
     84 CA         67.9400   21.8100 -180.9900 C.3       5 GLY6        0.0000 
     85 CA         67.8500   20.7900 -179.9000 C.3       5 GLY6        0.0000 
     86 CA         69.4500   22.4000 -182.3700 C.3       5 GLY6        0.0000 
     87 CA         69.3500   21.3700 -181.2700 C.3       5 GLY6        0.0000 
     88 CA         59.6300   21.3500 -173.9300 C.3       5 GLY6        0.0000 
     89 CA         61.2300   22.9500 -176.4000 C.3       5 GLY6        0.0000 
     90 CA         61.1300   21.9300 -175.3000 C.3       5 GLY6        0.0000 
     91 CA         66.9500   22.2300 -178.6300 C.3       5 GLY6        0.0000 
     92 CA         61.6400   22.9400 -174.3200 C.3       5 GLY6        0.0000 
     93 DU         64.7100   22.6900 -182.5000 H         6 CUB7        0.0000 
     94 DU         66.1200   22.2600 -182.7900 H         6 CUB7        0.0000 
     95 DU         62.1200   21.5100 -177.6700 H         6 CUB7        0.0000 
     96 DU         65.0300   21.6600 -179.3300 H         6 CUB7        0.0000 
     97 DU         66.6300   23.2700 -181.8000 H         6 CUB7        0.0000 
     98 DU         66.5400   22.2500 -180.7100 H         6 CUB7        0.0000 
@<TRIPOS>BOND
@<TRIPOS>SUBSTRUCTURE
     1 ALA2        1 GROUP   
     2 ASP3       25 GROUP   
     3 LYS4       38 GROUP   
     4 PHE5       40 GROUP   
     5 GLY6       69 GROUP   
     6 CUB7       93 GROUP   
@<TRIPOS>SET

