#    Name: 6nh1_1_H4B
#    Modification time : Fri May 22 19:31:56 2020

@<TRIPOS>MOLECULE
6nh1_1_H4B
   17    18     1     0     1
SMALL
NO_CHARGES


@<TRIPOS>ATOM
      1 N1         65.4110   21.1920 -178.8220 N.2       1 H4B501      0.0000 
      2 C2         65.1500   21.5740 -180.0890 C.2       1 H4B501      0.0000 
      3 N2         66.1580   21.6070 -180.9890 N.pl3     1 H4B501      0.0000 
      4 N3         63.8950   21.9180 -180.4550 N.am      1 H4B501      0.0000 
      5 C4         62.8780   21.8840 -179.5630 C.2       1 H4B501      0.0000 
      6 O4         61.7150   22.2060 -179.9090 O.2       1 H4B501      0.0000 
      7 C4A        63.1340   21.4970 -178.2570 C.2       1 H4B501      0.0000 
      8 C8A        64.4210   21.1450 -177.8990 C.2       1 H4B501      0.0000 
      9 N5         62.1410   21.4470 -177.3410 N.3       1 H4B501      0.0000 
     10 N8         64.7000   20.7650 -176.6260 N.pl3     1 H4B501      0.0000 
     11 C6         62.4130   21.3490 -175.9130 C.3       1 H4B501      0.0000 
     12 C7         63.6950   20.5830 -175.5840 C.3       1 H4B501      0.0000 
     13 C9         61.1930   20.7550 -175.2090 C.3       1 H4B501      0.0000 
     14 O9         60.5530   19.8050 -176.0670 O.3       1 H4B501      0.0000 
     15 C10        61.5540   20.0630 -173.9010 C.3       1 H4B501      0.0000 
     16 C11        60.3130   19.4570 -173.2510 C.3       1 H4B501      0.0000 
     17 O10        62.1570   21.0000 -173.0030 O.3       1 H4B501      0.0000 
@<TRIPOS>BOND
     1    1    2 2    
     2    1    8 1    
     3    2    3 1    
     4    2    4 1    
     5    4    5 am   
     6    5    6 2    
     7    5    7 1    
     8    7    8 2    
     9    7    9 1    
    10    8   10 1    
    11    9   11 1    
    12   10   12 1    
    13   11   12 1    
    14   11   13 1    
    15   13   14 1    
    16   13   15 1    
    17   15   16 1    
    18   15   17 1    
@<TRIPOS>SUBSTRUCTURE
     1 H4B501      1 GROUP   
@<TRIPOS>SET
ATOM$ORANGE STATIC     ATOMS   COLORGROUP SYSTEM 
18 2 2 5 5 7 7 8 8 11 11 12 12 13 13 15 15 16 \
16 

