#    Name: 6nh1_2_H4B
#    Modification time : Fri May 22 19:32:10 2020

@<TRIPOS>MOLECULE
6nh1_2_H4B
   17    18     1     0     1
SMALL
NO_CHARGES


@<TRIPOS>ATOM
      1 N1         73.3680   14.5860 -168.1260 N.2       1 H4B503      0.0000 
      2 C2         73.8280   13.3190 -168.0190 C.2       1 H4B503      0.0000 
      3 N2         72.9780   12.2830 -168.2420 N.pl3     1 H4B503      0.0000 
      4 N3         75.1240   13.0960 -167.6940 N.am      1 H4B503      0.0000 
      5 C4         75.9710   14.1300 -167.4730 C.2       1 H4B503      0.0000 
      6 O4         77.1600   13.8930 -167.1760 O.2       1 H4B503      0.0000 
      7 C4A        75.5120   15.4400 -167.5720 C.2       1 H4B503      0.0000 
      8 C8A        74.1830   15.6480 -167.9120 C.2       1 H4B503      0.0000 
      9 N5         76.3240   16.5140 -167.3640 N.3       1 H4B503      0.0000 
     10 N8         73.6880   16.9080 -168.0300 N.pl3     1 H4B503      0.0000 
     11 C6         75.7130   17.8100 -167.0710 C.3       1 H4B503      0.0000 
     12 C7         74.5400   18.0850 -168.0110 C.3       1 H4B503      0.0000 
     13 C9         76.7270   18.9690 -166.9820 C.3       1 H4B503      0.0000 
     14 O9         78.0580   18.5140 -167.2920 O.3       1 H4B503      0.0000 
     15 C10        76.3760   20.2050 -167.8270 C.3       1 H4B503      0.0000 
     16 C11        77.4690   21.2640 -167.7040 C.3       1 H4B503      0.0000 
     17 O10        75.1420   20.8450 -167.4560 O.3       1 H4B503      0.0000 
@<TRIPOS>BOND
     1    1    2 2    
     2    1    8 1    
     3    2    3 1    
     4    2    4 1    
     5    4    5 am   
     6    5    6 2    
     7    5    7 1    
     8    7    8 2    
     9    7    9 1    
    10    8   10 1    
    11    9   11 1    
    12   10   12 1    
    13   11   12 1    
    14   11   13 1    
    15   13   14 1    
    16   13   15 1    
    17   15   16 1    
    18   15   17 1    
@<TRIPOS>SUBSTRUCTURE
     1 H4B503      1 GROUP   
@<TRIPOS>SET
ATOM$ORANGE STATIC     ATOMS   COLORGROUP SYSTEM 
18 2 2 5 5 7 7 8 8 11 11 12 12 13 13 15 15 16 \
16 

