#    Name: 6e1j_2_COA
#    Modification time : Fri May 22 19:34:37 2020

@<TRIPOS>MOLECULE
6e1j_2_COA
   48    50     1     0     1
SMALL
NO_CHARGES


@<TRIPOS>ATOM
      1 N1A        36.2030   59.2960   88.3390 N.ar      1 COA603      0.0000 
      2 C2A        35.9850   60.1010   89.4280 C.ar      1 COA603      0.0000 
      3 N3A        34.7500   60.1730   90.0120 N.ar      1 COA603      0.0000 
      4 C4A        33.7070   59.4500   89.5170 C.ar      1 COA603      0.0000 
      5 C5A        33.9240   58.6660   88.4430 C.ar      1 COA603      0.0000 
      6 C6A        35.1640   58.5900   87.8550 C.ar      1 COA603      0.0000 
      7 N6A        35.8940   57.9700   86.8080 N.pl3     1 COA603      0.0000 
      8 N7A        32.7830   58.0390   88.0990 N.2       1 COA603      0.0000 
      9 C8A        31.8380   58.4450   88.9780 C.2       1 COA603      0.0000 
     10 N9A        32.3880   59.3130   89.8520 N.pl3     1 COA603      0.0000 
     11 C1B        31.6890   59.9290   90.9220 C.3       1 COA603      0.0000 
     12 C2B        30.4520   60.2450   90.5780 C.3       1 COA603      0.0000 
     13 O2B        30.3340   61.4940   89.8510 O.3       1 COA603      0.0000 
     14 C3B        29.7350   60.3810   92.0140 C.3       1 COA603      0.0000 
     15 O3B        30.3440   61.3560   92.8300 O.3       1 COA603      0.0000 
     16 P3B        29.7210   62.8220   92.9060 P.3       1 COA603      0.0000 
     17 O7A        28.2370   62.7960   92.6260 O.co2     1 COA603      0.0000 
     18 O8A        30.3840   63.6430   91.8290 O.co2     1 COA603      0.0000 
     19 O9A        30.0780   63.3600   94.2710 O.co2     1 COA603      0.0000 
     20 C4B        30.0080   59.1880   92.5730 C.3       1 COA603      0.0000 
     21 O4B        31.3380   58.7640   91.9380 O.3       1 COA603      0.0000 
     22 C5B        28.7990   58.3950   92.1630 C.3       1 COA603      0.0000 
     23 O5B        28.7640   57.1310   92.7100 O.3       1 COA603      0.0000 
     24 P1A        27.9620   56.7160   94.0200 P.3       1 COA603      0.0000 
     25 O1A        28.0090   55.2030   93.8780 O.co2     1 COA603      0.0000 
     26 O2A        26.5330   57.1250   94.2040 O.co2     1 COA603      0.0000 
     27 O3A        28.8690   57.2230   95.2080 O.3       1 COA603      0.0000 
     28 P2A        29.2980   56.4350   96.4620 P.3       1 COA603      0.0000 
     29 O4A        30.3350   57.2680   97.1730 O.co2     1 COA603      0.0000 
     30 O5A        28.0820   56.2010   97.3470 O.co2     1 COA603      0.0000 
     31 O6A        29.9000   54.9640   96.0900 O.3       1 COA603      0.0000 
     32 CBP        31.3800   53.3620   95.2370 C.3       1 COA603      0.0000 
     33 CCP        31.0270   54.8570   95.2140 C.3       1 COA603      0.0000 
     34 CDP        31.7320   52.9460   96.6930 C.3       1 COA603      0.0000 
     35 CEP        32.5830   53.0930   94.3060 C.3       1 COA603      0.0000 
     36 CAP        30.1000   52.5520   94.7740 C.3       1 COA603      0.0000 
     37 OAP        29.5570   53.1140   93.6160 O.3       1 COA603      0.0000 
     38 C9P        30.4610   51.1450   94.4960 C.2       1 COA603      0.0000 
     39 O9P        30.6540   50.4040   95.4000 O.2       1 COA603      0.0000 
     40 N8P        30.5660   50.6710   93.1200 N.am      1 COA603      0.0000 
     41 C7P        30.9120   49.2870   92.7460 C.3       1 COA603      0.0000 
     42 C6P        30.5870   49.1100   91.2120 C.3       1 COA603      0.0000 
     43 C5P        30.3660   50.5230   90.6030 C.2       1 COA603      0.0000 
     44 O5P        29.7510   51.3650   91.2240 O.2       1 COA603      0.0000 
     45 N4P        30.8600   50.8980   89.3140 N.am      1 COA603      0.0000 
     46 C3P        31.5710   50.0130   88.5080 C.3       1 COA603      0.0000 
     47 C2P        32.4000   50.8580   87.5140 C.3       1 COA603      0.0000 
     48 S1P        34.1020   50.5550   87.9680 S.3       1 COA603      0.0000 
@<TRIPOS>BOND
     1    1    2 ar   
     2    1    6 ar   
     3    2    3 ar   
     4    3    4 ar   
     5    4    5 ar   
     6    4   10 1    
     7    5    6 ar   
     8    5    8 1    
     9    6    7 1    
    10    8    9 2    
    11    9   10 1    
    12   10   11 1    
    13   11   12 1    
    14   11   21 1    
    15   12   13 1    
    16   12   14 1    
    17   14   15 1    
    18   14   20 1    
    19   15   16 1    
    20   16   17 ar   
    21   16   18 ar   
    22   16   19 ar   
    23   20   21 1    
    24   20   22 1    
    25   22   23 1    
    26   23   24 1    
    27   24   25 ar   
    28   24   26 ar   
    29   24   27 1    
    30   27   28 1    
    31   28   29 ar   
    32   28   30 ar   
    33   28   31 1    
    34   31   33 1    
    35   32   33 1    
    36   32   34 1    
    37   32   35 1    
    38   32   36 1    
    39   36   37 1    
    40   36   38 1    
    41   38   39 2    
    42   38   40 am   
    43   40   41 1    
    44   41   42 1    
    45   42   43 1    
    46   43   44 2    
    47   43   45 am   
    48   45   46 1    
    49   46   47 1    
    50   47   48 1    
@<TRIPOS>SUBSTRUCTURE
     1 COA603      1 GROUP   
@<TRIPOS>SET
ATOM$ORANGE STATIC     ATOMS   COLORGROUP SYSTEM 
42 2 2 4 4 5 5 6 6 9 9 11 11 12 12 14 14 20 \
20 22 22 32 32 33 33 34 34 35 35 36 36 38 38 41 41 42 \
42 43 43 46 46 47 47 

