#    Name: 6e1j_2_COA_CAVITY_N1_12
#    Modification time : Fri May 22 19:34:38 2020

@<TRIPOS>MOLECULE
6e1j_2_COA_CAVITY_N1_12
   87     0     7     0     0
SMALL
NO_CHARGES


@<TRIPOS>ATOM
      1 OG         30.3900   50.5500   95.1600 O.3       1 SER1        0.0000 
      2 N          30.0500   50.8000   93.0800 N.am      2 ALA2        0.0000 
      3 O          30.4700   51.8000   92.0500 O.2       2 ALA2        0.0000 
      4 O          30.0300   53.3800   93.4000 O.2       2 ALA2        0.0000 
      5 O          29.2300   55.2000   92.6600 O.2       2 ALA2        0.0000 
      6 N          28.0200   56.0300   92.9600 N.am      2 ALA2        0.0000 
      7 O          27.1400   56.6000   95.3400 O.2       2 ALA2        0.0000 
      8 N          31.9300   52.0500   97.2500 N.am      2 ALA2        0.0000 
      9 O          28.2800   54.5300   98.1500 O.2       2 ALA2        0.0000 
     10 O          28.7000   55.5300   97.1200 O.2       2 ALA2        0.0000 
     11 O          27.9100   57.3600   96.3900 O.2       2 ALA2        0.0000 
     12 N          32.2700   51.8000   99.3300 N.am      2 ALA2        0.0000 
     13 N          32.6900   52.8100   98.3000 N.am      2 ALA2        0.0000 
     14 N          32.6100   51.5600  101.4100 N.am      2 ALA2        0.0000 
     15 OD1        31.1600   51.3000   96.2100 O.co2     3 ASP3        0.0000 
     16 OD1        29.9400   52.1300   96.5100 O.co2     3 ASP3        0.0000 
     17 OD1        30.0000   55.9600   93.7100 O.co2     3 ASP3        0.0000 
     18 OD1        30.4300   56.9600   92.6800 O.co2     3 ASP3        0.0000 
     19 OD1        32.7800   54.0600   95.1900 O.co2     3 ASP3        0.0000 
     20 OD1        30.2800   51.8800   98.5800 O.co2     3 ASP3        0.0000 
     21 OD1        30.7100   52.8800   97.5500 O.co2     3 ASP3        0.0000 
     22 OD1        31.5600   54.8800   95.4900 O.co2     3 ASP3        0.0000 
     23 OD1        30.7700   56.7100   94.7600 O.co2     3 ASP3        0.0000 
     24 OD1        29.9800   58.5400   94.0200 O.co2     3 ASP3        0.0000 
     25 OD1        33.1200   53.8100   97.2700 O.co2     3 ASP3        0.0000 
     26 OD1        30.6300   51.6300  100.6600 O.co2     3 ASP3        0.0000 
     27 OD1        31.9000   54.6300   97.5700 O.co2     3 ASP3        0.0000 
     28 OD1        32.3300   55.6400   96.5300 O.co2     3 ASP3        0.0000 
     29 OD1        30.2600   54.4600   98.9000 O.co2     3 ASP3        0.0000 
     30 OD1        30.6900   55.4600   97.8700 O.co2     3 ASP3        0.0000 
     31 OD1        31.1100   56.4600   96.8300 O.co2     3 ASP3        0.0000 
     32 OD1        29.8900   57.2800   97.1300 O.co2     3 ASP3        0.0000 
     33 OD1        33.0400   52.5600  100.3800 O.co2     3 ASP3        0.0000 
     34 OD1        31.8200   53.3800  100.6800 O.co2     3 ASP3        0.0000 
     35 OD1        32.2400   54.3800   99.6500 O.co2     3 ASP3        0.0000 
     36 OD1        32.6700   55.3900   98.6100 O.co2     3 ASP3        0.0000 
     37 OD1        33.1000   56.3900   97.5800 O.co2     3 ASP3        0.0000 
     38 OD1        31.0300   55.2100   99.9400 O.co2     3 ASP3        0.0000 
     39 OD1        31.4500   56.2100   98.9100 O.co2     3 ASP3        0.0000 
     40 OD1        31.8800   57.2100   97.8800 O.co2     3 ASP3        0.0000 
     41 OD1        29.3900   55.0300  101.2800 O.co2     3 ASP3        0.0000 
     42 OD1        31.8000   55.9600  100.9900 O.co2     3 ASP3        0.0000 
     43 OD1        32.2200   56.9600   99.9600 O.co2     3 ASP3        0.0000 
     44 NZ         27.9900   58.6100   93.2800 N.4       4 LYS4        0.0000 
     45 CZ         32.0300   50.7300   93.8300 C.ar      5 PHE5        0.0000 
     46 CZ         33.2300   52.4800   93.8400 C.ar      5 PHE5        0.0000 
     47 CZ         29.4900   53.7000   97.8500 C.ar      5 PHE5        0.0000 
     48 CZ         31.0500   52.6300   99.6300 C.ar      5 PHE5        0.0000 
     49 CZ         29.8400   53.4500   99.9300 C.ar      5 PHE5        0.0000 
     50 CZ         31.3900   52.3800  101.7100 C.ar      5 PHE5        0.0000 
     51 CZ         30.1800   53.2000  102.0100 C.ar      5 PHE5        0.0000 
     52 CZ         30.6000   54.2100  100.9800 C.ar      5 PHE5        0.0000 
     53 CA         28.8300   51.6200   93.3800 C.3       6 GLY6        0.0000 
     54 CA         31.2400   52.5500   93.1000 C.3       6 GLY6        0.0000 
     55 CA         29.6000   52.3800   94.4300 C.3       6 GLY6        0.0000 
     56 CA         28.3800   53.2000   94.7300 C.3       6 GLY6        0.0000 
     57 CA         28.8100   54.2000   93.6900 C.3       6 GLY6        0.0000 
     58 CA         27.5900   55.0300   93.9900 C.3       6 GLY6        0.0000 
     59 CA         28.4400   57.0300   91.9300 C.3       6 GLY6        0.0000 
     60 CA         26.8000   56.8500   93.2600 C.3       6 GLY6        0.0000 
     61 CA         32.8000   51.4800   94.8800 C.3       6 GLY6        0.0000 
     62 CA         32.4300   54.3100   93.1100 C.3       6 GLY6        0.0000 
     63 CA         31.2200   55.1300   93.4100 C.3       6 GLY6        0.0000 
     64 CA         28.7300   52.9500   96.8100 C.3       6 GLY6        0.0000 
     65 CA         29.1500   53.9500   95.7700 C.3       6 GLY6        0.0000 
     66 CA         27.9300   54.7800   96.0700 C.3       6 GLY6        0.0000 
     67 CA         28.3600   55.7800   95.0400 C.3       6 GLY6        0.0000 
     68 CA         33.5700   52.2300   95.9200 C.3       6 GLY6        0.0000 
     69 CA         33.9900   53.2300   94.8900 C.3       6 GLY6        0.0000 
     70 DU         30.8200   51.5500   94.1300 H         7 CUB7        0.0000 
     71 DU         31.5800   52.3000   95.1700 H         7 CUB7        0.0000 
     72 DU         32.0100   53.3100   94.1400 H         7 CUB7        0.0000 
     73 DU         30.3700   53.1300   95.4700 H         7 CUB7        0.0000 
     74 DU         30.7900   54.1300   94.4400 H         7 CUB7        0.0000 
     75 DU         29.5800   54.9600   94.7400 H         7 CUB7        0.0000 
     76 DU         28.7800   56.7800   94.0100 H         7 CUB7        0.0000 
     77 DU         29.2100   57.7800   92.9800 H         7 CUB7        0.0000 
     78 DU         27.5700   57.6100   94.3100 H         7 CUB7        0.0000 
     79 DU         32.3500   53.0600   96.2200 H         7 CUB7        0.0000 
     80 DU         31.1400   53.8800   96.5200 H         7 CUB7        0.0000 
     81 DU         29.9200   54.7100   96.8200 H         7 CUB7        0.0000 
     82 DU         30.3400   55.7100   95.7900 H         7 CUB7        0.0000 
     83 DU         29.1300   56.5300   96.0900 H         7 CUB7        0.0000 
     84 DU         29.5500   57.5300   95.0500 H         7 CUB7        0.0000 
     85 DU         28.3400   58.3600   95.3500 H         7 CUB7        0.0000 
     86 DU         31.4800   53.6300   98.6000 H         7 CUB7        0.0000 
     87 DU         30.9500   53.9600  103.0600 H         7 CUB7        0.0000 
@<TRIPOS>BOND
@<TRIPOS>SUBSTRUCTURE
     1 SER1        1 GROUP   
     2 ALA2        2 GROUP   
     3 ASP3       15 GROUP   
     4 LYS4       44 GROUP   
     5 PHE5       45 GROUP   
     6 GLY6       53 GROUP   
     7 CUB7       70 GROUP   
@<TRIPOS>SET

