#    Name: 5mr0_1_PXG
#    Modification time : Fri May 22 19:21:02 2020

@<TRIPOS>MOLECULE
5mr0_1_PXG
   25    26     1     0     0
SMALL
NO_CHARGES


@<TRIPOS>ATOM
      1 N1         24.4830  137.1090   19.5470 N.ar      1 PXG301      0.0000 
      2 C2         23.5920  136.1340   19.1950 C.ar      1 PXG301      0.0000 
      3 C2A        22.1100  136.2890   19.4200 C.3       1 PXG301      0.0000 
      4 C3         24.1060  134.8860   18.5660 C.ar      1 PXG301      0.0000 
      5 O3         23.2760  133.8850   18.1840 O.3       1 PXG301      0.0000 
      6 C5         26.4330  135.9020   18.7660 C.ar      1 PXG301      0.0000 
      7 C6         25.8270  137.0160   19.3580 C.ar      1 PXG301      0.0000 
      8 C5A        27.9290  135.8740   18.5380 C.3       1 PXG301      0.0000 
      9 OP4        28.5970  134.9530   19.3810 O.3       1 PXG301      0.0000 
     10 P          30.0150  134.2920   18.8990 P.3       1 PXG301      0.0000 
     11 OP1        30.9470  135.4900   18.7400 O.co2     1 PXG301      0.0000 
     12 OP2        30.3560  133.4210   20.0760 O.co2     1 PXG301      0.0000 
     13 OP3        29.6910  133.5250   17.6390 O.co2     1 PXG301      0.0000 
     14 C4         25.5710  134.7760   18.3430 C.ar      1 PXG301      0.0000 
     15 C4A        26.1450  133.5680   17.6540 C.3       1 PXG301      0.0000 
     16 C7         23.7540  134.1490   12.0250 C.2       1 PXG301      0.0000 
     17 C8         23.8650  133.4100   13.3220 C.ar      1 PXG301      0.0000 
     18 O2         24.5610  135.0860   11.7950 O.co2     1 PXG301      0.0000 
     19 C9         24.8120  133.8690   14.2260 C.ar      1 PXG301      0.0000 
     20 C10        24.9920  133.2550   15.4540 C.ar      1 PXG301      0.0000 
     21 C11        24.1980  132.1440   15.7660 C.ar      1 PXG301      0.0000 
     22 C12        23.2330  131.6910   14.8570 C.ar      1 PXG301      0.0000 
     23 C13        23.0560  132.3120   13.6300 C.ar      1 PXG301      0.0000 
     24 O8         22.8690  133.8190   11.2080 O.co2     1 PXG301      0.0000 
     25 N9         25.9680  133.7820   16.2360 N.pl3     1 PXG301      0.0000 
@<TRIPOS>BOND
     1    1    2 ar   
     2    1    7 ar   
     3    2    3 1    
     4    2    4 ar   
     5    4    5 1    
     6    4   14 ar   
     7    6    7 ar   
     8    6    8 1    
     9    6   14 ar   
    10    8    9 1    
    11    9   10 1    
    12   10   11 ar   
    13   10   12 ar   
    14   10   13 ar   
    15   14   15 1    
    16   15   25 1    
    17   16   17 1    
    18   16   18 ar   
    19   16   24 ar   
    20   17   19 ar   
    21   17   23 ar   
    22   19   20 ar   
    23   20   21 ar   
    24   20   25 1    
    25   21   22 ar   
    26   22   23 ar   
@<TRIPOS>SUBSTRUCTURE
     1 PXG301      1 GROUP   
@<TRIPOS>SET

