#    Name: 5mr0_2_PXG_CAVITY_N1_4
#    Modification time : Fri May 22 19:21:08 2020

@<TRIPOS>MOLECULE
5mr0_2_PXG_CAVITY_N1_4
   65     0     7     0     0
SMALL
NO_CHARGES


@<TRIPOS>ATOM
      1 OG         -0.6400  119.9400   25.4100 O.3       1 SER1        0.0000 
      2 OG          0.1900  121.8900   25.2700 O.3       1 SER1        0.0000 
      3 OG          2.2200  122.2200   25.7900 O.3       1 SER1        0.0000 
      4 OG          0.5300  126.3700   25.4000 O.3       1 SER1        0.0000 
      5 OG          1.2500  127.2900   26.3500 O.3       1 SER1        0.0000 
      6 OG         -0.0600  127.8800   26.7700 O.3       1 SER1        0.0000 
      7 OG          0.0500  128.9100   25.6800 O.3       1 SER1        0.0000 
      8 OG          2.7100  122.4800   32.3000 O.3       1 SER1        0.0000 
      9 N           0.5600  118.3200   26.0700 N.am      2 ALA2        0.0000 
     10 N           1.3900  120.2700   25.9300 N.am      2 ALA2        0.0000 
     11 O           2.1000  121.1900   26.8800 O.2       2 ALA2        0.0000 
     12 N          -0.5200  122.3700   27.7200 N.am      2 ALA2        0.0000 
     13 N          -0.4100  123.4000   26.6300 N.am      2 ALA2        0.0000 
     14 O           3.7900  118.4300   30.6600 O.2       2 ALA2        0.0000 
     15 O           2.4800  119.0200   31.0800 O.2       2 ALA2        0.0000 
     16 O           2.5900  120.0500   29.9900 O.2       2 ALA2        0.0000 
     17 O           2.7100  121.0800   28.9100 O.2       2 ALA2        0.0000 
     18 N           0.1900  123.2900   28.6600 N.am      2 ALA2        0.0000 
     19 O           4.5100  119.3500   31.6000 O.2       2 ALA2        0.0000 
     20 OD1         0.6700  119.3500   24.9900 O.co2     3 ASP3        0.0000 
     21 OD1         1.5000  121.3000   24.8500 O.co2     3 ASP3        0.0000 
     22 OD1        -1.0100  123.5100   24.6000 O.co2     3 ASP3        0.0000 
     23 OD1        -0.3000  124.4300   25.5500 O.co2     3 ASP3        0.0000 
     24 OD1        -1.6100  125.0200   25.9700 O.co2     3 ASP3        0.0000 
     25 OD1        -0.7800  126.9600   25.8200 O.co2     3 ASP3        0.0000 
     26 OD1        -2.0900  127.5500   26.2500 O.co2     3 ASP3        0.0000 
     27 OD1         1.8800  120.5300   32.4500 O.co2     3 ASP3        0.0000 
     28 NZ         -1.3700  128.4700   27.1900 N.4       4 LYS4        0.0000 
     29 CZ          0.3000  122.9200   24.1800 C.ar      5 PHE5        0.0000 
     30 CZ          2.3300  123.2400   24.7000 C.ar      5 PHE5        0.0000 
     31 CZ          1.0200  123.8400   25.1200 C.ar      5 PHE5        0.0000 
     32 CZ          1.1300  124.8600   24.0400 C.ar      5 PHE5        0.0000 
     33 CZ          1.7300  124.7500   26.0700 C.ar      5 PHE5        0.0000 
     34 CA         -0.7600  118.9100   26.5000 C.3       6 GLY6        0.0000 
     35 CA          1.0500  117.1900   29.1900 C.3       6 GLY6        0.0000 
     36 CA          1.1600  118.2100   28.1000 C.3       6 GLY6        0.0000 
     37 CA          1.2700  119.2400   27.0200 C.3       6 GLY6        0.0000 
     38 CA         -0.1500  118.8000   28.5300 C.3       6 GLY6        0.0000 
     39 CA         -0.0400  119.8300   27.4400 C.3       6 GLY6        0.0000 
     40 CA         -1.5800  118.3700   30.0300 C.3       6 GLY6        0.0000 
     41 CA         -1.4700  119.3900   28.9500 C.3       6 GLY6        0.0000 
     42 CA         -1.3500  120.4200   27.8600 C.3       6 GLY6        0.0000 
     43 CA          1.7600  118.1100   30.1400 C.3       6 GLY6        0.0000 
     44 CA          1.8800  119.1300   29.0500 C.3       6 GLY6        0.0000 
     45 CA          1.9900  120.1600   27.9600 C.3       6 GLY6        0.0000 
     46 CA          2.9300  123.1400   26.7300 C.3       6 GLY6        0.0000 
     47 CA          1.3900  121.6700   29.3300 C.3       6 GLY6        0.0000 
     48 CA          1.5100  122.7000   28.2400 C.3       6 GLY6        0.0000 
     49 CA          1.6200  123.7300   27.1600 C.3       6 GLY6        0.0000 
     50 CA          0.3100  124.3200   27.5800 C.3       6 GLY6        0.0000 
     51 CA          0.4200  125.3400   26.4900 C.3       6 GLY6        0.0000 
     52 CA          3.1900  119.9400   32.0200 C.3       6 GLY6        0.0000 
     53 CA          3.3100  120.9700   30.9400 C.3       6 GLY6        0.0000 
     54 CA          2.0000  121.5600   31.3600 C.3       6 GLY6        0.0000 
     55 CA          2.1100  122.5900   30.2700 C.3       6 GLY6        0.0000 
     56 CA         -1.2600  129.5000   26.1000 C.3       6 GLY6        0.0000 
     57 CA          4.0200  121.8900   31.8800 C.3       6 GLY6        0.0000 
     58 DU         -0.2700  117.7800   29.6100 H         7 CUB7        0.0000 
     59 DU          0.0700  120.8600   26.3500 H         7 CUB7        0.0000 
     60 DU          0.4500  118.7000   30.5600 H         7 CUB7        0.0000 
     61 DU          0.5600  119.7200   29.4700 H         7 CUB7        0.0000 
     62 DU          0.6800  120.7500   28.3800 H         7 CUB7        0.0000 
     63 DU          0.7900  121.7800   27.3000 H         7 CUB7        0.0000 
     64 DU          0.9000  122.8100   26.2100 H         7 CUB7        0.0000 
     65 DU          1.2800  120.6400   30.4200 H         7 CUB7        0.0000 
@<TRIPOS>BOND
@<TRIPOS>SUBSTRUCTURE
     1 SER1        1 GROUP   
     2 ALA2        9 GROUP   
     3 ASP3       20 GROUP   
     4 LYS4       28 GROUP   
     5 PHE5       29 GROUP   
     6 GLY6       34 GROUP   
     7 CUB7       58 GROUP   
@<TRIPOS>SET

