#    Name: 5mr0_2_PXG
#    Modification time : Fri May 22 19:21:07 2020

@<TRIPOS>MOLECULE
5mr0_2_PXG
   25    26     1     0     0
SMALL
NO_CHARGES


@<TRIPOS>ATOM
      1 N1         -1.2850  129.1830   27.6270 N.ar      1 PXG301      0.0000 
      2 C2         -0.2310  128.5590   27.0640 C.ar      1 PXG301      0.0000 
      3 C2A         1.1630  129.0990   27.2280 C.3       1 PXG301      0.0000 
      4 C3         -0.4580  127.3310   26.2710 C.ar      1 PXG301      0.0000 
      5 O3          0.5960  126.6910   25.6920 O.3       1 PXG301      0.0000 
      6 C5         -2.9230  127.6090   26.8300 C.ar      1 PXG301      0.0000 
      7 C6         -2.5670  128.7650   27.5200 C.ar      1 PXG301      0.0000 
      8 C5A        -4.3800  127.1720   26.7660 C.3       1 PXG301      0.0000 
      9 OP4        -4.9350  127.3640   25.4540 O.3       1 PXG301      0.0000 
     10 P          -6.1770  126.4670   24.8750 P.3       1 PXG301      0.0000 
     11 OP1        -7.2940  126.6840   25.8750 O.co2     1 PXG301      0.0000 
     12 OP2        -5.5800  125.0660   24.8270 O.co2     1 PXG301      0.0000 
     13 OP3        -6.5510  127.0900   23.5580 O.co2     1 PXG301      0.0000 
     14 C4         -1.8550  126.8330   26.1530 C.ar      1 PXG301      0.0000 
     15 C4A        -2.1660  125.5470   25.4090 C.3       1 PXG301      0.0000 
     16 C7          1.2540  121.3980   28.6470 C.2       1 PXG301      0.0000 
     17 C8          0.8420  122.1530   27.3990 C.ar      1 PXG301      0.0000 
     18 O2          0.4460  121.3120   29.5990 O.co2     1 PXG301      0.0000 
     19 C9         -0.3080  122.9780   27.4140 C.ar      1 PXG301      0.0000 
     20 C10        -0.7040  123.6690   26.2590 C.ar      1 PXG301      0.0000 
     21 C11         0.0740  123.5170   25.0900 C.ar      1 PXG301      0.0000 
     22 C12         1.2250  122.7230   25.0850 C.ar      1 PXG301      0.0000 
     23 C13         1.6130  122.0310   26.2250 C.ar      1 PXG301      0.0000 
     24 O8          2.3780  120.8380   28.7170 O.co2     1 PXG301      0.0000 
     25 N9         -1.8440  124.4240   26.2980 N.pl3     1 PXG301      0.0000 
@<TRIPOS>BOND
     1    1    2 ar   
     2    1    7 ar   
     3    2    3 1    
     4    2    4 ar   
     5    4    5 1    
     6    4   14 ar   
     7    6    7 ar   
     8    6    8 1    
     9    6   14 ar   
    10    8    9 1    
    11    9   10 1    
    12   10   11 ar   
    13   10   12 ar   
    14   10   13 ar   
    15   14   15 1    
    16   15   25 1    
    17   16   17 1    
    18   16   18 ar   
    19   16   24 ar   
    20   17   19 ar   
    21   17   23 ar   
    22   19   20 ar   
    23   20   21 ar   
    24   20   25 1    
    25   21   22 ar   
    26   22   23 ar   
@<TRIPOS>SUBSTRUCTURE
     1 PXG301      1 GROUP   
@<TRIPOS>SET

