#    Name: 6hz9_11_GDP
#    Modification time : Fri May 22 19:41:22 2020

@<TRIPOS>MOLECULE
6hz9_11_GDP
   40    42     1     0     1
SMALL
NO_CHARGES


@<TRIPOS>ATOM
      1 PB        162.3280  138.1830  157.5960 P.3       1 GDP1001     0.0000 
      2 O1B       161.9610  139.4520  156.9360 O.co2     1 GDP1001     0.0000 
      3 O2B       161.5970  137.0670  156.9580 O.co2     1 GDP1001     0.0000 
      4 O3B       163.7820  137.9600  157.4550 O.co2     1 GDP1001     0.0000 
      5 O3A       161.9570  138.2530  159.1470 O.3       1 GDP1001     0.0000 
      6 PA        162.1560  136.9280  160.0160 P.3       1 GDP1001     0.0000 
      7 O1A       161.4530  135.8010  159.3630 O.co2     1 GDP1001     0.0000 
      8 O2A       163.6000  136.6160  160.1140 O.co2     1 GDP1001     0.0000 
      9 O5'       161.5560  137.1370  161.5020 O.3       1 GDP1001     0.0000 
     10 C5'       162.3140  137.8390  162.4930 C.3       1 GDP1001     0.0000 
     11 C4'       161.3710  138.3670  163.6120 C.3       1 GDP1001     0.0000 
     12 O4'       160.5900  137.2630  164.2290 O.3       1 GDP1001     0.0000 
     13 C3'       162.1090  138.9770  164.7990 C.3       1 GDP1001     0.0000 
     14 O3'       161.2060  139.8110  165.5640 O.3       1 GDP1001     0.0000 
     15 C2'       162.4670  137.7220  165.5580 C.3       1 GDP1001     0.0000 
     16 O2'       162.9470  138.0220  166.8740 O.3       1 GDP1001     0.0000 
     17 C1'       161.1130  137.0560  165.6000 C.3       1 GDP1001     0.0000 
     18 N9        161.2340  135.6390  166.0130 N.pl3     1 GDP1001     0.0000 
     19 C8        161.2130  134.5950  165.2020 C.2       1 GDP1001     0.0000 
     20 N7        161.3590  133.4960  165.9330 N.2       1 GDP1001     0.0000 
     21 C5        161.4920  133.8640  167.2010 C.2       1 GDP1001     0.0000 
     22 C6        161.6690  133.1480  168.3070 C.2       1 GDP1001     0.0000 
     23 O6        161.7360  131.9200  168.2620 O.2       1 GDP1001     0.0000 
     24 N1        161.7800  133.8010  169.5330 N.am      1 GDP1001     0.0000 
     25 C2        161.6980  135.1930  169.5550 C.2       1 GDP1001     0.0000 
     26 N2        161.7980  135.8630  170.6970 N.pl3     1 GDP1001     0.0000 
     27 N3        161.5200  135.8550  168.4080 N.2       1 GDP1001     0.0000 
     28 C4        161.4150  135.1940  167.2490 C.2       1 GDP1001     0.0000 
     29 H5'       162.7950  138.6900  162.0090 H         1 GDP1001     0.0000 
     30 H5''      163.0860  137.1650  162.8410 H         1 GDP1001     0.0000 
     31 H4'       160.7480  139.1220  163.1340 H         1 GDP1001     0.0000 
     32 H3'       162.9740  139.5640  164.5000 H         1 GDP1001     0.0000 
     33 HO3'      160.2620  139.4930  165.4960 H         1 GDP1001     0.0000 
     34 H2'       163.1650  137.1080  165.0300 H         1 GDP1001     0.0000 
     35 HO2'      162.2690  138.5830  167.3480 H         1 GDP1001     0.0000 
     36 H1'       160.4760  137.5740  166.3040 H         1 GDP1001     0.0000 
     37 H8        161.0710  134.6360  164.1260 H         1 GDP1001     0.0000 
     38 HN1       161.9130  133.2820  170.3760 H         1 GDP1001     0.0000 
     39 HN21      161.9430  135.3690  171.5530 H         1 GDP1001     0.0000 
     40 HN22      161.7280  136.8610  170.6950 H         1 GDP1001     0.0000 
@<TRIPOS>BOND
     1    1    2 ar   
     2    1    3 ar   
     3    1    4 ar   
     4    1    5 1    
     5    5    6 1    
     6    6    7 ar   
     7    6    8 ar   
     8    6    9 1    
     9    9   10 1    
    10   10   11 1    
    11   10   29 1    
    12   10   30 1    
    13   11   12 1    
    14   11   13 1    
    15   11   31 1    
    16   12   17 1    
    17   13   14 1    
    18   13   15 1    
    19   13   32 1    
    20   14   33 1    
    21   15   16 1    
    22   15   17 1    
    23   15   34 1    
    24   16   35 1    
    25   17   18 1    
    26   17   36 1    
    27   18   19 1    
    28   18   28 1    
    29   19   20 2    
    30   19   37 1    
    31   20   21 1    
    32   21   22 1    
    33   21   28 2    
    34   22   23 2    
    35   22   24 am   
    36   24   25 1    
    37   24   38 1    
    38   25   26 1    
    39   25   27 2    
    40   26   39 1    
    41   26   40 1    
    42   27   28 1    
@<TRIPOS>SUBSTRUCTURE
     1 GDP1001     1 GROUP   
@<TRIPOS>SET
ATOM$ORANGE STATIC     ATOMS   COLORGROUP SYSTEM 
20 10 10 11 11 13 13 15 15 17 17 19 19 21 21 22 22 25 \
25 28 28 

