#    Name: 6hz9_3_GNP_CAVITY_N1_ALL
#    Modification time : Fri May 22 19:40:41 2020

@<TRIPOS>MOLECULE
6hz9_3_GNP_CAVITY_N1_ALL
   73     0     7     0     0
SMALL
NO_CHARGES


@<TRIPOS>ATOM
      1 OG         57.0400  142.1800  108.5600 O.3       1 SER1        0.0000 
      2 OG         55.7000  142.6400  113.0900 O.3       1 SER1        0.0000 
      3 OG         56.3100  143.2800  110.2200 O.3       1 SER1        0.0000 
      4 OG         56.6200  143.6000  108.7900 O.3       1 SER1        0.0000 
      5 OG         57.2100  141.2500  114.6800 O.3       1 SER1        0.0000 
      6 OG         57.5200  141.5700  113.2400 O.3       1 SER1        0.0000 
      7 OG         58.1400  142.2100  110.3800 O.3       1 SER1        0.0000 
      8 OG         57.4100  143.3100  112.0400 O.3       1 SER1        0.0000 
      9 N          49.5600  138.8400  115.6300 N.am      2 ALA2        0.0000 
     10 N          51.8500  142.7100  115.4200 N.am      2 ALA2        0.0000 
     11 N          52.1500  143.0300  113.9900 N.am      2 ALA2        0.0000 
     12 N          51.1200  143.8100  117.0800 N.am      2 ALA2        0.0000 
     13 N          51.4300  144.1400  115.6500 N.am      2 ALA2        0.0000 
     14 N          51.7400  144.4600  114.2100 N.am      2 ALA2        0.0000 
     15 N          52.0400  144.7800  112.7800 N.am      2 ALA2        0.0000 
     16 N          51.3200  145.8800  114.4400 N.am      2 ALA2        0.0000 
     17 N          51.6300  146.2000  113.0100 N.am      2 ALA2        0.0000 
     18 N          53.5600  143.3900  114.3700 N.am      2 ALA2        0.0000 
     19 N          53.8700  143.7100  112.9300 N.am      2 ALA2        0.0000 
     20 N          54.1800  144.0300  111.5000 N.am      2 ALA2        0.0000 
     21 N          54.8000  144.6700  108.6400 N.am      2 ALA2        0.0000 
     22 N          55.5900  144.3800  111.8800 N.am      2 ALA2        0.0000 
     23 O          57.8300  141.8900  111.8100 O.2       2 ALA2        0.0000 
     24 OD1        56.2200  139.4700  114.0700 O.co2     3 ASP3        0.0000 
     25 OD1        58.0500  138.4000  114.2200 O.co2     3 ASP3        0.0000 
     26 OD1        57.6300  139.8200  114.4500 O.co2     3 ASP3        0.0000 
     27 NZ         50.6400  144.4200  112.4000 N.4       4 LYS4        0.0000 
     28 NZ         50.2200  145.8500  112.6300 N.4       4 LYS4        0.0000 
     29 NZ         53.1000  138.4500  114.7300 N.4       4 LYS4        0.0000 
     30 NZ         52.6800  139.8700  114.9600 N.4       4 LYS4        0.0000 
     31 NZ         52.2600  141.2900  115.1900 N.4       4 LYS4        0.0000 
     32 NZ         52.3500  145.1000  111.3500 N.4       4 LYS4        0.0000 
     33 NZ         54.4000  140.5400  113.9100 N.4       4 LYS4        0.0000 
     34 NZ         53.9800  141.9600  114.1400 N.4       4 LYS4        0.0000 
     35 NZ         55.8000  140.8900  114.2900 N.4       4 LYS4        0.0000 
     36 NZ         55.3900  142.3200  114.5200 N.4       4 LYS4        0.0000 
     37 CZ         50.1800  139.4800  112.7600 C.ar      5 PHE5        0.0000 
     38 CZ         50.0700  141.2300  111.5600 C.ar      5 PHE5        0.0000 
     39 CZ         51.6900  138.0900  114.3500 C.ar      5 PHE5        0.0000 
     40 CZ         52.0000  138.4100  112.9200 C.ar      5 PHE5        0.0000 
     41 CZ         51.5800  139.8400  113.1500 C.ar      5 PHE5        0.0000 
     42 CZ         51.1700  141.2600  113.3700 C.ar      5 PHE5        0.0000 
     43 CZ         51.0600  143.0000  112.1700 C.ar      5 PHE5        0.0000 
     44 CZ         53.4100  138.7700  113.3000 C.ar      5 PHE5        0.0000 
     45 CZ         52.9900  140.1900  113.5300 C.ar      5 PHE5        0.0000 
     46 CZ         52.5700  141.6100  113.7600 C.ar      5 PHE5        0.0000 
     47 CZ         52.4600  143.3500  112.5500 C.ar      5 PHE5        0.0000 
     48 CZ         52.7700  143.6700  111.1200 C.ar      5 PHE5        0.0000 
     49 CZ         53.0800  143.9900  109.6900 C.ar      5 PHE5        0.0000 
     50 CZ         54.8200  139.1200  113.6800 C.ar      5 PHE5        0.0000 
     51 CZ         54.2900  142.2800  112.7100 C.ar      5 PHE5        0.0000 
     52 CZ         54.6000  142.6000  111.2700 C.ar      5 PHE5        0.0000 
     53 CZ         54.9100  142.9300  109.8400 C.ar      5 PHE5        0.0000 
     54 CZ         55.2200  143.2500  108.4100 C.ar      5 PHE5        0.0000 
     55 CZ         54.4900  144.3500  110.0700 C.ar      5 PHE5        0.0000 
     56 CZ         56.1100  141.2100  112.8600 C.ar      5 PHE5        0.0000 
     57 CZ         55.8900  144.7000  110.4500 C.ar      5 PHE5        0.0000 
     58 CA         50.9700  139.2000  116.0100 C.3       6 GLY6        0.0000 
     59 CA         51.2800  139.5200  114.5800 C.3       6 GLY6        0.0000 
     60 CA         50.8600  140.9400  114.8100 C.3       6 GLY6        0.0000 
     61 CA         51.5400  142.3900  116.8500 C.3       6 GLY6        0.0000 
     62 CA         55.9400  142.1400  106.7500 C.3       6 GLY6        0.0000 
     63 CA         56.9500  138.3700  112.4100 C.3       6 GLY6        0.0000 
     64 CA         56.5300  139.7900  112.6300 C.3       6 GLY6        0.0000 
     65 CA         56.4200  141.5300  111.4300 C.3       6 GLY6        0.0000 
     66 CA         56.7300  141.8600  110.0000 C.3       6 GLY6        0.0000 
     67 CA         58.3600  138.7200  112.7900 C.3       6 GLY6        0.0000 
     68 CA         57.9400  140.1400  113.0200 C.3       6 GLY6        0.0000 
     69 DU         50.4400  142.3600  115.0400 H         7 CUB7        0.0000 
     70 DU         50.7500  142.6800  113.6000 H         7 CUB7        0.0000 
     71 DU         50.0200  143.7800  115.2600 H         7 CUB7        0.0000 
     72 DU         50.3300  144.1000  113.8300 H         7 CUB7        0.0000 
     73 DU         56.0000  142.9600  111.6600 H         7 CUB7        0.0000 
@<TRIPOS>BOND
@<TRIPOS>SUBSTRUCTURE
     1 SER1        1 GROUP   
     2 ALA2        9 GROUP   
     3 ASP3       24 GROUP   
     4 LYS4       27 GROUP   
     5 PHE5       37 GROUP   
     6 GLY6       58 GROUP   
     7 CUB7       69 GROUP   
@<TRIPOS>SET

