#    Name: 6hz9_10_GDP
#    Modification time : Fri May 22 19:41:14 2020

@<TRIPOS>MOLECULE
6hz9_10_GDP
   40    42     1     0     1
SMALL
NO_CHARGES


@<TRIPOS>ATOM
      1 PB        183.2360  111.9690  145.0800 P.3       1 GDP1001     0.0000 
      2 O1B       183.6640  110.7170  144.4320 O.co2     1 GDP1001     0.0000 
      3 O2B       181.8010  112.1790  144.7980 O.co2     1 GDP1001     0.0000 
      4 O3B       184.0050  113.1060  144.5310 O.co2     1 GDP1001     0.0000 
      5 O3A       183.4630  111.8850  146.6740 O.3       1 GDP1001     0.0000 
      6 PA        184.7470  112.5420  147.4130 P.3       1 GDP1001     0.0000 
      7 O1A       185.8720  112.6860  146.4620 O.co2     1 GDP1001     0.0000 
      8 O2A       184.3340  113.8770  147.9010 O.co2     1 GDP1001     0.0000 
      9 O5'       185.2240  111.6210  148.6660 O.3       1 GDP1001     0.0000 
     10 C5'       184.8160  111.9710  149.9980 C.3       1 GDP1001     0.0000 
     11 C4'       185.5230  111.1970  151.1390 C.3       1 GDP1001     0.0000 
     12 O4'       185.2890  109.7620  150.8660 O.3       1 GDP1001     0.0000 
     13 C3'       187.0310  111.3360  151.2000 C.3       1 GDP1001     0.0000 
     14 O3'       187.4490  111.1580  152.5670 O.3       1 GDP1001     0.0000 
     15 C2'       187.4370  110.1820  150.3570 C.3       1 GDP1001     0.0000 
     16 O2'       188.8030  109.8490  150.5360 O.3       1 GDP1001     0.0000 
     17 C1'       186.5810  109.1170  150.9560 C.3       1 GDP1001     0.0000 
     18 N9        186.6970  107.9040  150.1330 N.pl3     1 GDP1001     0.0000 
     19 C8        186.1570  107.7970  148.9270 C.2       1 GDP1001     0.0000 
     20 N7        186.4520  106.6030  148.4380 N.2       1 GDP1001     0.0000 
     21 C5        187.1950  105.9740  149.3370 C.2       1 GDP1001     0.0000 
     22 C6        187.7370  104.7650  149.3070 C.2       1 GDP1001     0.0000 
     23 O6        187.5840  104.0220  148.3390 O.2       1 GDP1001     0.0000 
     24 N1        188.4780  104.3280  150.3920 N.am      1 GDP1001     0.0000 
     25 C2        188.6320  105.1880  151.4800 C.2       1 GDP1001     0.0000 
     26 N2        189.3340  104.8000  152.5330 N.pl3     1 GDP1001     0.0000 
     27 N3        188.0660  106.4000  151.4540 N.2       1 GDP1001     0.0000 
     28 C4        187.3500  106.7800  150.3900 C.2       1 GDP1001     0.0000 
     29 H5'       183.7520  111.7610  150.0450 H         1 GDP1001     0.0000 
     30 H5''      184.9820  113.0310  150.1620 H         1 GDP1001     0.0000 
     31 H4'       185.1370  111.5720  152.0700 H         1 GDP1001     0.0000 
     32 H3'       187.3900  112.2900  150.8320 H         1 GDP1001     0.0000 
     33 HO3'      188.4430  111.1740  152.6250 H         1 GDP1001     0.0000 
     34 H2'       187.1620  110.3630  149.3340 H         1 GDP1001     0.0000 
     35 HO2'      188.9850  109.6790  151.4990 H         1 GDP1001     0.0000 
     36 H1'       186.8380  108.9400  151.9870 H         1 GDP1001     0.0000 
     37 H8        185.5550  108.5590  148.4340 H         1 GDP1001     0.0000 
     38 HN1       188.8900  103.4190  150.3820 H         1 GDP1001     0.0000 
     39 HN21      189.7360  103.8860  152.5280 H         1 GDP1001     0.0000 
     40 HN22      189.4540  105.4070  153.3200 H         1 GDP1001     0.0000 
@<TRIPOS>BOND
     1    1    2 ar   
     2    1    3 ar   
     3    1    4 ar   
     4    1    5 1    
     5    5    6 1    
     6    6    7 ar   
     7    6    8 ar   
     8    6    9 1    
     9    9   10 1    
    10   10   11 1    
    11   10   29 1    
    12   10   30 1    
    13   11   12 1    
    14   11   13 1    
    15   11   31 1    
    16   12   17 1    
    17   13   14 1    
    18   13   15 1    
    19   13   32 1    
    20   14   33 1    
    21   15   16 1    
    22   15   17 1    
    23   15   34 1    
    24   16   35 1    
    25   17   18 1    
    26   17   36 1    
    27   18   19 1    
    28   18   28 1    
    29   19   20 2    
    30   19   37 1    
    31   20   21 1    
    32   21   22 1    
    33   21   28 2    
    34   22   23 2    
    35   22   24 am   
    36   24   25 1    
    37   24   38 1    
    38   25   26 1    
    39   25   27 2    
    40   26   39 1    
    41   26   40 1    
    42   27   28 1    
@<TRIPOS>SUBSTRUCTURE
     1 GDP1001     1 GROUP   
@<TRIPOS>SET
ATOM$ORANGE STATIC     ATOMS   COLORGROUP SYSTEM 
20 10 10 11 11 13 13 15 15 17 17 19 19 21 21 22 22 25 \
25 28 28 

