#    Name: 6hz9_11_GDP_CAVITY_N1_4
#    Modification time : Fri May 22 19:41:23 2020

@<TRIPOS>MOLECULE
6hz9_11_GDP_CAVITY_N1_4
  141     0     7     0     0
SMALL
NO_CHARGES


@<TRIPOS>ATOM
      1 OG        159.1700  138.7100  159.6600 O.3       1 SER1        0.0000 
      2 OG        158.1300  139.5000  162.7500 O.3       1 SER1        0.0000 
      3 OG        158.4400  139.8200  161.3200 O.3       1 SER1        0.0000 
      4 OG        158.7500  140.1400  159.8800 O.3       1 SER1        0.0000 
      5 OG        160.2800  133.2000  166.5200 O.3       1 SER1        0.0000 
      6 OG        160.5900  133.5200  165.0800 O.3       1 SER1        0.0000 
      7 OG        160.4800  135.2600  163.8800 O.3       1 SER1        0.0000 
      8 OG        159.7600  136.3600  165.5400 O.3       1 SER1        0.0000 
      9 OG        160.9900  137.6400  159.8100 O.3       1 SER1        0.0000 
     10 OG        160.5700  139.0700  160.0400 O.3       1 SER1        0.0000 
     11 OG        159.5400  139.8500  163.1300 O.3       1 SER1        0.0000 
     12 OG        159.8500  140.1700  161.7000 O.3       1 SER1        0.0000 
     13 OG        160.0500  142.2300  159.0600 O.3       1 SER1        0.0000 
     14 OG        161.4700  137.0400  164.4900 O.3       1 SER1        0.0000 
     15 OG        161.7800  137.3600  163.0600 O.3       1 SER1        0.0000 
     16 OG        162.0900  137.6800  161.6300 O.3       1 SER1        0.0000 
     17 OG        161.0500  138.4600  164.7200 O.3       1 SER1        0.0000 
     18 OG        161.3600  138.7800  163.2900 O.3       1 SER1        0.0000 
     19 OG        161.6700  139.1000  161.8500 O.3       1 SER1        0.0000 
     20 OG        164.5300  137.2500  158.9100 O.3       1 SER1        0.0000 
     21 O         158.4900  137.2600  157.6100 O.2       2 ALA2        0.0000 
     22 O         158.8000  137.5800  156.1800 O.2       2 ALA2        0.0000 
     23 N         159.1100  137.9000  154.7500 N.am      2 ALA2        0.0000 
     24 N         158.3800  139.0000  156.4100 N.am      2 ALA2        0.0000 
     25 O         160.6200  136.5100  156.3400 O.2       2 ALA2        0.0000 
     26 O         159.8900  137.6100  158.0000 O.2       2 ALA2        0.0000 
     27 O         160.2000  137.9300  156.5600 O.2       2 ALA2        0.0000 
     28 N         160.0900  139.6800  155.3600 N.am      2 ALA2        0.0000 
     29 O         161.4100  136.2200  159.5800 O.2       2 ALA2        0.0000 
     30 O         161.7200  136.5400  158.1500 O.2       2 ALA2        0.0000 
     31 N         159.1200  141.2700  163.3600 N.am      2 ALA2        0.0000 
     32 O         163.5500  135.4700  158.3000 O.2       2 ALA2        0.0000 
     33 N         160.5500  136.0700  168.7900 N.am      2 ALA2        0.0000 
     34 N         160.8500  136.3900  167.3500 N.am      2 ALA2        0.0000 
     35 N         160.7500  138.1400  166.1500 N.am      2 ALA2        0.0000 
     36 N         160.3300  139.5600  166.3800 N.am      2 ALA2        0.0000 
     37 N         160.6400  139.8800  164.9500 N.am      2 ALA2        0.0000 
     38 N         160.5300  141.6200  163.7400 N.am      2 ALA2        0.0000 
     39 N         160.1100  143.0400  163.9700 N.am      2 ALA2        0.0000 
     40 N         161.7500  134.3600  171.8100 N.am      2 ALA2        0.0000 
     41 N         162.0600  134.6800  170.3700 N.am      2 ALA2        0.0000 
     42 N         161.2300  137.5300  170.8300 N.am      2 ALA2        0.0000 
     43 N         161.5300  137.8500  169.4000 N.am      2 ALA2        0.0000 
     44 N         161.8400  138.1700  167.9700 N.am      2 ALA2        0.0000 
     45 N         160.8100  138.9500  171.0600 N.am      2 ALA2        0.0000 
     46 N         161.1200  139.2700  169.6300 N.am      2 ALA2        0.0000 
     47 N         161.4300  139.5900  168.1900 N.am      2 ALA2        0.0000 
     48 N         161.7300  139.9100  166.7600 N.am      2 ALA2        0.0000 
     49 N         161.0100  141.0100  168.4200 N.am      2 ALA2        0.0000 
     50 N         161.3200  141.3300  166.9900 N.am      2 ALA2        0.0000 
     51 N         161.6200  141.6500  165.5600 N.am      2 ALA2        0.0000 
     52 N         161.2100  143.0800  165.7800 N.am      2 ALA2        0.0000 
     53 OD1       160.9300  136.8300  154.9000 O.co2     3 ASP3        0.0000 
     54 OD1       162.1400  135.1200  157.9200 O.co2     3 ASP3        0.0000 
     55 OD1       162.0300  136.8600  156.7200 O.co2     3 ASP3        0.0000 
     56 OD1       161.6100  138.2900  156.9500 O.co2     3 ASP3        0.0000 
     57 OD1       163.8500  135.7900  156.8700 O.co2     3 ASP3        0.0000 
     58 OD1       163.1300  136.8900  158.5300 O.co2     3 ASP3        0.0000 
     59 OD1       162.7100  138.3200  158.7600 O.co2     3 ASP3        0.0000 
     60 OD1       163.0200  138.6400  157.3300 O.co2     3 ASP3        0.0000 
     61 OD1       161.9800  139.4200  160.4200 O.co2     3 ASP3        0.0000 
     62 OD1       162.2900  139.7400  158.9900 O.co2     3 ASP3        0.0000 
     63 OD1       162.6000  140.0600  157.5600 O.co2     3 ASP3        0.0000 
     64 OD1       163.5000  138.0300  162.0100 O.co2     3 ASP3        0.0000 
     65 OD1       163.8100  138.3500  160.5800 O.co2     3 ASP3        0.0000 
     66 OD1       164.1200  138.6700  159.1400 O.co2     3 ASP3        0.0000 
     67 OD1       164.4200  138.9900  157.7100 O.co2     3 ASP3        0.0000 
     68 OD1       164.0100  140.4100  157.9400 O.co2     3 ASP3        0.0000 
     69 OD1       163.5900  141.8300  158.1700 O.co2     3 ASP3        0.0000 
     70 OD1       164.9000  138.3800  162.3900 O.co2     3 ASP3        0.0000 
     71 OD1       166.1400  139.6600  156.6600 O.co2     3 ASP3        0.0000 
     72 OD1       165.7200  141.0900  156.8900 O.co2     3 ASP3        0.0000 
     73 OD1       164.1500  136.4900  172.8000 O.co2     3 ASP3        0.0000 
     74 NZ        159.7800  139.3500  156.7900 N.4       4 LYS4        0.0000 
     75 NZ        159.0600  140.4600  158.4500 N.4       4 LYS4        0.0000 
     76 NZ        159.3700  140.7800  157.0200 N.4       4 LYS4        0.0000 
     77 NZ        161.1900  139.7100  157.1700 N.4       4 LYS4        0.0000 
     78 NZ        160.4600  140.8100  158.8300 N.4       4 LYS4        0.0000 
     79 NZ        160.9400  140.2000  163.5100 N.4       4 LYS4        0.0000 
     80 NZ        161.2500  140.5200  162.0800 N.4       4 LYS4        0.0000 
     81 NZ        161.5600  140.8400  160.6500 N.4       4 LYS4        0.0000 
     82 NZ        161.8700  141.1600  159.2200 N.4       4 LYS4        0.0000 
     83 NZ        160.8400  141.9400  162.3100 N.4       4 LYS4        0.0000 
     84 NZ        162.4600  138.8100  165.1000 N.4       4 LYS4        0.0000 
     85 NZ        162.7700  139.1300  163.6700 N.4       4 LYS4        0.0000 
     86 NZ        163.0800  139.4500  162.2400 N.4       4 LYS4        0.0000 
     87 NZ        162.0400  140.2300  165.3300 N.4       4 LYS4        0.0000 
     88 NZ        161.5200  143.4000  164.3500 N.4       4 LYS4        0.0000 
     89 NZ        162.4300  135.8200  173.8500 N.4       4 LYS4        0.0000 
     90 NZ        164.1800  139.4800  164.0500 N.4       4 LYS4        0.0000 
     91 NZ        163.4500  140.5800  165.7100 N.4       4 LYS4        0.0000 
     92 CZ        158.0700  138.6800  157.8400 C.ar      5 PHE5        0.0000 
     93 CZ        159.8700  134.6200  166.7400 C.ar      5 PHE5        0.0000 
     94 CZ        160.1800  134.9400  165.3100 C.ar      5 PHE5        0.0000 
     95 CZ        161.3800  133.2300  168.3300 C.ar      5 PHE5        0.0000 
     96 CZ        161.6900  133.5500  166.9000 C.ar      5 PHE5        0.0000 
     97 CZ        162.0000  133.8700  165.4700 C.ar      5 PHE5        0.0000 
     98 CZ        160.6600  134.3300  169.9900 C.ar      5 PHE5        0.0000 
     99 CZ        160.9600  134.6500  168.5600 C.ar      5 PHE5        0.0000 
    100 CZ        161.2700  134.9700  167.1300 C.ar      5 PHE5        0.0000 
    101 CZ        161.5800  135.2900  165.6900 C.ar      5 PHE5        0.0000 
    102 CZ        160.2400  135.7500  170.2200 C.ar      5 PHE5        0.0000 
    103 CZ        162.3700  135.0000  168.9400 C.ar      5 PHE5        0.0000 
    104 CZ        161.0300  135.4600  173.4700 C.ar      5 PHE5        0.0000 
    105 CZ        161.3400  135.7800  172.0300 C.ar      5 PHE5        0.0000 
    106 CZ        161.9500  136.4300  169.1700 C.ar      5 PHE5        0.0000 
    107 CZ        162.2600  136.7500  167.7400 C.ar      5 PHE5        0.0000 
    108 CZ        162.5700  137.0700  166.3000 C.ar      5 PHE5        0.0000 
    109 CZ        160.6100  136.8900  173.6900 C.ar      5 PHE5        0.0000 
    110 CZ        160.9200  137.2100  172.2600 C.ar      5 PHE5        0.0000 
    111 CZ        163.4700  135.0400  170.7600 C.ar      5 PHE5        0.0000 
    112 CZ        163.0500  136.4600  170.9800 C.ar      5 PHE5        0.0000 
    113 CZ        162.9400  138.2000  169.7800 C.ar      5 PHE5        0.0000 
    114 CZ        163.2500  138.5200  168.3500 C.ar      5 PHE5        0.0000 
    115 CZ        163.5600  138.8400  166.9200 C.ar      5 PHE5        0.0000 
    116 CZ        163.8700  139.1600  165.4800 C.ar      5 PHE5        0.0000 
    117 CZ        164.3500  138.5500  170.1600 C.ar      5 PHE5        0.0000 
    118 CA        159.5900  137.2900  159.4300 C.3       6 GLY6        0.0000 
    119 CA        160.5100  138.2500  155.1300 C.3       6 GLY6        0.0000 
    120 CA        159.3400  137.7800  165.7700 C.3       6 GLY6        0.0000 
    121 CA        161.8900  135.6100  164.2600 C.3       6 GLY6        0.0000 
    122 CA        162.8200  136.5700  159.9600 C.3       6 GLY6        0.0000 
    123 CA        164.2200  136.9300  160.3500 C.3       6 GLY6        0.0000 
    124 CA        162.8800  137.3900  164.8700 C.3       6 GLY6        0.0000 
    125 CA        163.1900  137.7100  163.4400 C.3       6 GLY6        0.0000 
    126 CA        163.1600  134.7200  172.1900 C.3       6 GLY6        0.0000 
    127 CA        164.6000  138.0600  163.8200 C.3       6 GLY6        0.0000 
    128 DU        159.4800  139.0300  158.2200 H         7 CUB7        0.0000 
    129 DU        161.3000  137.9600  158.3800 H         7 CUB7        0.0000 
    130 DU        160.8800  139.3900  158.6100 H         7 CUB7        0.0000 
    131 DU        160.1600  140.4900  160.2700 H         7 CUB7        0.0000 
    132 DU        161.1600  136.7100  165.9200 H         7 CUB7        0.0000 
    133 DU        162.4000  138.0000  160.1900 H         7 CUB7        0.0000 
    134 DU        161.6400  136.1100  170.6000 H         7 CUB7        0.0000 
    135 DU        162.1500  138.4900  166.5300 H         7 CUB7        0.0000 
    136 DU        162.7400  136.1400  172.4200 H         7 CUB7        0.0000 
    137 DU        162.3200  137.5600  172.6400 H         7 CUB7        0.0000 
    138 DU        162.6300  137.8800  171.2100 H         7 CUB7        0.0000 
    139 DU        162.5200  139.6200  170.0100 H         7 CUB7        0.0000 
    140 DU        162.8300  139.9400  168.5800 H         7 CUB7        0.0000 
    141 DU        163.1400  140.2600  167.1400 H         7 CUB7        0.0000 
@<TRIPOS>BOND
@<TRIPOS>SUBSTRUCTURE
     1 SER1        1 GROUP   
     2 ALA2       21 GROUP   
     3 ASP3       53 GROUP   
     4 LYS4       74 GROUP   
     5 PHE5       92 GROUP   
     6 GLY6      118 GROUP   
     7 CUB7      128 GROUP   
@<TRIPOS>SET

