#    Name: 6hz9_7_GNP_CAVITY_N1_ALL
#    Modification time : Fri May 22 19:41:08 2020

@<TRIPOS>MOLECULE
6hz9_7_GNP_CAVITY_N1_ALL
   98     0     7     0     0
SMALL
NO_CHARGES


@<TRIPOS>ATOM
      1 OG        149.4200  162.3100  103.1500 O.3       1 SER1        0.0000 
      2 OG        151.5500  161.5600  101.8700 O.3       1 SER1        0.0000 
      3 OG        150.8300  162.6600  103.5300 O.3       1 SER1        0.0000 
      4 OG        153.3800  160.4900  102.0200 O.3       1 SER1        0.0000 
      5 OG        153.6900  160.8100  100.5900 O.3       1 SER1        0.0000 
      6 OG        154.7900  160.8400  102.4000 O.3       1 SER1        0.0000 
      7 OG        155.0900  161.1600  100.9700 O.3       1 SER1        0.0000 
      8 O         149.0000  163.7300  103.3700 O.2       2 ALA2        0.0000 
      9 O         149.3100  164.0500  101.9400 O.2       2 ALA2        0.0000 
     10 N         151.7500  163.6200   99.2300 N.am      2 ALA2        0.0000 
     11 N         152.0600  163.9400   97.8000 N.am      2 ALA2        0.0000 
     12 N         153.2700  162.2300  100.8200 N.am      2 ALA2        0.0000 
     13 N         154.5000  163.5200   95.0900 N.am      2 ALA2        0.0000 
     14 N         154.8100  163.8400   93.6500 N.am      2 ALA2        0.0000 
     15 N         153.1600  163.9800   99.6100 N.am      2 ALA2        0.0000 
     16 N         153.4700  164.3000   98.1800 N.am      2 ALA2        0.0000 
     17 N         153.7800  164.6200   96.7500 N.am      2 ALA2        0.0000 
     18 N         155.4000  161.4800   99.5400 N.am      2 ALA2        0.0000 
     19 N         154.9900  162.9100   99.7700 N.am      2 ALA2        0.0000 
     20 N         155.6000  163.5500   96.9000 N.am      2 ALA2        0.0000 
     21 N         155.9100  163.8700   95.4700 N.am      2 ALA2        0.0000 
     22 N         154.8800  164.6500   98.5600 N.am      2 ALA2        0.0000 
     23 N         155.1800  164.9700   97.1300 N.am      2 ALA2        0.0000 
     24 N         157.1200  162.1600   98.4900 N.am      2 ALA2        0.0000 
     25 N         157.4300  162.4800   97.0600 N.am      2 ALA2        0.0000 
     26 N         156.7000  163.5800   98.7200 N.am      2 ALA2        0.0000 
     27 N         157.0100  163.9000   97.2800 N.am      2 ALA2        0.0000 
     28 O         159.7800  167.1600  101.7500 O.2       2 ALA2        0.0000 
     29 N         160.0900  167.4800  100.3200 N.am      2 ALA2        0.0000 
     30 N         161.4900  167.8300  100.7000 N.am      2 ALA2        0.0000 
     31 OD1       156.1900  161.2000  102.7900 O.co2     3 ASP3        0.0000 
     32 OD1       157.4900  163.2900  101.9600 O.co2     3 ASP3        0.0000 
     33 NZ        151.3300  165.0500   99.4600 N.4       4 LYS4        0.0000 
     34 NZ        151.6400  165.3700   98.0300 N.4       4 LYS4        0.0000 
     35 NZ        153.0500  165.7200   98.4100 N.4       4 LYS4        0.0000 
     36 NZ        154.0400  167.4900   99.0200 N.4       4 LYS4        0.0000 
     37 NZ        156.5000  161.5200  101.3500 N.4       4 LYS4        0.0000 
     38 NZ        156.8100  161.8400   99.9200 N.4       4 LYS4        0.0000 
     39 NZ        157.7400  162.8000   95.6200 N.4       4 LYS4        0.0000 
     40 NZ        157.3200  164.2200   95.8500 N.4       4 LYS4        0.0000 
     41 NZ        156.9000  165.6400   96.0800 N.4       4 LYS4        0.0000 
     42 NZ        158.5300  162.5100   98.8700 N.4       4 LYS4        0.0000 
     43 NZ        157.8000  163.6100  100.5300 N.4       4 LYS4        0.0000 
     44 NZ        158.3100  166.0000   96.4600 N.4       4 LYS4        0.0000 
     45 CZ        149.7300  162.6300  101.7100 C.ar      5 PHE5        0.0000 
     46 CZ        149.6200  164.3700  100.5100 C.ar      5 PHE5        0.0000 
     47 CZ        149.9300  164.6900   99.0800 C.ar      5 PHE5        0.0000 
     48 CZ        151.8600  161.8800  100.4300 C.ar      5 PHE5        0.0000 
     49 CZ        151.1300  162.9800  102.1000 C.ar      5 PHE5        0.0000 
     50 CZ        151.4400  163.3000  100.6600 C.ar      5 PHE5        0.0000 
     51 CZ        150.4100  164.0800  103.7600 C.ar      5 PHE5        0.0000 
     52 CZ        150.7200  164.4000  102.3200 C.ar      5 PHE5        0.0000 
     53 CZ        151.0300  164.7300  100.8900 C.ar      5 PHE5        0.0000 
     54 CZ        152.9600  161.9100  102.2500 C.ar      5 PHE5        0.0000 
     55 CZ        152.8500  163.6600  101.0400 C.ar      5 PHE5        0.0000 
     56 CZ        154.0900  164.9400   95.3200 C.ar      5 PHE5        0.0000 
     57 CZ        154.4000  165.2600   93.8800 C.ar      5 PHE5        0.0000 
     58 CZ        152.7400  165.4000   99.8400 C.ar      5 PHE5        0.0000 
     59 CZ        153.3600  166.0400   96.9800 C.ar      5 PHE5        0.0000 
     60 CZ        153.6700  166.3600   95.5400 C.ar      5 PHE5        0.0000 
     61 CZ        154.3700  162.2600  102.6300 C.ar      5 PHE5        0.0000 
     62 CZ        154.6800  162.5900  101.2000 C.ar      5 PHE5        0.0000 
     63 CZ        154.5700  164.3300   99.9900 C.ar      5 PHE5        0.0000 
     64 CZ        154.4600  166.0700   98.7900 C.ar      5 PHE5        0.0000 
     65 CZ        156.0800  162.9400  101.5800 C.ar      5 PHE5        0.0000 
     66 CZ        155.6600  164.3600  101.8100 C.ar      5 PHE5        0.0000 
     67 CZ        155.9700  164.6800  100.3800 C.ar      5 PHE5        0.0000 
     68 CZ        155.8600  166.4200   99.1700 C.ar      5 PHE5        0.0000 
     69 CZ        157.0700  164.7100  102.1900 C.ar      5 PHE5        0.0000 
     70 CZ        157.3800  165.0300  100.7600 C.ar      5 PHE5        0.0000 
     71 CZ        158.4800  165.0700  102.5700 C.ar      5 PHE5        0.0000 
     72 CZ        158.0600  166.4900  102.8000 C.ar      5 PHE5        0.0000 
     73 CZ        158.3700  166.8100  101.3700 C.ar      5 PHE5        0.0000 
     74 CZ        157.9500  168.2300  101.6000 C.ar      5 PHE5        0.0000 
     75 CZ        159.4700  166.8400  103.1800 C.ar      5 PHE5        0.0000 
     76 CA        156.3300  162.4500   95.2400 C.3       6 GLY6        0.0000 
     77 CA        156.2200  164.1900   94.0400 C.3       6 GLY6        0.0000 
     78 CA        155.8000  165.6100   94.2700 C.3       6 GLY6        0.0000 
     79 CA        157.2100  165.9600   94.6500 C.3       6 GLY6        0.0000 
     80 CA        158.8400  162.8300   97.4400 C.3       6 GLY6        0.0000 
     81 CA        158.1100  163.9300   99.1000 C.3       6 GLY6        0.0000 
     82 CA        158.4200  164.2500   97.6700 C.3       6 GLY6        0.0000 
     83 CA        159.8200  164.6000   98.0500 C.3       6 GLY6        0.0000 
     84 CA        158.7900  165.3900  101.1400 C.3       6 GLY6        0.0000 
     85 CA        159.1000  165.7100   99.7100 C.3       6 GLY6        0.0000 
     86 CA        159.4100  166.0300   98.2800 C.3       6 GLY6        0.0000 
     87 CA        160.1900  165.7400  101.5200 C.3       6 GLY6        0.0000 
     88 CA        160.5000  166.0600  100.0900 C.3       6 GLY6        0.0000 
     89 DU        155.4900  165.2900   95.7000 H         7 CUB7        0.0000 
     90 DU        154.7700  166.3900   97.3600 H         7 CUB7        0.0000 
     91 DU        155.0700  166.7100   95.9300 H         7 CUB7        0.0000 
     92 DU        156.3900  163.2600  100.1500 H         7 CUB7        0.0000 
     93 DU        156.2800  165.0000   98.9400 H         7 CUB7        0.0000 
     94 DU        156.5900  165.3200   97.5100 H         7 CUB7        0.0000 
     95 DU        156.1700  166.7400   97.7400 H         7 CUB7        0.0000 
     96 DU        157.6900  165.3500   99.3300 H         7 CUB7        0.0000 
     97 DU        158.0000  165.6700   97.8900 H         7 CUB7        0.0000 
     98 DU        158.6800  167.1300   99.9400 H         7 CUB7        0.0000 
@<TRIPOS>BOND
@<TRIPOS>SUBSTRUCTURE
     1 SER1        1 GROUP   
     2 ALA2        8 GROUP   
     3 ASP3       31 GROUP   
     4 LYS4       33 GROUP   
     5 PHE5       45 GROUP   
     6 GLY6       76 GROUP   
     7 CUB7       89 GROUP   
@<TRIPOS>SET

