#    Name: 6hz9_4_GDP
#    Modification time : Fri May 22 19:40:47 2020

@<TRIPOS>MOLECULE
6hz9_4_GDP
   40    42     1     0     1
SMALL
NO_CHARGES


@<TRIPOS>ATOM
      1 PB         68.7640  140.0310  145.0800 P.3       1 GDP1001     0.0000 
      2 O1B        68.3360  141.2830  144.4320 O.co2     1 GDP1001     0.0000 
      3 O2B        70.1990  139.8210  144.7980 O.co2     1 GDP1001     0.0000 
      4 O3B        67.9950  138.8940  144.5310 O.co2     1 GDP1001     0.0000 
      5 O3A        68.5370  140.1150  146.6740 O.3       1 GDP1001     0.0000 
      6 PA         67.2530  139.4580  147.4130 P.3       1 GDP1001     0.0000 
      7 O1A        66.1280  139.3140  146.4620 O.co2     1 GDP1001     0.0000 
      8 O2A        67.6650  138.1230  147.9010 O.co2     1 GDP1001     0.0000 
      9 O5'        66.7760  140.3790  148.6660 O.3       1 GDP1001     0.0000 
     10 C5'        67.1840  140.0290  149.9980 C.3       1 GDP1001     0.0000 
     11 C4'        66.4770  140.8030  151.1390 C.3       1 GDP1001     0.0000 
     12 O4'        66.7110  142.2380  150.8660 O.3       1 GDP1001     0.0000 
     13 C3'        64.9690  140.6640  151.2000 C.3       1 GDP1001     0.0000 
     14 O3'        64.5500  140.8420  152.5670 O.3       1 GDP1001     0.0000 
     15 C2'        64.5620  141.8180  150.3570 C.3       1 GDP1001     0.0000 
     16 O2'        63.1970  142.1510  150.5360 O.3       1 GDP1001     0.0000 
     17 C1'        65.4190  142.8820  150.9560 C.3       1 GDP1001     0.0000 
     18 N9         65.3030  144.0960  150.1330 N.pl3     1 GDP1001     0.0000 
     19 C8         65.8430  144.2030  148.9270 C.2       1 GDP1001     0.0000 
     20 N7         65.5480  145.3970  148.4380 N.2       1 GDP1001     0.0000 
     21 C5         64.8050  146.0260  149.3370 C.2       1 GDP1001     0.0000 
     22 C6         64.2620  147.2350  149.3070 C.2       1 GDP1001     0.0000 
     23 O6         64.4150  147.9780  148.3390 O.2       1 GDP1001     0.0000 
     24 N1         63.5210  147.6710  150.3920 N.am      1 GDP1001     0.0000 
     25 C2         63.3670  146.8120  151.4800 C.2       1 GDP1001     0.0000 
     26 N2         62.6660  147.2000  152.5330 N.pl3     1 GDP1001     0.0000 
     27 N3         63.9330  145.6000  151.4540 N.2       1 GDP1001     0.0000 
     28 C4         64.6500  145.2200  150.3900 C.2       1 GDP1001     0.0000 
     29 H5'        68.2470  140.2390  150.0450 H         1 GDP1001     0.0000 
     30 H5''       67.0180  138.9690  150.1620 H         1 GDP1001     0.0000 
     31 H4'        66.8630  140.4280  152.0700 H         1 GDP1001     0.0000 
     32 H3'        64.6090  139.7100  150.8310 H         1 GDP1001     0.0000 
     33 HO3'       63.5570  140.8260  152.6250 H         1 GDP1001     0.0000 
     34 H2'        64.8390  141.6370  149.3340 H         1 GDP1001     0.0000 
     35 HO2'       63.0150  142.3210  151.4990 H         1 GDP1001     0.0000 
     36 H1'        65.1620  143.0600  151.9870 H         1 GDP1001     0.0000 
     37 H8         66.4440  143.4410  148.4340 H         1 GDP1001     0.0000 
     38 HN1        63.1100  148.5810  150.3820 H         1 GDP1001     0.0000 
     39 HN21       62.2640  148.1140  152.5280 H         1 GDP1001     0.0000 
     40 HN22       62.5460  146.5930  153.3200 H         1 GDP1001     0.0000 
@<TRIPOS>BOND
     1    1    2 ar   
     2    1    3 ar   
     3    1    4 ar   
     4    1    5 1    
     5    5    6 1    
     6    6    7 ar   
     7    6    8 ar   
     8    6    9 1    
     9    9   10 1    
    10   10   11 1    
    11   10   29 1    
    12   10   30 1    
    13   11   12 1    
    14   11   13 1    
    15   11   31 1    
    16   12   17 1    
    17   13   14 1    
    18   13   15 1    
    19   13   32 1    
    20   14   33 1    
    21   15   16 1    
    22   15   17 1    
    23   15   34 1    
    24   16   35 1    
    25   17   18 1    
    26   17   36 1    
    27   18   19 1    
    28   18   28 1    
    29   19   20 2    
    30   19   37 1    
    31   20   21 1    
    32   21   22 1    
    33   21   28 2    
    34   22   23 2    
    35   22   24 am   
    36   24   25 1    
    37   24   38 1    
    38   25   26 1    
    39   25   27 2    
    40   26   39 1    
    41   26   40 1    
    42   27   28 1    
@<TRIPOS>SUBSTRUCTURE
     1 GDP1001     1 GROUP   
@<TRIPOS>SET
ATOM$ORANGE STATIC     ATOMS   COLORGROUP SYSTEM 
20 10 10 11 11 13 13 15 15 17 17 19 19 21 21 22 22 25 \
25 28 28 

