#    Name: 6hz9_5_GDP
#    Modification time : Fri May 22 19:40:54 2020

@<TRIPOS>MOLECULE
6hz9_5_GDP
   40    42     1     0     1
SMALL
NO_CHARGES


@<TRIPOS>ATOM
      1 PB         89.5420  113.6800  158.2430 P.3       1 GDP1001     0.0000 
      2 O1B        89.9050  112.4080  157.5870 O.co2     1 GDP1001     0.0000 
      3 O2B        90.2950  114.7890  157.6170 O.co2     1 GDP1001     0.0000 
      4 O3B        88.0930  113.9200  158.0800 O.co2     1 GDP1001     0.0000 
      5 O3A        89.8890  113.6040  159.7990 O.3       1 GDP1001     0.0000 
      6 PA         89.6930  114.9310  160.6670 P.3       1 GDP1001     0.0000 
      7 O1A        90.4180  116.0510  160.0250 O.co2     1 GDP1001     0.0000 
      8 O2A        88.2510  115.2590  160.7440 O.co2     1 GDP1001     0.0000 
      9 O5'        90.2670  114.7140  162.1620 O.3       1 GDP1001     0.0000 
     10 C5'        89.4870  114.0190  163.1400 C.3       1 GDP1001     0.0000 
     11 C4'        90.4080  113.4790  164.2720 C.3       1 GDP1001     0.0000 
     12 O4'        91.1920  114.5740  164.9020 O.3       1 GDP1001     0.0000 
     13 C3'        89.6450  112.8760  165.4470 C.3       1 GDP1001     0.0000 
     14 O3'        90.5280  112.0310  166.2250 O.3       1 GDP1001     0.0000 
     15 C2'        89.2900  114.1350  166.2030 C.3       1 GDP1001     0.0000 
     16 O2'        88.7870  113.8390  167.5110 O.3       1 GDP1001     0.0000 
     17 C1'        90.6510  114.7850  166.2650 C.3       1 GDP1001     0.0000 
     18 N9         90.5400  116.2030  166.6780 N.pl3     1 GDP1001     0.0000 
     19 C8         90.5850  117.2470  165.8690 C.2       1 GDP1001     0.0000 
     20 N7         90.4400  118.3470  166.5990 N.2       1 GDP1001     0.0000 
     21 C5         90.2850  117.9800  167.8650 C.2       1 GDP1001     0.0000 
     22 C6         90.1000  118.6970  168.9690 C.2       1 GDP1001     0.0000 
     23 O6         90.0470  119.9240  168.9240 O.2       1 GDP1001     0.0000 
     24 N1         89.9630  118.0430  170.1920 N.am      1 GDP1001     0.0000 
     25 C2         90.0290  116.6500  170.2130 C.2       1 GDP1001     0.0000 
     26 N2         89.9040  115.9810  171.3530 N.pl3     1 GDP1001     0.0000 
     27 N3         90.2160  115.9870  169.0690 N.2       1 GDP1001     0.0000 
     28 C4         90.3460  116.6480  167.9120 C.2       1 GDP1001     0.0000 
     29 H5'        89.0050  113.1740  162.6500 H         1 GDP1001     0.0000 
     30 H5''       88.7190  114.7020  163.4780 H         1 GDP1001     0.0000 
     31 H4'        91.0280  112.7170  163.8030 H         1 GDP1001     0.0000 
     32 H3'        88.7770  112.3000  165.1350 H         1 GDP1001     0.0000 
     33 HO3'       91.4770  112.3360  166.1730 H         1 GDP1001     0.0000 
     34 H2'        88.6070  114.7580  165.6650 H         1 GDP1001     0.0000 
     35 HO2'       89.4530  113.2670  167.9940 H         1 GDP1001     0.0000 
     36 H1'        91.2710  114.2590  166.9790 H         1 GDP1001     0.0000 
     37 H8         90.7430  117.2040  164.7970 H         1 GDP1001     0.0000 
     38 HN1        89.8230  118.5630  171.0350 H         1 GDP1001     0.0000 
     39 HN21       89.7510  116.4760  172.2080 H         1 GDP1001     0.0000 
     40 HN22       89.9610  114.9820  171.3510 H         1 GDP1001     0.0000 
@<TRIPOS>BOND
     1    1    2 ar   
     2    1    3 ar   
     3    1    4 ar   
     4    1    5 1    
     5    5    6 1    
     6    6    7 ar   
     7    6    8 ar   
     8    6    9 1    
     9    9   10 1    
    10   10   11 1    
    11   10   29 1    
    12   10   30 1    
    13   11   12 1    
    14   11   13 1    
    15   11   31 1    
    16   12   17 1    
    17   13   14 1    
    18   13   15 1    
    19   13   32 1    
    20   14   33 1    
    21   15   16 1    
    22   15   17 1    
    23   15   34 1    
    24   16   35 1    
    25   17   18 1    
    26   17   36 1    
    27   18   19 1    
    28   18   28 1    
    29   19   20 2    
    30   19   37 1    
    31   20   21 1    
    32   21   22 1    
    33   21   28 2    
    34   22   23 2    
    35   22   24 am   
    36   24   25 1    
    37   24   38 1    
    38   25   26 1    
    39   25   27 2    
    40   26   39 1    
    41   26   40 1    
    42   27   28 1    
@<TRIPOS>SUBSTRUCTURE
     1 GDP1001     1 GROUP   
@<TRIPOS>SET
ATOM$ORANGE STATIC     ATOMS   COLORGROUP SYSTEM 
20 10 10 11 11 13 13 15 15 17 17 19 19 21 21 22 22 25 \
25 28 28 

