#    Name: 6hz9_11_GDP_CAVITY_N1_8
#    Modification time : Fri May 22 19:41:23 2020

@<TRIPOS>MOLECULE
6hz9_11_GDP_CAVITY_N1_8
  191     0     7     0     0
SMALL
NO_CHARGES


@<TRIPOS>ATOM
      1 OG        157.0300  139.4600  160.9300 O.3       1 SER1        0.0000 
      2 OG        159.1700  138.7100  159.6600 O.3       1 SER1        0.0000 
      3 OG        158.1300  139.5000  162.7500 O.3       1 SER1        0.0000 
      4 OG        158.4400  139.8200  161.3200 O.3       1 SER1        0.0000 
      5 OG        158.7500  140.1400  159.8800 O.3       1 SER1        0.0000 
      6 OG        158.3300  141.5600  160.1100 O.3       1 SER1        0.0000 
      7 OG        158.6400  141.8800  158.6800 O.3       1 SER1        0.0000 
      8 OG        160.2800  133.2000  166.5200 O.3       1 SER1        0.0000 
      9 OG        160.5900  133.5200  165.0800 O.3       1 SER1        0.0000 
     10 OG        160.4800  135.2600  163.8800 O.3       1 SER1        0.0000 
     11 OG        159.7600  136.3600  165.5400 O.3       1 SER1        0.0000 
     12 OG        160.9900  137.6400  159.8100 O.3       1 SER1        0.0000 
     13 OG        160.5700  139.0700  160.0400 O.3       1 SER1        0.0000 
     14 OG        159.5400  139.8500  163.1300 O.3       1 SER1        0.0000 
     15 OG        159.8500  140.1700  161.7000 O.3       1 SER1        0.0000 
     16 OG        159.7400  141.9100  160.4900 O.3       1 SER1        0.0000 
     17 OG        160.0500  142.2300  159.0600 O.3       1 SER1        0.0000 
     18 OG        161.4700  137.0400  164.4900 O.3       1 SER1        0.0000 
     19 OG        161.7800  137.3600  163.0600 O.3       1 SER1        0.0000 
     20 OG        162.0900  137.6800  161.6300 O.3       1 SER1        0.0000 
     21 OG        161.0500  138.4600  164.7200 O.3       1 SER1        0.0000 
     22 OG        161.3600  138.7800  163.2900 O.3       1 SER1        0.0000 
     23 OG        161.6700  139.1000  161.8500 O.3       1 SER1        0.0000 
     24 OG        161.1400  142.2600  160.8800 O.3       1 SER1        0.0000 
     25 OG        161.4500  142.5800  159.4400 O.3       1 SER1        0.0000 
     26 OG        159.2700  145.8900  164.4300 O.3       1 SER1        0.0000 
     27 OG        158.8500  147.3100  164.6500 O.3       1 SER1        0.0000 
     28 OG        164.5300  137.2500  158.9100 O.3       1 SER1        0.0000 
     29 OG        161.1000  144.8200  164.5800 O.3       1 SER1        0.0000 
     30 OG        160.6800  146.2400  164.8100 O.3       1 SER1        0.0000 
     31 N         154.4800  141.6300  162.4400 N.am      2 ALA2        0.0000 
     32 O         158.4900  137.2600  157.6100 O.2       2 ALA2        0.0000 
     33 O         158.8000  137.5800  156.1800 O.2       2 ALA2        0.0000 
     34 N         159.1100  137.9000  154.7500 N.am      2 ALA2        0.0000 
     35 N         158.3800  139.0000  156.4100 N.am      2 ALA2        0.0000 
     36 N         157.9600  140.4200  156.6400 N.am      2 ALA2        0.0000 
     37 N         156.3100  140.5600  162.5900 N.am      2 ALA2        0.0000 
     38 O         160.6200  136.5100  156.3400 O.2       2 ALA2        0.0000 
     39 O         159.8900  137.6100  158.0000 O.2       2 ALA2        0.0000 
     40 O         160.2000  137.9300  156.5600 O.2       2 ALA2        0.0000 
     41 N         160.0900  139.6800  155.3600 N.am      2 ALA2        0.0000 
     42 N         157.7100  140.9200  162.9800 N.am      2 ALA2        0.0000 
     43 O         161.4100  136.2200  159.5800 O.2       2 ALA2        0.0000 
     44 O         161.7200  136.5400  158.1500 O.2       2 ALA2        0.0000 
     45 N         159.1200  141.2700  163.3600 N.am      2 ALA2        0.0000 
     46 N         158.7000  142.6900  163.5900 N.am      2 ALA2        0.0000 
     47 O         163.5500  135.4700  158.3000 O.2       2 ALA2        0.0000 
     48 N         160.5500  136.0700  168.7900 N.am      2 ALA2        0.0000 
     49 N         160.8500  136.3900  167.3500 N.am      2 ALA2        0.0000 
     50 N         160.7500  138.1400  166.1500 N.am      2 ALA2        0.0000 
     51 N         160.3300  139.5600  166.3800 N.am      2 ALA2        0.0000 
     52 N         160.6400  139.8800  164.9500 N.am      2 ALA2        0.0000 
     53 N         160.5300  141.6200  163.7400 N.am      2 ALA2        0.0000 
     54 N         160.1100  143.0400  163.9700 N.am      2 ALA2        0.0000 
     55 N         159.3800  144.1500  165.6300 N.am      2 ALA2        0.0000 
     56 N         161.7500  134.3600  171.8100 N.am      2 ALA2        0.0000 
     57 N         162.0600  134.6800  170.3700 N.am      2 ALA2        0.0000 
     58 N         161.2300  137.5300  170.8300 N.am      2 ALA2        0.0000 
     59 N         161.5300  137.8500  169.4000 N.am      2 ALA2        0.0000 
     60 N         161.8400  138.1700  167.9700 N.am      2 ALA2        0.0000 
     61 N         160.8100  138.9500  171.0600 N.am      2 ALA2        0.0000 
     62 N         161.1200  139.2700  169.6300 N.am      2 ALA2        0.0000 
     63 N         161.4300  139.5900  168.1900 N.am      2 ALA2        0.0000 
     64 N         161.7300  139.9100  166.7600 N.am      2 ALA2        0.0000 
     65 N         161.0100  141.0100  168.4200 N.am      2 ALA2        0.0000 
     66 N         161.3200  141.3300  166.9900 N.am      2 ALA2        0.0000 
     67 N         161.6200  141.6500  165.5600 N.am      2 ALA2        0.0000 
     68 N         161.2100  143.0800  165.7800 N.am      2 ALA2        0.0000 
     69 OD1       155.5200  140.8500  159.3500 O.co2     3 ASP3        0.0000 
     70 OD1       157.6500  140.1000  158.0700 O.co2     3 ASP3        0.0000 
     71 OD1       156.9200  141.2100  159.7300 O.co2     3 ASP3        0.0000 
     72 OD1       157.2300  141.5300  158.3000 O.co2     3 ASP3        0.0000 
     73 OD1       156.5000  142.6300  159.9600 O.co2     3 ASP3        0.0000 
     74 OD1       160.9300  136.8300  154.9000 O.co2     3 ASP3        0.0000 
     75 OD1       162.1400  135.1200  157.9200 O.co2     3 ASP3        0.0000 
     76 OD1       162.0300  136.8600  156.7200 O.co2     3 ASP3        0.0000 
     77 OD1       161.6100  138.2900  156.9500 O.co2     3 ASP3        0.0000 
     78 OD1       163.8500  135.7900  156.8700 O.co2     3 ASP3        0.0000 
     79 OD1       163.1300  136.8900  158.5300 O.co2     3 ASP3        0.0000 
     80 OD1       162.7100  138.3200  158.7600 O.co2     3 ASP3        0.0000 
     81 OD1       163.0200  138.6400  157.3300 O.co2     3 ASP3        0.0000 
     82 OD1       161.9800  139.4200  160.4200 O.co2     3 ASP3        0.0000 
     83 OD1       162.2900  139.7400  158.9900 O.co2     3 ASP3        0.0000 
     84 OD1       162.6000  140.0600  157.5600 O.co2     3 ASP3        0.0000 
     85 OD1       163.5000  138.0300  162.0100 O.co2     3 ASP3        0.0000 
     86 OD1       163.8100  138.3500  160.5800 O.co2     3 ASP3        0.0000 
     87 OD1       164.1200  138.6700  159.1400 O.co2     3 ASP3        0.0000 
     88 OD1       164.4200  138.9900  157.7100 O.co2     3 ASP3        0.0000 
     89 OD1       164.0100  140.4100  157.9400 O.co2     3 ASP3        0.0000 
     90 OD1       163.5900  141.8300  158.1700 O.co2     3 ASP3        0.0000 
     91 OD1       164.9000  138.3800  162.3900 O.co2     3 ASP3        0.0000 
     92 OD1       166.1400  139.6600  156.6600 O.co2     3 ASP3        0.0000 
     93 OD1       165.7200  141.0900  156.8900 O.co2     3 ASP3        0.0000 
     94 OD1       164.1500  136.4900  172.8000 O.co2     3 ASP3        0.0000 
     95 NZ        154.7900  141.9600  161.0100 N.4       4 LYS4        0.0000 
     96 NZ        159.7800  139.3500  156.7900 N.4       4 LYS4        0.0000 
     97 NZ        159.0600  140.4600  158.4500 N.4       4 LYS4        0.0000 
     98 NZ        159.3700  140.7800  157.0200 N.4       4 LYS4        0.0000 
     99 NZ        161.1900  139.7100  157.1700 N.4       4 LYS4        0.0000 
    100 NZ        160.4600  140.8100  158.8300 N.4       4 LYS4        0.0000 
    101 NZ        160.9400  140.2000  163.5100 N.4       4 LYS4        0.0000 
    102 NZ        161.2500  140.5200  162.0800 N.4       4 LYS4        0.0000 
    103 NZ        161.5600  140.8400  160.6500 N.4       4 LYS4        0.0000 
    104 NZ        161.8700  141.1600  159.2200 N.4       4 LYS4        0.0000 
    105 NZ        160.8400  141.9400  162.3100 N.4       4 LYS4        0.0000 
    106 NZ        162.4600  138.8100  165.1000 N.4       4 LYS4        0.0000 
    107 NZ        162.7700  139.1300  163.6700 N.4       4 LYS4        0.0000 
    108 NZ        163.0800  139.4500  162.2400 N.4       4 LYS4        0.0000 
    109 NZ        162.0400  140.2300  165.3300 N.4       4 LYS4        0.0000 
    110 NZ        161.5200  143.4000  164.3500 N.4       4 LYS4        0.0000 
    111 NZ        162.1200  135.5000  175.2800 N.4       4 LYS4        0.0000 
    112 NZ        162.4300  135.8200  173.8500 N.4       4 LYS4        0.0000 
    113 NZ        164.1800  139.4800  164.0500 N.4       4 LYS4        0.0000 
    114 NZ        163.4500  140.5800  165.7100 N.4       4 LYS4        0.0000 
    115 NZ        163.8400  136.1700  174.2300 N.4       4 LYS4        0.0000 
    116 CZ        156.2400  139.7500  157.6900 C.ar      5 PHE5        0.0000 
    117 CZ        155.2100  140.5300  160.7800 C.ar      5 PHE5        0.0000 
    118 CZ        157.7600  138.3600  159.2700 C.ar      5 PHE5        0.0000 
    119 CZ        158.0700  138.6800  157.8400 C.ar      5 PHE5        0.0000 
    120 CZ        157.3400  139.7800  159.5000 C.ar      5 PHE5        0.0000 
    121 CZ        156.2000  142.3100  161.3900 C.ar      5 PHE5        0.0000 
    122 CZ        155.7800  143.7300  161.6200 C.ar      5 PHE5        0.0000 
    123 CZ        158.0200  141.2400  161.5400 C.ar      5 PHE5        0.0000 
    124 CZ        157.6000  142.6600  161.7700 C.ar      5 PHE5        0.0000 
    125 CZ        156.7700  145.5000  162.2300 C.ar      5 PHE5        0.0000 
    126 CZ        159.8700  134.6200  166.7400 C.ar      5 PHE5        0.0000 
    127 CZ        160.1800  134.9400  165.3100 C.ar      5 PHE5        0.0000 
    128 CZ        159.4300  141.5900  161.9300 C.ar      5 PHE5        0.0000 
    129 CZ        158.2800  144.1100  163.8200 C.ar      5 PHE5        0.0000 
    130 CZ        157.8600  145.5400  164.0400 C.ar      5 PHE5        0.0000 
    131 CZ        161.3800  133.2300  168.3300 C.ar      5 PHE5        0.0000 
    132 CZ        161.6900  133.5500  166.9000 C.ar      5 PHE5        0.0000 
    133 CZ        162.0000  133.8700  165.4700 C.ar      5 PHE5        0.0000 
    134 CZ        160.6600  134.3300  169.9900 C.ar      5 PHE5        0.0000 
    135 CZ        160.9600  134.6500  168.5600 C.ar      5 PHE5        0.0000 
    136 CZ        161.2700  134.9700  167.1300 C.ar      5 PHE5        0.0000 
    137 CZ        161.5800  135.2900  165.6900 C.ar      5 PHE5        0.0000 
    138 CZ        160.2400  135.7500  170.2200 C.ar      5 PHE5        0.0000 
    139 CZ        159.6900  144.4700  164.2000 C.ar      5 PHE5        0.0000 
    140 CZ        162.3700  135.0000  168.9400 C.ar      5 PHE5        0.0000 
    141 CZ        161.0300  135.4600  173.4700 C.ar      5 PHE5        0.0000 
    142 CZ        161.3400  135.7800  172.0300 C.ar      5 PHE5        0.0000 
    143 CZ        161.9500  136.4300  169.1700 C.ar      5 PHE5        0.0000 
    144 CZ        162.2600  136.7500  167.7400 C.ar      5 PHE5        0.0000 
    145 CZ        162.5700  137.0700  166.3000 C.ar      5 PHE5        0.0000 
    146 CZ        160.6100  136.8900  173.6900 C.ar      5 PHE5        0.0000 
    147 CZ        160.9200  137.2100  172.2600 C.ar      5 PHE5        0.0000 
    148 CZ        163.4700  135.0400  170.7600 C.ar      5 PHE5        0.0000 
    149 CZ        163.0500  136.4600  170.9800 C.ar      5 PHE5        0.0000 
    150 CZ        162.9400  138.2000  169.7800 C.ar      5 PHE5        0.0000 
    151 CZ        163.2500  138.5200  168.3500 C.ar      5 PHE5        0.0000 
    152 CZ        163.5600  138.8400  166.9200 C.ar      5 PHE5        0.0000 
    153 CZ        163.8700  139.1600  165.4800 C.ar      5 PHE5        0.0000 
    154 CZ        164.3500  138.5500  170.1600 C.ar      5 PHE5        0.0000 
    155 CA        155.8900  141.9900  162.8200 C.3       6 GLY6        0.0000 
    156 CA        155.1600  143.0900  164.4800 C.3       6 GLY6        0.0000 
    157 CA        155.4700  143.4100  163.0500 C.3       6 GLY6        0.0000 
    158 CA        159.5900  137.2900  159.4300 C.3       6 GLY6        0.0000 
    159 CA        160.5100  138.2500  155.1300 C.3       6 GLY6        0.0000 
    160 CA        157.2900  142.3400  163.2100 C.3       6 GLY6        0.0000 
    161 CA        156.8800  143.7600  163.4300 C.3       6 GLY6        0.0000 
    162 CA        156.1500  144.8600  165.0900 C.3       6 GLY6        0.0000 
    163 CA        156.4600  145.1800  163.6600 C.3       6 GLY6        0.0000 
    164 CA        159.3400  137.7800  165.7700 C.3       6 GLY6        0.0000 
    165 CA        157.2500  144.9000  166.9100 C.3       6 GLY6        0.0000 
    166 CA        157.5600  145.2200  165.4800 C.3       6 GLY6        0.0000 
    167 CA        161.8900  135.6100  164.2600 C.3       6 GLY6        0.0000 
    168 CA        162.8200  136.5700  159.9600 C.3       6 GLY6        0.0000 
    169 CA        164.2200  136.9300  160.3500 C.3       6 GLY6        0.0000 
    170 CA        162.8800  137.3900  164.8700 C.3       6 GLY6        0.0000 
    171 CA        163.1900  137.7100  163.4400 C.3       6 GLY6        0.0000 
    172 CA        163.1600  134.7200  172.1900 C.3       6 GLY6        0.0000 
    173 CA        164.6000  138.0600  163.8200 C.3       6 GLY6        0.0000 
    174 DU        156.6100  140.8900  161.1600 H         7 CUB7        0.0000 
    175 DU        159.4800  139.0300  158.2200 H         7 CUB7        0.0000 
    176 DU        161.3000  137.9600  158.3800 H         7 CUB7        0.0000 
    177 DU        160.8800  139.3900  158.6100 H         7 CUB7        0.0000 
    178 DU        160.1600  140.4900  160.2700 H         7 CUB7        0.0000 
    179 DU        157.1400  146.6400  165.7000 H         7 CUB7        0.0000 
    180 DU        161.1600  136.7100  165.9200 H         7 CUB7        0.0000 
    181 DU        162.4000  138.0000  160.1900 H         7 CUB7        0.0000 
    182 DU        158.9600  145.5700  165.8600 H         7 CUB7        0.0000 
    183 DU        158.5400  146.9900  166.0900 H         7 CUB7        0.0000 
    184 DU        161.6400  136.1100  170.6000 H         7 CUB7        0.0000 
    185 DU        162.1500  138.4900  166.5300 H         7 CUB7        0.0000 
    186 DU        162.7400  136.1400  172.4200 H         7 CUB7        0.0000 
    187 DU        162.3200  137.5600  172.6400 H         7 CUB7        0.0000 
    188 DU        162.6300  137.8800  171.2100 H         7 CUB7        0.0000 
    189 DU        162.5200  139.6200  170.0100 H         7 CUB7        0.0000 
    190 DU        162.8300  139.9400  168.5800 H         7 CUB7        0.0000 
    191 DU        163.1400  140.2600  167.1400 H         7 CUB7        0.0000 
@<TRIPOS>BOND
@<TRIPOS>SUBSTRUCTURE
     1 SER1        1 GROUP   
     2 ALA2       31 GROUP   
     3 ASP3       69 GROUP   
     4 LYS4       95 GROUP   
     5 PHE5      116 GROUP   
     6 GLY6      155 GROUP   
     7 CUB7      174 GROUP   
@<TRIPOS>SET

