#    Name: 6hz9_10_GDP_CAVITY_N1_6
#    Modification time : Fri May 22 19:41:16 2020

@<TRIPOS>MOLECULE
6hz9_10_GDP_CAVITY_N1_6
  171     0     7     0     0
SMALL
NO_CHARGES


@<TRIPOS>ATOM
      1 OG        176.7300  114.2700  146.9800 O.3       1 SER1        0.0000 
      2 OG        178.5600  113.2000  147.1300 O.3       1 SER1        0.0000 
      3 OG        180.0300  114.3700  152.4200 O.3       1 SER1        0.0000 
      4 OG        180.3300  114.6900  150.9900 O.3       1 SER1        0.0000 
      5 OG        179.9200  116.1100  151.2200 O.3       1 SER1        0.0000 
      6 OG        183.6100  111.4200  147.8200 O.3       1 SER1        0.0000 
      7 OG        182.5800  112.2000  150.9200 O.3       1 SER1        0.0000 
      8 OG        182.8900  112.5200  149.4900 O.3       1 SER1        0.0000 
      9 OG        183.8100  113.4800  145.1900 O.3       1 SER1        0.0000 
     10 OG        184.1200  113.8000  143.7600 O.3       1 SER1        0.0000 
     11 OG        184.4300  114.1200  142.3200 O.3       1 SER1        0.0000 
     12 OG        183.4000  114.9000  145.4200 O.3       1 SER1        0.0000 
     13 OG        183.7000  115.2200  143.9800 O.3       1 SER1        0.0000 
     14 OG        181.4300  114.7200  152.8100 O.3       1 SER1        0.0000 
     15 OG        181.7400  115.0400  151.3700 O.3       1 SER1        0.0000 
     16 OG        186.8000  104.3400  148.5000 O.3       1 SER1        0.0000 
     17 OG        187.1100  104.6600  147.0700 O.3       1 SER1        0.0000 
     18 OG        186.0800  105.4400  150.1600 O.3       1 SER1        0.0000 
     19 OG        186.3900  105.7600  148.7300 O.3       1 SER1        0.0000 
     20 OG        186.7000  106.0800  147.2900 O.3       1 SER1        0.0000 
     21 OG        185.6600  106.8600  150.3900 O.3       1 SER1        0.0000 
     22 OG        185.9700  107.1800  148.9600 O.3       1 SER1        0.0000 
     23 OG        185.0200  111.7700  148.2100 O.3       1 SER1        0.0000 
     24 OG        184.2900  112.8700  149.8700 O.3       1 SER1        0.0000 
     25 OG        184.9100  113.5100  147.0000 O.3       1 SER1        0.0000 
     26 OG        186.6500  108.6400  151.0000 O.3       1 SER1        0.0000 
     27 OG        186.9600  108.9600  149.5700 O.3       1 SER1        0.0000 
     28 OG        186.2300  110.0600  151.2300 O.3       1 SER1        0.0000 
     29 OG        186.5400  110.3800  149.7900 O.3       1 SER1        0.0000 
     30 OG        185.8100  111.4800  151.4500 O.3       1 SER1        0.0000 
     31 OG        186.1200  111.8000  150.0200 O.3       1 SER1        0.0000 
     32 N         178.0300  116.3700  146.1600 N.am      2 ALA2        0.0000 
     33 O         181.0000  112.7800  144.4200 O.2       2 ALA2        0.0000 
     34 O         179.9600  113.5600  147.5200 O.2       2 ALA2        0.0000 
     35 O         180.2700  113.8800  146.0800 O.2       2 ALA2        0.0000 
     36 N         179.1300  116.4000  147.9700 N.am      2 ALA2        0.0000 
     37 O         182.5200  111.3900  146.0100 O.2       2 ALA2        0.0000 
     38 O         182.8300  111.7100  144.5800 O.2       2 ALA2        0.0000 
     39 N         180.8600  111.5300  151.9700 N.am      2 ALA2        0.0000 
     40 O         182.1000  112.8100  146.2400 O.2       2 ALA2        0.0000 
     41 O         182.4100  113.1300  144.8100 O.2       2 ALA2        0.0000 
     42 N         180.1400  112.6300  153.6300 N.am      2 ALA2        0.0000 
     43 O         183.9200  111.7400  146.3900 O.2       2 ALA2        0.0000 
     44 O         184.2300  112.0600  144.9600 O.2       2 ALA2        0.0000 
     45 O         184.5400  112.3800  143.5300 O.2       2 ALA2        0.0000 
     46 N         181.8500  113.3000  152.5800 N.am      2 ALA2        0.0000 
     47 O         185.6400  112.4100  145.3400 O.2       2 ALA2        0.0000 
     48 N         183.9900  112.5500  151.3000 N.am      2 ALA2        0.0000 
     49 N         183.2600  113.6500  152.9600 N.am      2 ALA2        0.0000 
     50 O         188.2100  104.6900  148.8800 O.2       2 ALA2        0.0000 
     51 O         188.5200  105.0100  147.4500 O.2       2 ALA2        0.0000 
     52 N         187.0700  107.2200  150.7700 N.am      2 ALA2        0.0000 
     53 N         185.9200  109.7400  152.6600 N.am      2 ALA2        0.0000 
     54 O         186.7400  112.4400  147.1600 O.2       2 ALA2        0.0000 
     55 N         185.3900  112.9000  151.6800 N.am      2 ALA2        0.0000 
     56 N         189.6200  105.0400  149.2600 N.am      2 ALA2        0.0000 
     57 N         188.2700  105.5000  153.7900 N.am      2 ALA2        0.0000 
     58 N         188.5800  105.8200  152.3600 N.am      2 ALA2        0.0000 
     59 N         188.1600  107.2500  152.5800 N.am      2 ALA2        0.0000 
     60 N         188.0500  108.9900  151.3800 N.am      2 ALA2        0.0000 
     61 N         187.3300  110.0900  153.0400 N.am      2 ALA2        0.0000 
     62 N         186.9100  111.5100  153.2700 N.am      2 ALA2        0.0000 
     63 O         188.1400  112.8000  147.5400 O.2       2 ALA2        0.0000 
     64 N         189.2600  107.2800  154.4000 N.am      2 ALA2        0.0000 
     65 N         189.5700  107.6000  152.9700 N.am      2 ALA2        0.0000 
     66 N         188.8400  108.7000  154.6300 N.am      2 ALA2        0.0000 
     67 N         189.1500  109.0200  153.1900 N.am      2 ALA2        0.0000 
     68 N         188.4300  110.1200  154.8600 N.am      2 ALA2        0.0000 
     69 OD1       181.3100  113.1000  142.9900 O.co2     3 ASP3        0.0000 
     70 OD1       179.8500  115.3000  146.3100 O.co2     3 ASP3        0.0000 
     71 OD1       180.1600  115.6200  144.8800 O.co2     3 ASP3        0.0000 
     72 OD1       183.1300  112.0300  143.1500 O.co2     3 ASP3        0.0000 
     73 OD1       181.2600  115.6500  146.6900 O.co2     3 ASP3        0.0000 
     74 OD1       181.5700  115.9700  145.2600 O.co2     3 ASP3        0.0000 
     75 OD1       181.8800  116.2900  143.8300 O.co2     3 ASP3        0.0000 
     76 OD1       184.1800  114.6200  148.6600 O.co2     3 ASP3        0.0000 
     77 OD1       184.4900  114.9400  147.2300 O.co2     3 ASP3        0.0000 
     78 NZ        181.2000  114.8400  141.7900 N.4       4 LYS4        0.0000 
     79 NZ        182.6100  115.1900  142.1700 N.4       4 LYS4        0.0000 
     80 NZ        180.2300  116.4300  149.7900 N.4       4 LYS4        0.0000 
     81 NZ        180.5300  116.7500  148.3500 N.4       4 LYS4        0.0000 
     82 NZ        182.7800  114.2600  148.2800 N.4       4 LYS4        0.0000 
     83 NZ        183.0900  114.5800  146.8500 N.4       4 LYS4        0.0000 
     84 NZ        184.0100  115.5400  142.5500 N.4       4 LYS4        0.0000 
     85 NZ        182.0500  115.3600  149.9400 N.4       4 LYS4        0.0000 
     86 NZ        182.3600  115.6800  148.5100 N.4       4 LYS4        0.0000 
     87 NZ        182.9800  116.3300  145.6400 N.4       4 LYS4        0.0000 
     88 NZ        183.2900  116.6500  144.2100 N.4       4 LYS4        0.0000 
     89 NZ        181.6300  116.7900  150.1700 N.4       4 LYS4        0.0000 
     90 NZ        185.7000  113.2200  150.2500 N.4       4 LYS4        0.0000 
     91 NZ        186.0100  113.5500  148.8200 N.4       4 LYS4        0.0000 
     92 NZ        187.5300  112.1600  150.4000 N.4       4 LYS4        0.0000 
     93 NZ        186.8000  113.2600  152.0600 N.4       4 LYS4        0.0000 
     94 NZ        187.1100  113.5800  150.6300 N.4       4 LYS4        0.0000 
     95 NZ        186.0700  114.3600  153.7200 N.4       4 LYS4        0.0000 
     96 NZ        186.3800  114.6800  152.2900 N.4       4 LYS4        0.0000 
     97 NZ        188.6200  112.1900  152.2200 N.4       4 LYS4        0.0000 
     98 NZ        188.9300  112.5100  150.7900 N.4       4 LYS4        0.0000 
     99 NZ        188.2100  113.6100  152.4500 N.4       4 LYS4        0.0000 
    100 NZ        191.4000  106.5300  153.1200 N.4       4 LYS4        0.0000 
    101 CZ        179.7600  111.4900  150.1500 C.ar      5 PHE5        0.0000 
    102 CZ        179.3500  112.9200  150.3800 C.ar      5 PHE5        0.0000 
    103 CZ        179.6600  113.2400  148.9500 C.ar      5 PHE5        0.0000 
    104 CZ        179.2400  114.6600  149.1800 C.ar      5 PHE5        0.0000 
    105 CZ        180.4400  112.9500  152.2000 C.ar      5 PHE5        0.0000 
    106 CZ        183.5700  113.9700  151.5300 C.ar      5 PHE5        0.0000 
    107 CZ        183.4600  115.7200  150.3200 C.ar      5 PHE5        0.0000 
    108 CZ        187.9000  104.3700  150.3100 C.ar      5 PHE5        0.0000 
    109 CZ        187.1800  105.4700  151.9700 C.ar      5 PHE5        0.0000 
    110 CZ        187.4800  105.7900  150.5400 C.ar      5 PHE5        0.0000 
    111 CZ        187.7900  106.1100  149.1100 C.ar      5 PHE5        0.0000 
    112 CZ        188.1000  106.4300  147.6800 C.ar      5 PHE5        0.0000 
    113 CZ        187.3700  107.5400  149.3400 C.ar      5 PHE5        0.0000 
    114 CZ        187.6800  107.8600  147.9100 C.ar      5 PHE5        0.0000 
    115 CZ        188.8900  106.1500  150.9200 C.ar      5 PHE5        0.0000 
    116 CZ        188.4700  107.5700  151.1500 C.ar      5 PHE5        0.0000 
    117 CZ        188.3600  109.3100  149.9500 C.ar      5 PHE5        0.0000 
    118 CZ        189.6800  105.8600  154.1700 C.ar      5 PHE5        0.0000 
    119 CZ        189.8800  107.9200  151.5300 C.ar      5 PHE5        0.0000 
    120 CZ        189.4600  109.3400  151.7600 C.ar      5 PHE5        0.0000 
    121 CZ        189.0400  110.7600  151.9900 C.ar      5 PHE5        0.0000 
    122 CZ        189.3500  111.0900  150.5600 C.ar      5 PHE5        0.0000 
    123 CZ        190.9800  107.9500  153.3500 C.ar      5 PHE5        0.0000 
    124 CZ        190.8700  109.7000  152.1400 C.ar      5 PHE5        0.0000 
    125 CA        179.4800  114.1700  142.8400 C.3       6 GLY6        0.0000 
    126 CA        178.4500  114.9500  145.9300 C.3       6 GLY6        0.0000 
    127 CA        178.7600  115.2700  144.5000 C.3       6 GLY6        0.0000 
    128 CA        180.0700  111.8100  148.7200 C.3       6 GLY6        0.0000 
    129 CA        180.5800  114.2000  144.6500 C.3       6 GLY6        0.0000 
    130 CA        180.8900  114.5200  143.2200 C.3       6 GLY6        0.0000 
    131 CA        180.4700  115.9400  143.4500 C.3       6 GLY6        0.0000 
    132 CA        182.2100  111.0700  147.4400 C.3       6 GLY6        0.0000 
    133 CA        181.1700  111.8500  150.5400 C.3       6 GLY6        0.0000 
    134 CA        181.4800  112.1700  149.1000 C.3       6 GLY6        0.0000 
    135 CA        181.7900  112.4900  147.6700 C.3       6 GLY6        0.0000 
    136 CA        182.7200  113.4500  143.3700 C.3       6 GLY6        0.0000 
    137 CA        183.0200  113.7700  141.9400 C.3       6 GLY6        0.0000 
    138 CA        187.4200  104.9800  145.6300 C.3       6 GLY6        0.0000 
    139 CA        185.4400  110.3500  147.9800 C.3       6 GLY6        0.0000 
    140 CA        185.3300  112.0900  146.7700 C.3       6 GLY6        0.0000 
    141 CA        187.2700  109.2800  148.1300 C.3       6 GLY6        0.0000 
    142 CA        186.8500  110.7000  148.3600 C.3       6 GLY6        0.0000 
    143 CA        187.1600  111.0200  146.9300 C.3       6 GLY6        0.0000 
    144 CA        186.4300  112.1200  148.5900 C.3       6 GLY6        0.0000 
    145 CA        186.3200  113.8700  147.3800 C.3       6 GLY6        0.0000 
    146 CA        184.9700  114.3300  151.9100 C.3       6 GLY6        0.0000 
    147 CA        187.9500  110.7300  150.1800 C.3       6 GLY6        0.0000 
    148 CA        187.8400  112.4800  148.9700 C.3       6 GLY6        0.0000 
    149 CA        190.1000  104.4300  153.9400 C.3       6 GLY6        0.0000 
    150 CA        190.4100  104.7500  152.5100 C.3       6 GLY6        0.0000 
    151 CA        189.9900  106.1800  152.7400 C.3       6 GLY6        0.0000 
    152 CA        189.2400  112.8300  149.3500 C.3       6 GLY6        0.0000 
    153 CA        191.5100  104.7900  154.3300 C.3       6 GLY6        0.0000 
    154 DU        178.1400  114.6300  147.3600 H         7 CUB7        0.0000 
    155 DU        179.5500  114.9800  147.7400 H         7 CUB7        0.0000 
    156 DU        180.7500  113.2700  150.7600 H         7 CUB7        0.0000 
    157 DU        181.0600  113.5900  149.3300 H         7 CUB7        0.0000 
    158 DU        181.3700  113.9100  147.9000 H         7 CUB7        0.0000 
    159 DU        181.6800  114.2300  146.4700 H         7 CUB7        0.0000 
    160 DU        181.9900  114.5500  145.0300 H         7 CUB7        0.0000 
    161 DU        182.3000  114.8700  143.6000 H         7 CUB7        0.0000 
    162 DU        180.6400  115.0100  149.5600 H         7 CUB7        0.0000 
    163 DU        183.2000  112.8400  148.0500 H         7 CUB7        0.0000 
    164 DU        183.5100  113.1600  146.6200 H         7 CUB7        0.0000 
    165 DU        182.1600  113.6200  151.1500 H         7 CUB7        0.0000 
    166 DU        182.4700  113.9400  149.7100 H         7 CUB7        0.0000 
    167 DU        184.6000  113.1900  148.4300 H         7 CUB7        0.0000 
    168 DU        183.8800  114.2900  150.1000 H         7 CUB7        0.0000 
    169 DU        187.6400  110.4100  151.6100 H         7 CUB7        0.0000 
    170 DU        187.2200  111.8300  151.8400 H         7 CUB7        0.0000 
    171 DU        188.7300  110.4400  153.4200 H         7 CUB7        0.0000 
@<TRIPOS>BOND
@<TRIPOS>SUBSTRUCTURE
     1 SER1        1 GROUP   
     2 ALA2       32 GROUP   
     3 ASP3       69 GROUP   
     4 LYS4       78 GROUP   
     5 PHE5      101 GROUP   
     6 GLY6      125 GROUP   
     7 CUB7      154 GROUP   
@<TRIPOS>SET

