#    Name: 6hz9_3_GNP
#    Modification time : Fri May 22 19:40:40 2020

@<TRIPOS>MOLECULE
6hz9_3_GNP
   45    47     1     0     1
SMALL
NO_CHARGES


@<TRIPOS>ATOM
      1 PG         63.1820  136.1050  114.4380 P.3       1 GNP1001     0.0000 
      2 O1G        64.0110  135.6180  113.3210 O.co2     1 GNP1001     0.0000 
      3 O2G        64.0590  136.4650  115.5660 O.co2     1 GNP1001     0.0000 
      4 O3G        62.2310  135.0540  114.8550 O.co2     1 GNP1001     0.0000 
      5 N3B        62.3910  137.3720  113.9680 N.3       1 GNP1001     0.0000 
      6 PB         61.7520  137.4110  112.5790 P.3       1 GNP1001     0.0000 
      7 O1B        62.7430  137.8090  111.5620 O.co2     1 GNP1001     0.0000 
      8 O2B        61.1400  136.1010  112.3000 O.co2     1 GNP1001     0.0000 
      9 O3A        60.6140  138.4890  112.7310 O.3       1 GNP1001     0.0000 
     10 PA         59.1490  137.8810  112.9020 P.3       1 GNP1001     0.0000 
     11 O1A        58.8020  137.1710  111.6650 O.co2     1 GNP1001     0.0000 
     12 O2A        59.1100  136.9270  114.0290 O.co2     1 GNP1001     0.0000 
     13 O5'        58.1190  139.0550  113.1800 O.3       1 GNP1001     0.0000 
     14 C5'        58.4440  139.7930  114.3400 C.3       1 GNP1001     0.0000 
     15 C4'        57.6290  141.0670  114.6180 C.3       1 GNP1001     0.0000 
     16 O4'        57.7730  142.0900  113.5490 O.3       1 GNP1001     0.0000 
     17 C3'        56.1220  140.8830  114.7380 C.3       1 GNP1001     0.0000 
     18 O3'        55.6020  141.9560  115.5420 O.3       1 GNP1001     0.0000 
     19 C2'        55.7140  141.0490  113.3080 C.3       1 GNP1001     0.0000 
     20 O2'        54.3040  141.2510  113.1830 O.3       1 GNP1001     0.0000 
     21 C1'        56.4460  142.3250  112.9900 C.3       1 GNP1001     0.0000 
     22 N9         56.3970  142.5900  111.5610 N.pl3     1 GNP1001     0.0000 
     23 C8         57.2740  142.2550  110.6320 C.2       1 GNP1001     0.0000 
     24 N7         56.8120  142.6890  109.4680 N.2       1 GNP1001     0.0000 
     25 C5         55.6370  143.2650  109.6840 C.2       1 GNP1001     0.0000 
     26 C6         54.7750  143.8420  108.8590 C.2       1 GNP1001     0.0000 
     27 O6         55.0010  143.9120  107.6530 O.2       1 GNP1001     0.0000 
     28 N1         53.5970  144.3720  109.3770 N.am      1 GNP1001     0.0000 
     29 C2         53.3610  144.2820  110.7510 C.2       1 GNP1001     0.0000 
     30 N2         52.2600  144.7700  111.3100 N.pl3     1 GNP1001     0.0000 
     31 N3         54.2670  143.6890  111.5230 N.2       1 GNP1001     0.0000 
     32 C4         55.3840  143.1970  110.9860 C.2       1 GNP1001     0.0000 
     33 HNB3       62.3090  138.1630  114.5660 H         1 GNP1001     0.0000 
     34 H5'2       59.4980  140.0650  114.2950 H         1 GNP1001     0.0000 
     35 H5'1       58.3120  139.1230  115.1660 H         1 GNP1001     0.0000 
     36 H4'        57.9950  141.4110  115.5740 H         1 GNP1001     0.0000 
     37 H3'        55.8470  139.9260  115.1810 H         1 GNP1001     0.0000 
     38 HO3'       54.6050  141.8960  115.5930 H         1 GNP1001     0.0000 
     39 H2'        56.0890  140.2420  112.7020 H         1 GNP1001     0.0000 
     40 HO2'       54.0260  142.0340  113.7330 H         1 GNP1001     0.0000 
     41 H1'        55.9810  143.1570  113.5130 H         1 GNP1001     0.0000 
     42 H8         58.2170  141.7510  110.8020 H         1 GNP1001     0.0000 
     43 HN1        52.9420  144.8110  108.7700 H         1 GNP1001     0.0000 
     44 HN21       51.5570  145.2080  110.7550 H         1 GNP1001     0.0000 
     45 HN22       52.1340  144.6830  112.3000 H         1 GNP1001     0.0000 
@<TRIPOS>BOND
     1    1    2 ar   
     2    1    3 ar   
     3    1    4 ar   
     4    1    5 1    
     5    5    6 1    
     6    5   33 1    
     7    6    7 ar   
     8    6    8 ar   
     9    6    9 1    
    10    9   10 1    
    11   10   11 ar   
    12   10   12 ar   
    13   10   13 1    
    14   13   14 1    
    15   14   15 1    
    16   14   34 1    
    17   14   35 1    
    18   15   16 1    
    19   15   17 1    
    20   15   36 1    
    21   16   21 1    
    22   17   18 1    
    23   17   19 1    
    24   17   37 1    
    25   18   38 1    
    26   19   20 1    
    27   19   21 1    
    28   19   39 1    
    29   20   40 1    
    30   21   22 1    
    31   21   41 1    
    32   22   23 1    
    33   22   32 1    
    34   23   24 2    
    35   23   42 1    
    36   24   25 1    
    37   25   26 1    
    38   25   32 2    
    39   26   27 2    
    40   26   28 am   
    41   28   29 1    
    42   28   43 1    
    43   29   30 1    
    44   29   31 2    
    45   30   44 1    
    46   30   45 1    
    47   31   32 1    
@<TRIPOS>SUBSTRUCTURE
     1 GNP1001     1 GROUP   
@<TRIPOS>SET
ATOM$ORANGE STATIC     ATOMS   COLORGROUP SYSTEM 
20 14 14 15 15 17 17 19 19 21 21 23 23 25 25 26 26 29 \
29 32 32 

