#    Name: 6hz9_5_GDP_CAVITY_N1_6
#    Modification time : Fri May 22 19:40:55 2020

@<TRIPOS>MOLECULE
6hz9_5_GDP_CAVITY_N1_6
  111     0     7     0     0
SMALL
NO_CHARGES


@<TRIPOS>ATOM
      1 OG         86.9400  116.1700  157.8800 O.3       1 SER1        0.0000 
      2 OG         88.4500  114.7800  159.4700 O.3       1 SER1        0.0000 
      3 OG         91.5300  109.4400  158.9400 O.3       1 SER1        0.0000 
      4 OG         90.8100  110.5400  160.6000 O.3       1 SER1        0.0000 
      5 OG         89.9700  113.3900  161.0600 O.3       1 SER1        0.0000 
      6 OG         92.9400  109.7900  159.3200 O.3       1 SER1        0.0000 
      7 OG         92.2100  110.9000  160.9800 O.3       1 SER1        0.0000 
      8 OG         92.5200  111.2200  159.5500 O.3       1 SER1        0.0000 
      9 OG         91.4900  112.0000  162.6400 O.3       1 SER1        0.0000 
     10 OG         91.8000  112.3200  161.2100 O.3       1 SER1        0.0000 
     11 OG         90.7600  113.1000  164.3100 O.3       1 SER1        0.0000 
     12 OG         91.6900  114.0600  160.0100 O.3       1 SER1        0.0000 
     13 OG         94.0400  109.8300  161.1400 O.3       1 SER1        0.0000 
     14 OG         94.3500  110.1500  159.7100 O.3       1 SER1        0.0000 
     15 OG         93.3100  110.9300  162.8000 O.3       1 SER1        0.0000 
     16 OG         93.6200  111.2500  161.3700 O.3       1 SER1        0.0000 
     17 OG         93.2000  112.6700  161.5900 O.3       1 SER1        0.0000 
     18 OG         93.5100  112.9900  160.1600 O.3       1 SER1        0.0000 
     19 OG         94.4400  113.9500  155.8600 O.3       1 SER1        0.0000 
     20 OG         93.0900  114.4100  160.3900 O.3       1 SER1        0.0000 
     21 OG         94.6100  113.0200  161.9800 O.3       1 SER1        0.0000 
     22 O          87.4200  115.5600  162.5600 O.2       2 ALA2        0.0000 
     23 O          88.0400  116.2000  159.7000 O.2       2 ALA2        0.0000 
     24 O          89.8600  115.1300  159.8500 O.2       2 ALA2        0.0000 
     25 O          90.1700  115.4500  158.4200 O.2       2 ALA2        0.0000 
     26 O          90.4800  115.7700  156.9900 O.2       2 ALA2        0.0000 
     27 O          89.4400  116.5500  160.0800 O.2       2 ALA2        0.0000 
     28 N          91.7100  108.5100  165.0500 N.am      2 ALA2        0.0000 
     29 N          91.6000  110.2600  163.8500 N.am      2 ALA2        0.0000 
     30 N          93.1400  111.8600  156.6900 N.am      2 ALA2        0.0000 
     31 N          90.8700  111.3600  165.5100 N.am      2 ALA2        0.0000 
     32 N          91.1800  111.6800  164.0800 N.am      2 ALA2        0.0000 
     33 N          93.0300  113.6000  155.4800 N.am      2 ALA2        0.0000 
     34 N          93.3400  113.9200  154.0500 N.am      2 ALA2        0.0000 
     35 O          92.0000  114.3800  158.5800 O.2       2 ALA2        0.0000 
     36 O          92.3000  114.7000  157.1400 O.2       2 ALA2        0.0000 
     37 N          93.4200  109.1900  164.0000 N.am      2 ALA2        0.0000 
     38 N          92.5900  112.0300  164.4600 N.am      2 ALA2        0.0000 
     39 N          94.7200  111.2800  163.1800 N.am      2 ALA2        0.0000 
     40 OD1        86.4300  113.7900  161.9500 O.co2     3 ASP3        0.0000 
     41 OD1        87.3600  114.7500  157.6600 O.co2     3 ASP3        0.0000 
     42 OD1        87.2500  116.4900  156.4500 O.co2     3 ASP3        0.0000 
     43 OD1        87.5600  116.8100  155.0200 O.co2     3 ASP3        0.0000 
     44 OD1        89.2900  111.9300  159.0200 O.co2     3 ASP3        0.0000 
     45 OD1        89.6000  112.2500  157.5800 O.co2     3 ASP3        0.0000 
     46 OD1        89.9100  112.5800  156.1500 O.co2     3 ASP3        0.0000 
     47 OD1        88.5600  113.0400  160.6800 O.co2     3 ASP3        0.0000 
     48 OD1        88.8700  113.3600  159.2400 O.co2     3 ASP3        0.0000 
     49 OD1        89.1800  113.6800  157.8100 O.co2     3 ASP3        0.0000 
     50 OD1        88.1500  114.4600  160.9000 O.co2     3 ASP3        0.0000 
     51 OD1        88.7600  115.1000  158.0400 O.co2     3 ASP3        0.0000 
     52 OD1        89.0700  115.4200  156.6100 O.co2     3 ASP3        0.0000 
     53 OD1        89.3800  115.7400  155.1700 O.co2     3 ASP3        0.0000 
     54 OD1        89.6900  116.0600  153.7400 O.co2     3 ASP3        0.0000 
     55 OD1        88.3400  116.5200  158.2700 O.co2     3 ASP3        0.0000 
     56 OD1        88.6500  116.8400  156.8300 O.co2     3 ASP3        0.0000 
     57 OD1        88.9600  117.1600  155.4000 O.co2     3 ASP3        0.0000 
     58 OD1        90.9000  114.3500  156.7600 O.co2     3 ASP3        0.0000 
     59 OD1        89.7500  116.8700  158.6500 O.co2     3 ASP3        0.0000 
     60 OD1        94.6600  110.4700  158.2700 O.co2     3 ASP3        0.0000 
     61 NZ         89.7100  110.5100  158.7900 N.4       4 LYS4        0.0000 
     62 NZ         87.6400  112.0700  164.9700 N.4       4 LYS4        0.0000 
     63 NZ         88.2500  112.7200  162.1100 N.4       4 LYS4        0.0000 
     64 NZ         89.8800  109.5800  164.9000 N.4       4 LYS4        0.0000 
     65 NZ         90.5000  110.2200  162.0300 N.4       4 LYS4        0.0000 
     66 NZ         91.1200  110.8600  159.1700 N.4       4 LYS4        0.0000 
     67 NZ         91.4300  111.1900  157.7400 N.4       4 LYS4        0.0000 
     68 NZ         91.7300  111.5100  156.3000 N.4       4 LYS4        0.0000 
     69 NZ         90.0800  111.6500  162.2600 N.4       4 LYS4        0.0000 
     70 NZ         90.3900  111.9700  160.8300 N.4       4 LYS4        0.0000 
     71 NZ         91.0100  112.6100  157.9700 N.4       4 LYS4        0.0000 
     72 NZ         91.3200  112.9300  156.5300 N.4       4 LYS4        0.0000 
     73 NZ         89.3500  112.7500  163.9200 N.4       4 LYS4        0.0000 
     74 NZ         89.6600  113.0700  162.4900 N.4       4 LYS4        0.0000 
     75 NZ         93.2500  110.1200  157.8900 N.4       4 LYS4        0.0000 
     76 NZ         92.8300  111.5400  158.1200 N.4       4 LYS4        0.0000 
     77 CZ         92.0100  108.8300  163.6200 C.ar      5 PHE5        0.0000 
     78 CZ         91.9100  110.5800  162.4200 C.ar      5 PHE5        0.0000 
     79 CZ         93.8400  107.7600  163.7800 C.ar      5 PHE5        0.0000 
     80 CZ         93.7300  109.5100  162.5700 C.ar      5 PHE5        0.0000 
     81 CZ         94.2400  111.8900  158.5000 C.ar      5 PHE5        0.0000 
     82 CZ         94.5500  112.2100  157.0700 C.ar      5 PHE5        0.0000 
     83 CZ         93.8200  113.3100  158.7300 C.ar      5 PHE5        0.0000 
     84 CZ         94.1300  113.6300  157.3000 C.ar      5 PHE5        0.0000 
     85 CZ         95.3400  111.9200  160.3200 C.ar      5 PHE5        0.0000 
     86 CZ         94.9200  113.3400  160.5400 C.ar      5 PHE5        0.0000 
     87 CA         86.1200  113.4600  163.3900 C.3       6 GLY6        0.0000 
     88 CA         86.7400  114.1100  160.5200 C.3       6 GLY6        0.0000 
     89 CA         89.4000  110.1900  160.2200 C.3       6 GLY6        0.0000 
     90 CA         87.5300  113.8200  163.7700 C.3       6 GLY6        0.0000 
     91 CA         87.8400  114.1400  162.3400 C.3       6 GLY6        0.0000 
     92 CA         87.7300  115.8800  161.1300 C.3       6 GLY6        0.0000 
     93 CA         91.6200  113.2500  155.1000 C.3       6 GLY6        0.0000 
     94 CA         91.2100  114.6700  155.3300 C.3       6 GLY6        0.0000 
     95 CA         91.5100  114.9900  153.9000 C.3       6 GLY6        0.0000 
     96 CA         88.9300  114.1700  164.1500 C.3       6 GLY6        0.0000 
     97 CA         89.2400  114.4900  162.7200 C.3       6 GLY6        0.0000 
     98 CA         89.5500  114.8100  161.2900 C.3       6 GLY6        0.0000 
     99 CA         90.7900  116.0900  155.5600 C.3       6 GLY6        0.0000 
    100 CA         92.6100  115.0200  155.7100 C.3       6 GLY6        0.0000 
    101 CA         91.2700  115.4800  160.2400 C.3       6 GLY6        0.0000 
    102 CA         93.5300  107.4400  165.2100 C.3       6 GLY6        0.0000 
    103 CA         95.0300  111.6000  161.7500 C.3       6 GLY6        0.0000 
    104 CA         96.1300  111.6300  163.5600 C.3       6 GLY6        0.0000 
    105 DU         90.7000  112.2900  159.4000 H         7 CUB7        0.0000 
    106 DU         90.2800  113.7100  159.6300 H         7 CUB7        0.0000 
    107 DU         90.5900  114.0300  158.1900 H         7 CUB7        0.0000 
    108 DU         92.1000  112.6400  159.7800 H         7 CUB7        0.0000 
    109 DU         92.4100  112.9600  158.3500 H         7 CUB7        0.0000 
    110 DU         92.7200  113.2800  156.9200 H         7 CUB7        0.0000 
    111 DU         93.9300  111.5700  159.9300 H         7 CUB7        0.0000 
@<TRIPOS>BOND
@<TRIPOS>SUBSTRUCTURE
     1 SER1        1 GROUP   
     2 ALA2       22 GROUP   
     3 ASP3       40 GROUP   
     4 LYS4       61 GROUP   
     5 PHE5       77 GROUP   
     6 GLY6       87 GROUP   
     7 CUB7      105 GROUP   
@<TRIPOS>SET

