#    Name: 6hz9_12_GDP
#    Modification time : Fri May 22 19:41:28 2020

@<TRIPOS>MOLECULE
6hz9_12_GDP
   40    42     1     0     1
SMALL
NO_CHARGES


@<TRIPOS>ATOM
      1 PB        149.7370  160.5880  138.8040 P.3       1 GDP1001     0.0000 
      2 O1B       149.3720  160.4430  137.3790 O.co2     1 GDP1001     0.0000 
      3 O2B       149.2400  159.4060  139.5390 O.co2     1 GDP1001     0.0000 
      4 O3B       151.2100  160.6400  138.9290 O.co2     1 GDP1001     0.0000 
      5 O3A       149.0830  161.9560  139.3890 O.3       1 GDP1001     0.0000 
      6 PA        148.5590  162.0440  140.9140 P.3       1 GDP1001     0.0000 
      7 O1A       147.8160  160.8060  141.2450 O.co2     1 GDP1001     0.0000 
      8 O2A       149.7260  162.1860  141.8080 O.co2     1 GDP1001     0.0000 
      9 O5'       147.5740  163.3230  141.1440 O.3       1 GDP1001     0.0000 
     10 C5'       147.0730  164.1600  140.0900 C.3       1 GDP1001     0.0000 
     11 C4'       146.2670  165.3870  140.6180 C.3       1 GDP1001     0.0000 
     12 O4'       145.0070  164.8870  141.2350 O.3       1 GDP1001     0.0000 
     13 C3'       146.9710  166.1370  141.7460 C.3       1 GDP1001     0.0000 
     14 O3'       146.6110  167.5350  141.7170 O.3       1 GDP1001     0.0000 
     15 C2'       146.3390  165.4790  142.9480 C.3       1 GDP1001     0.0000 
     16 O2'       146.5540  166.2460  144.1290 O.3       1 GDP1001     0.0000 
     17 C1'       144.8960  165.5410  142.5260 C.3       1 GDP1001     0.0000 
     18 N9        144.0540  164.7970  143.4700 N.pl3     1 GDP1001     0.0000 
     19 C8        143.9920  163.4830  143.3470 C.2       1 GDP1001     0.0000 
     20 N7        143.1960  163.0090  144.2900 N.2       1 GDP1001     0.0000 
     21 C5        142.7760  164.0350  145.0120 C.2       1 GDP1001     0.0000 
     22 C6        141.9730  164.0680  146.0630 C.2       1 GDP1001     0.0000 
     23 O6        141.5010  163.0260  146.5090 O.2       1 GDP1001     0.0000 
     24 N1        141.6720  165.2870  146.6620 N.am      1 GDP1001     0.0000 
     25 C2        142.2390  166.4420  146.1240 C.2       1 GDP1001     0.0000 
     26 N2        141.9850  167.6330  146.6600 N.pl3     1 GDP1001     0.0000 
     27 N3        143.0520  166.3380  145.0670 N.2       1 GDP1001     0.0000 
     28 C4        143.2980  165.1500  144.5030 C.2       1 GDP1001     0.0000 
     29 H5'       146.4350  163.5520  139.4520 H         1 GDP1001     0.0000 
     30 H5''      147.9220  164.5180  139.5080 H         1 GDP1001     0.0000 
     31 H4'       146.1130  166.0670  139.7820 H         1 GDP1001     0.0000 
     32 H3'       148.0550  166.0430  141.7080 H         1 GDP1001     0.0000 
     33 HO3'      146.9470  167.9620  140.8800 H         1 GDP1001     0.0000 
     34 H2'       146.6530  164.4510  143.0320 H         1 GDP1001     0.0000 
     35 HO2'      146.2360  167.1830  143.9890 H         1 GDP1001     0.0000 
     36 H1'       144.5580  166.5660  142.4150 H         1 GDP1001     0.0000 
     37 H8        144.4930  162.8960  142.5840 H         1 GDP1001     0.0000 
     38 HN1       141.0680  165.3270  147.4570 H         1 GDP1001     0.0000 
     39 HN21      141.3760  167.7010  147.4510 H         1 GDP1001     0.0000 
     40 HN22      142.3940  168.4570  146.2650 H         1 GDP1001     0.0000 
@<TRIPOS>BOND
     1    1    2 ar   
     2    1    3 ar   
     3    1    4 ar   
     4    1    5 1    
     5    5    6 1    
     6    6    7 ar   
     7    6    8 ar   
     8    6    9 1    
     9    9   10 1    
    10   10   11 1    
    11   10   29 1    
    12   10   30 1    
    13   11   12 1    
    14   11   13 1    
    15   11   31 1    
    16   12   17 1    
    17   13   14 1    
    18   13   15 1    
    19   13   32 1    
    20   14   33 1    
    21   15   16 1    
    22   15   17 1    
    23   15   34 1    
    24   16   35 1    
    25   17   18 1    
    26   17   36 1    
    27   18   19 1    
    28   18   28 1    
    29   19   20 2    
    30   19   37 1    
    31   20   21 1    
    32   21   22 1    
    33   21   28 2    
    34   22   23 2    
    35   22   24 am   
    36   24   25 1    
    37   24   38 1    
    38   25   26 1    
    39   25   27 2    
    40   26   39 1    
    41   26   40 1    
    42   27   28 1    
@<TRIPOS>SUBSTRUCTURE
     1 GDP1001     1 GROUP   
@<TRIPOS>SET
ATOM$ORANGE STATIC     ATOMS   COLORGROUP SYSTEM 
20 10 10 11 11 13 13 15 15 17 17 19 19 21 21 22 22 25 \
25 28 28 

