#    Name: 6hz9_6_GDP
#    Modification time : Fri May 22 19:41:01 2020

@<TRIPOS>MOLECULE
6hz9_6_GDP
   40    42     1     0     1
SMALL
NO_CHARGES


@<TRIPOS>ATOM
      1 PB        102.2750   91.3390  138.9450 P.3       1 GDP1001     0.0000 
      2 O1B       102.6480   91.4810  137.5220 O.co2     1 GDP1001     0.0000 
      3 O2B       102.7640   92.5250  139.6800 O.co2     1 GDP1001     0.0000 
      4 O3B       100.8020   91.2820  139.0610 O.co2     1 GDP1001     0.0000 
      5 O3A       102.9320   89.9750  139.5380 O.3       1 GDP1001     0.0000 
      6 PA        103.4460   89.8940  141.0660 P.3       1 GDP1001     0.0000 
      7 O1A       104.1830   91.1350  141.3980 O.co2     1 GDP1001     0.0000 
      8 O2A       102.2750   89.7500  141.9530 O.co2     1 GDP1001     0.0000 
      9 O5'       104.4350   88.6190  141.3050 O.3       1 GDP1001     0.0000 
     10 C5'       104.9460   87.7810  140.2570 C.3       1 GDP1001     0.0000 
     11 C4'       105.7540   86.5590  140.7930 C.3       1 GDP1001     0.0000 
     12 O4'       107.0070   87.0650  141.4170 O.3       1 GDP1001     0.0000 
     13 C3'       105.0460   85.8090  141.9200 C.3       1 GDP1001     0.0000 
     14 O3'       105.4110   84.4120  141.8960 O.3       1 GDP1001     0.0000 
     15 C2'       105.6680   86.4730  143.1230 C.3       1 GDP1001     0.0000 
     16 O2'       105.4490   85.7090  144.3050 O.3       1 GDP1001     0.0000 
     17 C1'       107.1130   86.4150  142.7100 C.3       1 GDP1001     0.0000 
     18 N9        107.9470   87.1650  143.6570 N.pl3     1 GDP1001     0.0000 
     19 C8        108.0050   88.4790  143.5300 C.2       1 GDP1001     0.0000 
     20 N7        108.7930   88.9580  144.4770 N.2       1 GDP1001     0.0000 
     21 C5        109.2120   87.9360  145.2050 C.2       1 GDP1001     0.0000 
     22 C6        110.0090   87.9100  146.2600 C.2       1 GDP1001     0.0000 
     23 O6        110.4750   88.9550  146.7060 O.2       1 GDP1001     0.0000 
     24 N1        110.3110   86.6930  146.8640 N.am      1 GDP1001     0.0000 
     25 C2        109.7520   85.5350  146.3270 C.2       1 GDP1001     0.0000 
     26 N2        110.0080   84.3460  146.8670 N.pl3     1 GDP1001     0.0000 
     27 N3        108.9450   85.6330  145.2640 N.2       1 GDP1001     0.0000 
     28 C4        108.6980   86.8180  144.6950 C.2       1 GDP1001     0.0000 
     29 H5'       105.5830   88.3870  139.6270 H         1 GDP1001     0.0000 
     30 H5''      104.1020   87.4170  139.6660 H         1 GDP1001     0.0000 
     31 H4'       105.9170   85.8760  139.9630 H         1 GDP1001     0.0000 
     32 H3'       103.9580   85.9000  141.8740 H         1 GDP1001     0.0000 
     33 HO3'      105.0780   83.9840  141.0600 H         1 GDP1001     0.0000 
     34 H2'       105.3520   87.4980  143.2040 H         1 GDP1001     0.0000 
     35 HO2'      105.7750   84.7740  144.1630 H         1 GDP1001     0.0000 
     36 H1'       107.4530   85.3890  142.6040 H         1 GDP1001     0.0000 
     37 H8        107.5060   89.0620  142.7670 H         1 GDP1001     0.0000 
     38 HN1       110.9100   86.6540  147.6640 H         1 GDP1001     0.0000 
     39 HN21      110.6050   84.2730  147.6660 H         1 GDP1001     0.0000 
     40 HN22      109.5960   83.5220  146.4750 H         1 GDP1001     0.0000 
@<TRIPOS>BOND
     1    1    2 ar   
     2    1    3 ar   
     3    1    4 ar   
     4    1    5 1    
     5    5    6 1    
     6    6    7 ar   
     7    6    8 ar   
     8    6    9 1    
     9    9   10 1    
    10   10   11 1    
    11   10   29 1    
    12   10   30 1    
    13   11   12 1    
    14   11   13 1    
    15   11   31 1    
    16   12   17 1    
    17   13   14 1    
    18   13   15 1    
    19   13   32 1    
    20   14   33 1    
    21   15   16 1    
    22   15   17 1    
    23   15   34 1    
    24   16   35 1    
    25   17   18 1    
    26   17   36 1    
    27   18   19 1    
    28   18   28 1    
    29   19   20 2    
    30   19   37 1    
    31   20   21 1    
    32   21   22 1    
    33   21   28 2    
    34   22   23 2    
    35   22   24 am   
    36   24   25 1    
    37   24   38 1    
    38   25   26 1    
    39   25   27 2    
    40   26   39 1    
    41   26   40 1    
    42   27   28 1    
@<TRIPOS>SUBSTRUCTURE
     1 GDP1001     1 GROUP   
@<TRIPOS>SET
ATOM$ORANGE STATIC     ATOMS   COLORGROUP SYSTEM 
20 10 10 11 11 13 13 15 15 17 17 19 19 21 21 22 22 25 \
25 28 28 

