#    Name: 6hz9_6_GDP_CAVITY_N1_6
#    Modification time : Fri May 22 19:41:02 2020

@<TRIPOS>MOLECULE
6hz9_6_GDP_CAVITY_N1_6
  192     0     7     0     0
SMALL
NO_CHARGES


@<TRIPOS>ATOM
      1 OG         99.4900   90.9600  140.8100 O.3       1 SER1        0.0000 
      2 OG        103.7000   88.6500  133.3500 O.3       1 SER1        0.0000 
      3 OG        100.9000   91.3100  141.2000 O.3       1 SER1        0.0000 
      4 OG        100.4800   92.7400  141.4200 O.3       1 SER1        0.0000 
      5 OG        105.2200   87.2600  134.9400 O.3       1 SER1        0.0000 
      6 OG        105.1100   89.0000  133.7300 O.3       1 SER1        0.0000 
      7 OG        106.7300   85.8700  136.5200 O.3       1 SER1        0.0000 
      8 OG        105.3900   86.3300  141.0500 O.3       1 SER1        0.0000 
      9 OG        105.7000   86.6500  139.6200 O.3       1 SER1        0.0000 
     10 OG        106.0000   86.9700  138.1800 O.3       1 SER1        0.0000 
     11 OG        106.3100   87.2900  136.7500 O.3       1 SER1        0.0000 
     12 OG        104.9700   87.7500  141.2800 O.3       1 SER1        0.0000 
     13 OG        105.2800   88.0700  139.8400 O.3       1 SER1        0.0000 
     14 OG        105.5900   88.3900  138.4100 O.3       1 SER1        0.0000 
     15 OG        105.8900   88.7100  136.9800 O.3       1 SER1        0.0000 
     16 OG        104.8600   89.4900  140.0700 O.3       1 SER1        0.0000 
     17 OG        105.1700   89.8100  138.6400 O.3       1 SER1        0.0000 
     18 OG        105.6800   92.2000  134.5700 O.3       1 SER1        0.0000 
     19 OG        105.9800   92.5200  133.1400 O.3       1 SER1        0.0000 
     20 OG        106.4800   86.3600  142.8600 O.3       1 SER1        0.0000 
     21 OG        106.7900   86.6800  141.4300 O.3       1 SER1        0.0000 
     22 OG        107.7200   87.6400  137.1300 O.3       1 SER1        0.0000 
     23 OG        106.3800   88.1000  141.6600 O.3       1 SER1        0.0000 
     24 OG        108.8800   88.4900  143.8600 O.3       1 SER1        0.0000 
     25 OG        109.9800   88.5200  145.6700 O.3       1 SER1        0.0000 
     26 N         102.1800   90.0400  131.7600 N.am      2 ALA2        0.0000 
     27 N         103.5900   90.3900  132.1500 N.am      2 ALA2        0.0000 
     28 N         102.8600   91.4900  133.8100 N.am      2 ALA2        0.0000 
     29 N         103.1700   91.8100  132.3700 N.am      2 ALA2        0.0000 
     30 N         104.8200   83.1300  140.2100 N.am      2 ALA2        0.0000 
     31 N         105.1300   83.4500  138.7800 N.am      2 ALA2        0.0000 
     32 N         105.4300   83.7700  137.3500 N.am      2 ALA2        0.0000 
     33 N         104.4000   84.5500  140.4400 N.am      2 ALA2        0.0000 
     34 N         104.7100   84.8700  139.0100 N.am      2 ALA2        0.0000 
     35 O         102.5300   88.1800  143.9900 O.2       2 ALA2        0.0000 
     36 O         102.4200   89.9200  142.7800 O.2       2 ALA2        0.0000 
     37 O         102.7200   90.2400  141.3500 O.2       2 ALA2        0.0000 
     38 N         104.5800   92.1700  132.7600 N.am      2 ALA2        0.0000 
     39 O         102.3100   91.6700  141.5800 O.2       2 ALA2        0.0000 
     40 N         105.9100   83.1600  142.0300 N.am      2 ALA2        0.0000 
     41 N         105.5000   84.5900  142.2500 N.am      2 ALA2        0.0000 
     42 O         104.4400   90.9200  140.3000 O.2       2 ALA2        0.0000 
     43 O         104.7500   91.2400  138.8700 O.2       2 ALA2        0.0000 
     44 O         105.0600   91.5600  137.4400 O.2       2 ALA2        0.0000 
     45 O         105.3700   91.8800  136.0000 O.2       2 ALA2        0.0000 
     46 N         107.0100   83.2000  143.8400 N.am      2 ALA2        0.0000 
     47 N         106.9000   84.9400  142.6400 N.am      2 ALA2        0.0000 
     48 N         108.1400   86.2200  136.9100 N.am      2 ALA2        0.0000 
     49 N         108.4200   83.5500  144.2200 N.am      2 ALA2        0.0000 
     50 N         108.0000   84.9700  144.4500 N.am      2 ALA2        0.0000 
     51 N         108.3100   85.2900  143.0200 N.am      2 ALA2        0.0000 
     52 N         107.8900   86.7100  143.2500 N.am      2 ALA2        0.0000 
     53 N         108.9900   86.7500  145.0600 N.am      2 ALA2        0.0000 
     54 N         108.1500   89.5900  145.5200 N.am      2 ALA2        0.0000 
     55 O         108.4600   89.9100  144.0800 O.2       2 ALA2        0.0000 
     56 OD1       101.1700   85.2700  139.9000 O.co2     3 ASP3        0.0000 
     57 OD1       100.5300   90.1800  137.7200 O.co2     3 ASP3        0.0000 
     58 OD1        99.8000   91.2800  139.3800 O.co2     3 ASP3        0.0000 
     59 OD1       100.1100   91.6000  137.9500 O.co2     3 ASP3        0.0000 
     60 OD1        99.6900   93.0200  138.1800 O.co2     3 ASP3        0.0000 
     61 OD1       101.4500   82.6000  147.2200 O.co2     3 ASP3        0.0000 
     62 OD1       101.7600   82.9200  145.7900 O.co2     3 ASP3        0.0000 
     63 OD1       102.5700   85.6200  140.2800 O.co2     3 ASP3        0.0000 
     64 OD1       101.8500   86.7300  141.9400 O.co2     3 ASP3        0.0000 
     65 OD1       102.1500   87.0500  140.5100 O.co2     3 ASP3        0.0000 
     66 OD1       102.4600   87.3700  139.0800 O.co2     3 ASP3        0.0000 
     67 OD1       101.7400   88.4700  140.7400 O.co2     3 ASP3        0.0000 
     68 OD1       101.3200   89.8900  140.9700 O.co2     3 ASP3        0.0000 
     69 OD1       101.6300   90.2100  139.5400 O.co2     3 ASP3        0.0000 
     70 OD1       101.9400   90.5300  138.1000 O.co2     3 ASP3        0.0000 
     71 OD1       102.2400   90.8500  136.6700 O.co2     3 ASP3        0.0000 
     72 OD1       102.5500   91.1700  135.2400 O.co2     3 ASP3        0.0000 
     73 OD1       101.5200   91.9500  138.3300 O.co2     3 ASP3        0.0000 
     74 OD1       102.4400   92.9200  134.0300 O.co2     3 ASP3        0.0000 
     75 OD1       100.7900   93.0600  139.9900 O.co2     3 ASP3        0.0000 
     76 OD1       103.1600   83.2700  146.1700 O.co2     3 ASP3        0.0000 
     77 OD1       103.4500   89.1400  139.6900 O.co2     3 ASP3        0.0000 
     78 OD1       103.6500   91.2000  137.0500 O.co2     3 ASP3        0.0000 
     79 OD1       103.9600   91.5300  135.6200 O.co2     3 ASP3        0.0000 
     80 OD1       102.6200   91.9900  140.1500 O.co2     3 ASP3        0.0000 
     81 OD1       102.9200   92.3100  138.7100 O.co2     3 ASP3        0.0000 
     82 OD1       103.2300   92.6300  137.2800 O.co2     3 ASP3        0.0000 
     83 OD1       103.5400   92.9500  135.8500 O.co2     3 ASP3        0.0000 
     84 NZ         98.3900   90.9300  139.0000 N.4       4 LYS4        0.0000 
     85 NZ         98.7000   91.2500  137.5700 N.4       4 LYS4        0.0000 
     86 NZ        101.9800   87.9800  134.4000 N.4       4 LYS4        0.0000 
     87 NZ        101.5600   89.4000  134.6300 N.4       4 LYS4        0.0000 
     88 NZ        101.8700   89.7200  133.2000 N.4       4 LYS4        0.0000 
     89 NZ        101.4600   91.1400  133.4200 N.4       4 LYS4        0.0000 
     90 NZ         99.0700   92.3800  141.0400 N.4       4 LYS4        0.0000 
     91 NZ         99.3800   92.7000  139.6100 N.4       4 LYS4        0.0000 
     92 NZ        103.3000   84.5200  138.6200 N.4       4 LYS4        0.0000 
     93 NZ        103.8100   86.9100  134.5500 N.4       4 LYS4        0.0000 
     94 NZ        103.3900   88.3300  134.7800 N.4       4 LYS4        0.0000 
     95 NZ        102.3500   89.1100  137.8800 N.4       4 LYS4        0.0000 
     96 NZ        102.6600   89.4300  136.4400 N.4       4 LYS4        0.0000 
     97 NZ        102.9700   89.7500  135.0100 N.4       4 LYS4        0.0000 
     98 NZ        105.0200   85.2000  137.5700 N.4       4 LYS4        0.0000 
     99 NZ        105.3200   85.5200  136.1400 N.4       4 LYS4        0.0000 
    100 NZ        104.2900   86.3000  139.2300 N.4       4 LYS4        0.0000 
    101 NZ        104.6000   86.6200  137.8000 N.4       4 LYS4        0.0000 
    102 NZ        104.9100   86.9400  136.3700 N.4       4 LYS4        0.0000 
    103 NZ        103.8700   87.7200  139.4600 N.4       4 LYS4        0.0000 
    104 NZ        104.1800   88.0400  138.0300 N.4       4 LYS4        0.0000 
    105 NZ        104.4900   88.3600  136.6000 N.4       4 LYS4        0.0000 
    106 NZ        104.8000   88.6800  135.1600 N.4       4 LYS4        0.0000 
    107 NZ        103.7600   89.4600  138.2600 N.4       4 LYS4        0.0000 
    108 NZ        104.0700   89.7800  136.8300 N.4       4 LYS4        0.0000 
    109 CZ        101.6900   82.1100  140.8800 C.ar      5 PHE5        0.0000 
    110 CZ        102.0000   82.4300  139.4500 C.ar      5 PHE5        0.0000 
    111 CZ        100.6600   82.8900  143.9700 C.ar      5 PHE5        0.0000 
    112 CZ        100.9700   83.2100  142.5400 C.ar      5 PHE5        0.0000 
    113 CZ        101.2800   83.5300  141.1100 C.ar      5 PHE5        0.0000 
    114 CZ        101.5800   83.8500  139.6700 C.ar      5 PHE5        0.0000 
    115 CZ        100.2400   84.3100  144.2000 C.ar      5 PHE5        0.0000 
    116 CZ        100.5500   84.6300  142.7700 C.ar      5 PHE5        0.0000 
    117 CZ        100.8600   84.9500  141.3300 C.ar      5 PHE5        0.0000 
    118 CZ        100.1300   86.0500  142.9900 C.ar      5 PHE5        0.0000 
    119 CZ        102.2900   88.3000  132.9700 C.ar      5 PHE5        0.0000 
    120 CZ        103.4700   83.5900  144.7400 C.ar      5 PHE5        0.0000 
    121 CZ        105.6300   85.8400  134.7100 C.ar      5 PHE5        0.0000 
    122 CZ        102.7400   84.6900  146.4000 C.ar      5 PHE5        0.0000 
    123 CZ        103.0500   85.0100  144.9600 C.ar      5 PHE5        0.0000 
    124 CZ        104.8800   83.9500  145.1200 C.ar      5 PHE5        0.0000 
    125 CZ        105.1900   84.2700  143.6900 C.ar      5 PHE5        0.0000 
    126 CZ        106.6200   87.6100  135.3200 C.ar      5 PHE5        0.0000 
    127 CZ        106.2000   89.0300  135.5500 C.ar      5 PHE5        0.0000 
    128 CZ        106.5100   89.3500  134.1100 C.ar      5 PHE5        0.0000 
    129 CZ        105.7900   90.4600  135.7800 C.ar      5 PHE5        0.0000 
    130 CZ        106.0900   90.7800  134.3400 C.ar      5 PHE5        0.0000 
    131 CZ        106.3900   82.5500  146.7000 C.ar      5 PHE5        0.0000 
    132 CZ        106.2900   84.3000  145.5000 C.ar      5 PHE5        0.0000 
    133 CZ        106.5900   84.6200  144.0700 C.ar      5 PHE5        0.0000 
    134 CZ        108.4500   86.5400  135.4700 C.ar      5 PHE5        0.0000 
    135 CZ        106.1800   86.0400  144.3000 C.ar      5 PHE5        0.0000 
    136 CZ        108.1100   83.2300  145.6500 C.ar      5 PHE5        0.0000 
    137 CZ        107.6900   84.6500  145.8800 C.ar      5 PHE5        0.0000 
    138 CZ        107.5800   86.3900  144.6800 C.ar      5 PHE5        0.0000 
    139 CZ        107.1600   87.8200  144.9100 C.ar      5 PHE5        0.0000 
    140 CZ        109.1000   85.0000  146.2600 C.ar      5 PHE5        0.0000 
    141 CZ        108.5700   88.1700  145.2900 C.ar      5 PHE5        0.0000 
    142 CZ        110.4000   87.1000  145.4400 C.ar      5 PHE5        0.0000 
    143 CZ        110.2900   88.8400  144.2400 C.ar      5 PHE5        0.0000 
    144 CA         99.9300   83.9900  145.6300 C.3       6 GLY6        0.0000 
    145 CA         99.8200   85.7300  144.4300 C.3       6 GLY6        0.0000 
    146 CA        100.4400   86.3700  141.5600 C.3       6 GLY6        0.0000 
    147 CA        101.3400   84.3400  146.0100 C.3       6 GLY6        0.0000 
    148 CA        100.9200   85.7600  146.2400 C.3       6 GLY6        0.0000 
    149 CA        101.2300   86.0800  144.8100 C.3       6 GLY6        0.0000 
    150 CA        101.5400   86.4100  143.3800 C.3       6 GLY6        0.0000 
    151 CA        101.4300   88.1500  142.1700 C.3       6 GLY6        0.0000 
    152 CA        105.7400   84.0900  135.9100 C.3       6 GLY6        0.0000 
    153 CA        102.6300   86.4400  145.1900 C.3       6 GLY6        0.0000 
    154 CA        102.9400   86.7600  143.7600 C.3       6 GLY6        0.0000 
    155 CA        102.8300   88.5000  142.5600 C.3       6 GLY6        0.0000 
    156 CA        103.8500   93.2700  134.4200 C.3       6 GLY6        0.0000 
    157 CA        107.1500   84.4500  136.3000 C.3       6 GLY6        0.0000 
    158 CA        104.7700   85.6900  143.9100 C.3       6 GLY6        0.0000 
    159 CA        104.6600   87.4300  142.7100 C.3       6 GLY6        0.0000 
    160 CA        104.2400   88.8500  142.9400 C.3       6 GLY6        0.0000 
    161 CA        104.5500   89.1700  141.5000 C.3       6 GLY6        0.0000 
    162 CA        105.4800   90.1400  137.2100 C.3       6 GLY6        0.0000 
    163 CA        108.5600   84.8000  136.6800 C.3       6 GLY6        0.0000 
    164 CA        106.0700   87.7800  143.0900 C.3       6 GLY6        0.0000 
    165 CA        107.4700   88.1400  143.4700 C.3       6 GLY6        0.0000 
    166 CA        109.3000   87.0700  143.6300 C.3       6 GLY6        0.0000 
    167 DU        103.1000   82.4600  141.2600 H         7 CUB7        0.0000 
    168 DU        103.4100   82.7800  139.8300 H         7 CUB7        0.0000 
    169 DU        102.0600   83.2400  144.3500 H         7 CUB7        0.0000 
    170 DU        102.3700   83.5600  142.9200 H         7 CUB7        0.0000 
    171 DU        102.6800   83.8800  141.4900 H         7 CUB7        0.0000 
    172 DU        102.9900   84.2000  140.0600 H         7 CUB7        0.0000 
    173 DU        101.6500   84.6600  144.5800 H         7 CUB7        0.0000 
    174 DU        101.9500   84.9800  143.1500 H         7 CUB7        0.0000 
    175 DU        103.2800   90.0700  133.5800 H         7 CUB7        0.0000 
    176 DU        101.2100   91.6300  139.7600 H         7 CUB7        0.0000 
    177 DU        103.7800   83.9100  143.3000 H         7 CUB7        0.0000 
    178 DU        104.0900   84.2300  141.8700 H         7 CUB7        0.0000 
    179 DU        103.3600   85.3400  143.5300 H         7 CUB7        0.0000 
    180 DU        103.6700   85.6600  142.1000 H         7 CUB7        0.0000 
    181 DU        103.9800   85.9800  140.6700 H         7 CUB7        0.0000 
    182 DU        103.2500   87.0800  142.3300 H         7 CUB7        0.0000 
    183 DU        103.5600   87.4000  140.8900 H         7 CUB7        0.0000 
    184 DU        103.1400   88.8200  141.1200 H         7 CUB7        0.0000 
    185 DU        104.3800   90.1000  135.3900 H         7 CUB7        0.0000 
    186 DU        104.6900   90.4200  133.9600 H         7 CUB7        0.0000 
    187 DU        105.0000   90.7400  132.5300 H         7 CUB7        0.0000 
    188 DU        103.0300   90.5600  139.9200 H         7 CUB7        0.0000 
    189 DU        103.3400   90.8800  138.4900 H         7 CUB7        0.0000 
    190 DU        104.2700   91.8500  134.1900 H         7 CUB7        0.0000 
    191 DU        107.0400   86.1900  135.0900 H         7 CUB7        0.0000 
    192 DU        105.0800   86.0100  142.4800 H         7 CUB7        0.0000 
@<TRIPOS>BOND
@<TRIPOS>SUBSTRUCTURE
     1 SER1        1 GROUP   
     2 ALA2       26 GROUP   
     3 ASP3       56 GROUP   
     4 LYS4       84 GROUP   
     5 PHE5      109 GROUP   
     6 GLY6      144 GROUP   
     7 CUB7      167 GROUP   
@<TRIPOS>SET

