#    Name: 6hz9_4_GDP_CAVITY_N1_4
#    Modification time : Fri May 22 19:40:48 2020

@<TRIPOS>MOLECULE
6hz9_4_GDP_CAVITY_N1_4
  135     0     7     0     0
SMALL
NO_CHARGES


@<TRIPOS>ATOM
      1 OG         67.6600  136.1900  145.6400 O.3       1 SER1        0.0000 
      2 OG         67.9700  136.5100  144.2100 O.3       1 SER1        0.0000 
      3 OG         67.2400  137.6100  145.8700 O.3       1 SER1        0.0000 
      4 OG         67.8600  138.2500  143.0000 O.3       1 SER1        0.0000 
      5 OG         66.5100  138.7100  147.5300 O.3       1 SER1        0.0000 
      6 OG         66.8200  139.0300  146.1000 O.3       1 SER1        0.0000 
      7 OG         67.1300  139.3500  144.6600 O.3       1 SER1        0.0000 
      8 OG         65.0600  140.9200  150.8500 O.3       1 SER1        0.0000 
      9 OG         65.3700  141.2400  149.4200 O.3       1 SER1        0.0000 
     10 OG         64.6400  142.3400  151.0800 O.3       1 SER1        0.0000 
     11 OG         64.9500  142.6600  149.6500 O.3       1 SER1        0.0000 
     12 OG         64.7300  146.1500  147.2400 O.3       1 SER1        0.0000 
     13 OG         68.6500  137.9600  146.2500 O.3       1 SER1        0.0000 
     14 OG         68.9500  138.2900  144.8200 O.3       1 SER1        0.0000 
     15 OG         66.8800  139.8500  151.0000 O.3       1 SER1        0.0000 
     16 OG         67.1900  140.1700  149.5700 O.3       1 SER1        0.0000 
     17 OG         67.5000  140.4900  148.1400 O.3       1 SER1        0.0000 
     18 OG         66.4600  141.2700  151.2300 O.3       1 SER1        0.0000 
     19 OG         66.0400  142.6900  151.4600 O.3       1 SER1        0.0000 
     20 OG         65.9400  144.4400  150.2600 O.3       1 SER1        0.0000 
     21 OG         66.2400  144.7600  148.8200 O.3       1 SER1        0.0000 
     22 OG         65.5200  145.8600  150.4800 O.3       1 SER1        0.0000 
     23 OG         69.0200  139.1000  149.7300 O.3       1 SER1        0.0000 
     24 OG         69.3200  139.4200  148.2900 O.3       1 SER1        0.0000 
     25 OG         68.2900  140.2000  151.3900 O.3       1 SER1        0.0000 
     26 OG         70.4200  139.4500  150.1100 O.3       1 SER1        0.0000 
     27 O          64.6900  139.7800  147.3800 O.2       2 ALA2        0.0000 
     28 N          61.9800  146.2500  151.3800 N.am      2 ALA2        0.0000 
     29 N          64.0200  141.7000  153.9400 N.am      2 ALA2        0.0000 
     30 N          64.3300  142.0200  152.5100 N.am      2 ALA2        0.0000 
     31 N          63.2900  142.8000  155.6000 N.am      2 ALA2        0.0000 
     32 N          63.6000  143.1200  154.1700 N.am      2 ALA2        0.0000 
     33 N          63.9100  143.4400  152.7400 N.am      2 ALA2        0.0000 
     34 N          64.2200  143.7600  151.3100 N.am      2 ALA2        0.0000 
     35 N          63.1800  144.5400  154.4000 N.am      2 ALA2        0.0000 
     36 N          63.4900  144.8600  152.9700 N.am      2 ALA2        0.0000 
     37 N          63.8000  145.1800  151.5300 N.am      2 ALA2        0.0000 
     38 N          63.0700  146.2900  153.2000 N.am      2 ALA2        0.0000 
     39 N          63.3800  146.6100  151.7600 N.am      2 ALA2        0.0000 
     40 N          63.6900  146.9300  150.3300 N.am      2 ALA2        0.0000 
     41 O          64.0000  147.2500  148.9000 O.2       2 ALA2        0.0000 
     42 N          62.6600  147.7100  153.4200 N.am      2 ALA2        0.0000 
     43 N          66.6800  137.7800  153.6400 N.am      2 ALA2        0.0000 
     44 N          66.9900  138.1000  152.2100 N.am      2 ALA2        0.0000 
     45 O          68.2300  139.3900  146.4800 O.2       2 ALA2        0.0000 
     46 O          68.5400  139.7100  145.0500 O.2       2 ALA2        0.0000 
     47 N          66.2600  139.2100  153.8700 N.am      2 ALA2        0.0000 
     48 N          66.5700  139.5300  152.4400 N.am      2 ALA2        0.0000 
     49 O          67.8100  140.8100  146.7100 O.2       2 ALA2        0.0000 
     50 N          66.1500  140.9500  152.6700 N.am      2 ALA2        0.0000 
     51 N          65.7400  142.3700  152.8900 N.am      2 ALA2        0.0000 
     52 N          65.6300  144.1100  151.6900 N.am      2 ALA2        0.0000 
     53 N          65.2100  145.5400  151.9200 N.am      2 ALA2        0.0000 
     54 N          64.4800  146.6400  153.5800 N.am      2 ALA2        0.0000 
     55 O          70.0500  138.3200  146.6300 O.2       2 ALA2        0.0000 
     56 O          70.3600  138.6400  145.2000 O.2       2 ALA2        0.0000 
     57 N          68.4000  138.4600  152.5900 N.am      2 ALA2        0.0000 
     58 N          68.7100  138.7800  151.1600 N.am      2 ALA2        0.0000 
     59 O          69.6300  139.7400  146.8600 O.2       2 ALA2        0.0000 
     60 O          69.9400  140.0600  145.4300 O.2       2 ALA2        0.0000 
     61 O          71.4600  138.6700  147.0200 O.2       2 ALA2        0.0000 
     62 N          70.1100  139.1300  151.5400 N.am      2 ALA2        0.0000 
     63 N          69.7000  140.5500  151.7700 N.am      2 ALA2        0.0000 
     64 OD1        66.9300  137.2900  147.3000 O.co2     3 ASP3        0.0000 
     65 OD1        69.7900  135.4400  144.3600 O.co2     3 ASP3        0.0000 
     66 OD1        68.0300  137.3200  149.1200 O.co2     3 ASP3        0.0000 
     67 OD1        68.3400  137.6400  147.6800 O.co2     3 ASP3        0.0000 
     68 OD1        68.8400  140.0300  143.6100 O.co2     3 ASP3        0.0000 
     69 OD1        70.4700  136.8900  146.4100 O.co2     3 ASP3        0.0000 
     70 OD1        70.7800  137.2200  144.9700 O.co2     3 ASP3        0.0000 
     71 OD1        71.4000  137.8600  142.1100 O.co2     3 ASP3        0.0000 
     72 OD1        71.8800  137.2500  146.7900 O.co2     3 ASP3        0.0000 
     73 NZ         59.9500  145.2600  153.8600 N.4       4 LYS4        0.0000 
     74 NZ         63.7600  138.8200  151.6700 N.4       4 LYS4        0.0000 
     75 NZ         64.0700  139.1400  150.2400 N.4       4 LYS4        0.0000 
     76 NZ         61.3600  145.6100  154.2500 N.4       4 LYS4        0.0000 
     77 NZ         68.3800  135.0900  143.9800 N.4       4 LYS4        0.0000 
     78 NZ         68.2700  136.8300  142.7800 N.4       4 LYS4        0.0000 
     79 NZ         66.2000  138.3900  148.9600 N.4       4 LYS4        0.0000 
     80 NZ         65.1700  139.1700  152.0500 N.4       4 LYS4        0.0000 
     81 NZ         65.4700  139.5000  150.6200 N.4       4 LYS4        0.0000 
     82 NZ         65.7800  139.8200  149.1900 N.4       4 LYS4        0.0000 
     83 NZ         68.7500  136.2200  147.4600 N.4       4 LYS4        0.0000 
     84 NZ         69.0600  136.5400  146.0200 N.4       4 LYS4        0.0000 
     85 NZ         69.6800  137.1800  143.1600 N.4       4 LYS4        0.0000 
     86 NZ         67.3000  138.4300  150.7800 N.4       4 LYS4        0.0000 
     87 NZ         67.6100  138.7500  149.3400 N.4       4 LYS4        0.0000 
     88 NZ         69.8500  136.2500  149.2700 N.4       4 LYS4        0.0000 
     89 NZ         70.1600  136.5700  147.8400 N.4       4 LYS4        0.0000 
     90 NZ         69.4300  137.6800  149.5000 N.4       4 LYS4        0.0000 
     91 CZ         61.5200  141.3100  151.7500 C.ar      5 PHE5        0.0000 
     92 CZ         62.9200  141.6700  152.1300 C.ar      5 PHE5        0.0000 
     93 CZ         63.2300  141.9900  150.7000 C.ar      5 PHE5        0.0000 
     94 CZ         62.5000  143.0900  152.3600 C.ar      5 PHE5        0.0000 
     95 CZ         62.8100  143.4100  150.9200 C.ar      5 PHE5        0.0000 
     96 CZ         62.0900  144.5100  152.5800 C.ar      5 PHE5        0.0000 
     97 CZ         62.3900  144.8300  151.1500 C.ar      5 PHE5        0.0000 
     98 CZ         63.3200  145.7900  146.8600 C.ar      5 PHE5        0.0000 
     99 CZ         62.2800  146.5700  149.9500 C.ar      5 PHE5        0.0000 
    100 CZ         62.5900  146.9000  148.5200 C.ar      5 PHE5        0.0000 
    101 CZ         64.5300  144.0800  149.8700 C.ar      5 PHE5        0.0000 
    102 CZ         64.1100  145.5000  150.1000 C.ar      5 PHE5        0.0000 
    103 CZ         64.4200  145.8300  148.6700 C.ar      5 PHE5        0.0000 
    104 CZ         62.4600  145.6400  156.0600 C.ar      5 PHE5        0.0000 
    105 CZ         62.7600  145.9700  154.6300 C.ar      5 PHE5        0.0000 
    106 CZ         64.7900  146.9600  152.1500 C.ar      5 PHE5        0.0000 
    107 CZ         69.1300  137.3600  150.9300 C.ar      5 PHE5        0.0000 
    108 CA         65.1000  138.3600  147.1500 C.3       6 GLY6        0.0000 
    109 CA         64.3800  139.4600  148.8100 C.3       6 GLY6        0.0000 
    110 CA         63.6500  140.5600  150.4700 C.3       6 GLY6        0.0000 
    111 CA         61.6700  145.9300  152.8100 C.3       6 GLY6        0.0000 
    112 CA         62.9000  147.2200  147.0800 C.3       6 GLY6        0.0000 
    113 CA         60.9400  147.0400  154.4700 C.3       6 GLY6        0.0000 
    114 CA         66.0900  140.1400  147.7600 C.3       6 GLY6        0.0000 
    115 CA         65.6700  141.5600  147.9900 C.3       6 GLY6        0.0000 
    116 CA         65.2600  142.9800  148.2100 C.3       6 GLY6        0.0000 
    117 CA         64.8400  144.4000  148.4400 C.3       6 GLY6        0.0000 
    118 CA         69.9900  137.5000  141.7300 C.3       6 GLY6        0.0000 
    119 CA         67.7200  137.0000  150.5500 C.3       6 GLY6        0.0000 
    120 CA         69.2600  138.6100  143.3900 C.3       6 GLY6        0.0000 
    121 CA         71.0900  137.5400  143.5400 C.3       6 GLY6        0.0000 
    122 CA         69.2200  141.1600  147.0900 C.3       6 GLY6        0.0000 
    123 CA         72.1900  137.5700  145.3600 C.3       6 GLY6        0.0000 
    124 CA         70.7300  139.7700  148.6800 C.3       6 GLY6        0.0000 
    125 DU         63.3400  140.2400  151.9000 H         7 CUB7        0.0000 
    126 DU         62.6100  141.3500  153.5600 H         7 CUB7        0.0000 
    127 DU         62.1900  142.7700  153.7900 H         7 CUB7        0.0000 
    128 DU         61.7800  144.1900  154.0200 H         7 CUB7        0.0000 
    129 DU         64.4400  140.2800  153.7200 H         7 CUB7        0.0000 
    130 DU         64.7500  140.6000  152.2800 H         7 CUB7        0.0000 
    131 DU         69.3700  136.8600  144.5900 H         7 CUB7        0.0000 
    132 DU         67.9200  139.0700  147.9100 H         7 CUB7        0.0000 
    133 DU         69.7400  138.0000  148.0700 H         7 CUB7        0.0000 
    134 DU         70.8400  138.0300  149.8800 H         7 CUB7        0.0000 
    135 DU         71.1500  138.3500  148.4500 H         7 CUB7        0.0000 
@<TRIPOS>BOND
@<TRIPOS>SUBSTRUCTURE
     1 SER1        1 GROUP   
     2 ALA2       27 GROUP   
     3 ASP3       64 GROUP   
     4 LYS4       73 GROUP   
     5 PHE5       91 GROUP   
     6 GLY6      108 GROUP   
     7 CUB7      125 GROUP   
@<TRIPOS>SET

