#    Name: 6hz9_7_GNP
#    Modification time : Fri May 22 19:41:07 2020

@<TRIPOS>MOLECULE
6hz9_7_GNP
   45    47     1     0     1
SMALL
NO_CHARGES


@<TRIPOS>ATOM
      1 PG        158.1720  156.0130  108.8310 P.3       1 GNP1001     0.0000 
      2 O1G       158.9080  154.8710  108.2610 O.co2     1 GNP1001     0.0000 
      3 O2G       157.0970  155.5330  109.7130 O.co2     1 GNP1001     0.0000 
      4 O3G       159.1000  156.8490  109.6160 O.co2     1 GNP1001     0.0000 
      5 N3B       157.5920  156.8610  107.6540 N.3       1 GNP1001     0.0000 
      6 PB        156.6820  158.0820  107.8910 P.3       1 GNP1001     0.0000 
      7 O1B       157.5010  159.1510  108.4770 O.co2     1 GNP1001     0.0000 
      8 O2B       155.5470  157.7480  108.7580 O.co2     1 GNP1001     0.0000 
      9 O3A       156.1570  158.5460  106.4460 O.3       1 GNP1001     0.0000 
     10 PA        156.7020  159.9930  105.9610 P.3       1 GNP1001     0.0000 
     11 O1A       158.1770  160.0110  106.0330 O.co2     1 GNP1001     0.0000 
     12 O2A       156.1870  161.0230  106.8850 O.co2     1 GNP1001     0.0000 
     13 O5'       156.2470  160.3130  104.4360 O.3       1 GNP1001     0.0000 
     14 C5'       157.0180  159.7690  103.3610 C.3       1 GNP1001     0.0000 
     15 C4'       156.6130  160.2930  101.9670 C.3       1 GNP1001     0.0000 
     16 O4'       155.1420  160.2330  101.9620 O.3       1 GNP1001     0.0000 
     17 C3'       156.9450  161.7510  101.6760 C.3       1 GNP1001     0.0000 
     18 O3'       157.1070  161.9400  100.2560 O.3       1 GNP1001     0.0000 
     19 C2'       155.6830  162.4180  102.1330 C.3       1 GNP1001     0.0000 
     20 O2'       155.5730  163.7420  101.5950 O.3       1 GNP1001     0.0000 
     21 C1'       154.6810  161.5160  101.4790 C.3       1 GNP1001     0.0000 
     22 N9        153.3130  161.8220  101.9150 N.pl3     1 GNP1001     0.0000 
     23 C8        152.7730  161.2650  102.9840 C.2       1 GNP1001     0.0000 
     24 N7        151.5450  161.7410  103.1240 N.2       1 GNP1001     0.0000 
     25 C5        151.3320  162.6090  102.1480 C.2       1 GNP1001     0.0000 
     26 C6        150.2720  163.3480  101.8610 C.2       1 GNP1001     0.0000 
     27 O6        149.2600  163.2920  102.5570 O.2       1 GNP1001     0.0000 
     28 N1        150.3120  164.1950  100.7580 N.am      1 GNP1001     0.0000 
     29 C2        151.4760  164.2350   99.9910 C.2       1 GNP1001     0.0000 
     30 N2        151.5770  165.0230   98.9270 N.pl3     1 GNP1001     0.0000 
     31 N3        152.5070  163.4670  100.3390 N.2       1 GNP1001     0.0000 
     32 C4        152.4290  162.6600  101.3970 C.2       1 GNP1001     0.0000 
     33 HNB3      157.8710  156.6490  106.7360 H         1 GNP1001     0.0000 
     34 H5'2      156.8530  158.6980  103.3740 H         1 GNP1001     0.0000 
     35 H5'1      158.0690  159.9810  103.5300 H         1 GNP1001     0.0000 
     36 H4'       157.1180  159.6870  101.2220 H         1 GNP1001     0.0000 
     37 H3'       157.8270  162.0940  102.1900 H         1 GNP1001     0.0000 
     38 HO3'      157.2360  162.9070  100.0520 H         1 GNP1001     0.0000 
     39 H2'       155.6020  162.3540  103.2060 H         1 GNP1001     0.0000 
     40 HO2'      156.3060  164.3090  101.9590 H         1 GNP1001     0.0000 
     41 H1'       154.7590  161.5700  100.3990 H         1 GNP1001     0.0000 
     42 H8        153.2470  160.5220  103.6210 H         1 GNP1001     0.0000 
     43 HN1       149.5240  164.7610  100.5250 H         1 GNP1001     0.0000 
     44 HN21      150.8140  165.6060   98.6540 H         1 GNP1001     0.0000 
     45 HN22      152.4270  165.0310   98.4000 H         1 GNP1001     0.0000 
@<TRIPOS>BOND
     1    1    2 ar   
     2    1    3 ar   
     3    1    4 ar   
     4    1    5 1    
     5    5    6 1    
     6    5   33 1    
     7    6    7 ar   
     8    6    8 ar   
     9    6    9 1    
    10    9   10 1    
    11   10   11 ar   
    12   10   12 ar   
    13   10   13 1    
    14   13   14 1    
    15   14   15 1    
    16   14   34 1    
    17   14   35 1    
    18   15   16 1    
    19   15   17 1    
    20   15   36 1    
    21   16   21 1    
    22   17   18 1    
    23   17   19 1    
    24   17   37 1    
    25   18   38 1    
    26   19   20 1    
    27   19   21 1    
    28   19   39 1    
    29   20   40 1    
    30   21   22 1    
    31   21   41 1    
    32   22   23 1    
    33   22   32 1    
    34   23   24 2    
    35   23   42 1    
    36   24   25 1    
    37   25   26 1    
    38   25   32 2    
    39   26   27 2    
    40   26   28 am   
    41   28   29 1    
    42   28   43 1    
    43   29   30 1    
    44   29   31 2    
    45   30   44 1    
    46   30   45 1    
    47   31   32 1    
@<TRIPOS>SUBSTRUCTURE
     1 GNP1001     1 GROUP   
@<TRIPOS>SET
ATOM$ORANGE STATIC     ATOMS   COLORGROUP SYSTEM 
20 14 14 15 15 17 17 19 19 21 21 23 23 25 25 26 26 29 \
29 32 32 

