#    Name: 6hz9_1_GNP_CAVITY_N1_8
#    Modification time : Fri May 22 19:40:35 2020

@<TRIPOS>MOLECULE
6hz9_1_GNP_CAVITY_N1_8
   78     0     7     0     0
SMALL
NO_CHARGES


@<TRIPOS>ATOM
      1 OG         96.2300   90.1100  100.6500 O.3       1 SER1        0.0000 
      2 OG         95.5000   91.2100  102.3100 O.3       1 SER1        0.0000 
      3 OG         95.0800   92.6400  102.5400 O.3       1 SER1        0.0000 
      4 OG         97.6300   90.4600  101.0300 O.3       1 SER1        0.0000 
      5 OG         96.9100   91.5700  102.6900 O.3       1 SER1        0.0000 
      6 OG         96.4900   92.9900  102.9200 O.3       1 SER1        0.0000 
      7 OG         99.0400   90.8200  101.4200 O.3       1 SER1        0.0000 
      8 OG        100.8600   89.7500  101.5700 O.3       1 SER1        0.0000 
      9 OG        100.1400   90.8500  103.2300 O.3       1 SER1        0.0000 
     10 OG        101.9600   89.7800  103.3800 O.3       1 SER1        0.0000 
     11 N          93.7200   89.7300   98.4500 N.am      2 ALA2        0.0000 
     12 N          95.9600   87.2400   98.3800 N.am      2 ALA2        0.0000 
     13 N          96.2700   87.5600   96.9500 N.am      2 ALA2        0.0000 
     14 N          95.5500   88.6600   98.6100 N.am      2 ALA2        0.0000 
     15 N          95.8500   88.9800   97.1800 N.am      2 ALA2        0.0000 
     16 N          95.1300   90.0800   98.8400 N.am      2 ALA2        0.0000 
     17 N          98.1000   86.4900   97.1000 N.am      2 ALA2        0.0000 
     18 N          97.3700   87.5900   98.7600 N.am      2 ALA2        0.0000 
     19 N          96.6400   88.6900  100.4200 N.am      2 ALA2        0.0000 
     20 N          96.5300   90.4300   99.2200 N.am      2 ALA2        0.0000 
     21 N          98.7800   87.9400   99.1400 N.am      2 ALA2        0.0000 
     22 O          95.8700   92.3500  105.7900 O.2       2 ALA2        0.0000 
     23 O          96.1800   92.6700  104.3500 O.2       2 ALA2        0.0000 
     24 N         100.1800   88.2900   99.5300 N.am      2 ALA2        0.0000 
     25 N          99.7700   89.7200   99.7500 N.am      2 ALA2        0.0000 
     26 O          98.3100   91.9200  103.0800 O.2       2 ALA2        0.0000 
     27 O         102.3800   88.3600  103.1600 O.2       2 ALA2        0.0000 
     28 N         101.6500   89.4600  104.8200 N.am      2 ALA2        0.0000 
     29 OD1        94.8800   90.5700  105.1800 O.co2     3 ASP3        0.0000 
     30 OD1        95.1900   90.8900  103.7400 O.co2     3 ASP3        0.0000 
     31 OD1        94.4600   91.9900  105.4000 O.co2     3 ASP3        0.0000 
     32 OD1        94.7700   92.3200  103.9700 O.co2     3 ASP3        0.0000 
     33 NZ         94.8700   87.2000   96.5700 N.4       4 LYS4        0.0000 
     34 NZ         94.4500   88.6300   96.7900 N.4       4 LYS4        0.0000 
     35 NZ         94.5100   89.4400  101.7000 N.4       4 LYS4        0.0000 
     36 NZ         94.8200   89.7600  100.2700 N.4       4 LYS4        0.0000 
     37 NZ         94.4000   91.1800  100.5000 N.4       4 LYS4        0.0000 
     38 NZ         98.2100   84.7400   98.3100 N.4       4 LYS4        0.0000 
     39 NZ         99.9200   85.4200   97.2600 N.4       4 LYS4        0.0000 
     40 NZ         99.2000   86.5200   98.9200 N.4       4 LYS4        0.0000 
     41 NZ        100.6000   86.8700   99.3000 N.4       4 LYS4        0.0000 
     42 CZ         94.3600   84.8200  100.6300 C.ar      5 PHE5        0.0000 
     43 CZ         93.9400   86.2400  100.8600 C.ar      5 PHE5        0.0000 
     44 CZ         95.6600   86.9100   99.8100 C.ar      5 PHE5        0.0000 
     45 CZ         94.6200   87.7000  102.9100 C.ar      5 PHE5        0.0000 
     46 CZ         94.9300   88.0200  101.4700 C.ar      5 PHE5        0.0000 
     47 CZ         98.8300   85.3800   95.4400 C.ar      5 PHE5        0.0000 
     48 CZ         97.7900   86.1700   98.5300 C.ar      5 PHE5        0.0000 
     49 CZ         97.0600   87.2700  100.1900 C.ar      5 PHE5        0.0000 
     50 CZ         96.3300   88.3700  101.8500 C.ar      5 PHE5        0.0000 
     51 CZ         95.9200   89.7900  102.0800 C.ar      5 PHE5        0.0000 
     52 CZ         99.5100   86.8400   97.4800 C.ar      5 PHE5        0.0000 
     53 CZ         98.4700   87.6200  100.5800 C.ar      5 PHE5        0.0000 
     54 CZ         98.0500   89.0400  100.8000 C.ar      5 PHE5        0.0000 
     55 CZ         97.3200   90.1400  102.4700 C.ar      5 PHE5        0.0000 
     56 CZ         99.8800   87.9700  100.9600 C.ar      5 PHE5        0.0000 
     57 CZ         99.4600   89.3900  101.1900 C.ar      5 PHE5        0.0000 
     58 CZ        100.9700   88.0000  102.7700 C.ar      5 PHE5        0.0000 
     59 CZ        101.2800   88.3200  101.3400 C.ar      5 PHE5        0.0000 
     60 CZ        100.2500   89.1100  104.4300 C.ar      5 PHE5        0.0000 
     61 CZ        100.5600   89.4300  103.0000 C.ar      5 PHE5        0.0000 
     62 CZ        100.4500   91.1700  101.8000 C.ar      5 PHE5        0.0000 
     63 CA         92.5300   85.8900  100.4800 C.3       6 GLY6        0.0000 
     64 CA         92.8400   86.2100   99.0500 C.3       6 GLY6        0.0000 
     65 CA         92.7300   87.9500   97.8400 C.3       6 GLY6        0.0000 
     66 CA         93.5200   87.6600  101.0900 C.3       6 GLY6        0.0000 
     67 CA         93.8300   87.9800   99.6600 C.3       6 GLY6        0.0000 
     68 CA         94.1400   88.3000   98.2300 C.3       6 GLY6        0.0000 
     69 CA         95.6100   89.4700  103.5200 C.3       6 GLY6        0.0000 
     70 CA         97.0100   89.8200  103.9000 C.3       6 GLY6        0.0000 
     71 CA         96.2900   90.9300  105.5600 C.3       6 GLY6        0.0000 
     72 CA         96.6000   91.2500  104.1300 C.3       6 GLY6        0.0000 
     73 CA         98.7300   90.5000  102.8500 C.3       6 GLY6        0.0000 
     74 CA        102.0700   88.0400  104.5900 C.3       6 GLY6        0.0000 
     75 DU         94.2500   86.5600   99.4300 H         7 CUB7        0.0000 
     76 DU         94.5600   86.8800   98.0000 H         7 CUB7        0.0000 
     77 DU         96.3800   85.8100   98.1500 H         7 CUB7        0.0000 
     78 DU         95.2400   88.3400  100.0400 H         7 CUB7        0.0000 
@<TRIPOS>BOND
@<TRIPOS>SUBSTRUCTURE
     1 SER1        1 GROUP   
     2 ALA2       11 GROUP   
     3 ASP3       29 GROUP   
     4 LYS4       33 GROUP   
     5 PHE5       42 GROUP   
     6 GLY6       63 GROUP   
     7 CUB7       75 GROUP   
@<TRIPOS>SET

