#    Name: 6hz9_1_GNP
#    Modification time : Fri May 22 19:40:33 2020

@<TRIPOS>MOLECULE
6hz9_1_GNP
   45    47     1     0     1
SMALL
NO_CHARGES


@<TRIPOS>ATOM
      1 PG         93.8300   95.9710  108.8160 P.3       1 GNP1001     0.0000 
      2 O1G        93.0910   97.1090  108.2410 O.co2     1 GNP1001     0.0000 
      3 O2G        94.8990   96.4570  109.7020 O.co2     1 GNP1001     0.0000 
      4 O3G        92.9020   95.1320  109.5990 O.co2     1 GNP1001     0.0000 
      5 N3B        94.4180   95.1240  107.6420 N.3       1 GNP1001     0.0000 
      6 PB         95.3320   93.9070  107.8850 P.3       1 GNP1001     0.0000 
      7 O1B        94.5150   92.8350  108.4690 O.co2     1 GNP1001     0.0000 
      8 O2B        96.4620   94.2470  108.7560 O.co2     1 GNP1001     0.0000 
      9 O3A        95.8650   93.4440  106.4420 O.3       1 GNP1001     0.0000 
     10 PA         95.3280   91.9930  105.9580 P.3       1 GNP1001     0.0000 
     11 O1A        93.8530   91.9690  106.0240 O.co2     1 GNP1001     0.0000 
     12 O2A        95.8430   90.9670  106.8850 O.co2     1 GNP1001     0.0000 
     13 O5'        95.7910   91.6740  104.4340 O.3       1 GNP1001     0.0000 
     14 C5'        95.0220   92.2120  103.3560 C.3       1 GNP1001     0.0000 
     15 C4'        95.4340   91.6880  101.9640 C.3       1 GNP1001     0.0000 
     16 O4'        96.9060   91.7540  101.9650 O.3       1 GNP1001     0.0000 
     17 C3'        95.1100   90.2290  101.6740 C.3       1 GNP1001     0.0000 
     18 O3'        94.9550   90.0380  100.2530 O.3       1 GNP1001     0.0000 
     19 C2'        96.3730   89.5680  102.1370 C.3       1 GNP1001     0.0000 
     20 O2'        96.4910   88.2430  101.6010 O.3       1 GNP1001     0.0000 
     21 C1'        97.3730   90.4730  101.4860 C.3       1 GNP1001     0.0000 
     22 N9         98.7410   90.1730  101.9270 N.pl3     1 GNP1001     0.0000 
     23 C8         99.2740   90.7340  102.9980 C.2       1 GNP1001     0.0000 
     24 N7        100.5040   90.2640  103.1440 N.2       1 GNP1001     0.0000 
     25 C5        100.7250   89.3950  102.1700 C.2       1 GNP1001     0.0000 
     26 C6        101.7890   88.6590  101.8880 C.2       1 GNP1001     0.0000 
     27 O6        102.7970   88.7210  102.5880 O.2       1 GNP1001     0.0000 
     28 N1        101.7560   87.8110  100.7860 N.am      1 GNP1001     0.0000 
     29 C2        100.5960   87.7650  100.0150 C.2       1 GNP1001     0.0000 
     30 N2        100.5030   86.9750   98.9510 N.pl3     1 GNP1001     0.0000 
     31 N3         99.5600   88.5300  100.3570 N.2       1 GNP1001     0.0000 
     32 C4         99.6310   89.3380  101.4150 C.2       1 GNP1001     0.0000 
     33 HNB3       94.1490   95.3300  106.7310 H         1 GNP1001     0.0000 
     34 H5'2       95.1840   93.2830  103.3670 H         1 GNP1001     0.0000 
     35 H5'1       93.9700   91.9970  103.5210 H         1 GNP1001     0.0000 
     36 H4'        94.9300   92.2920  101.2160 H         1 GNP1001     0.0000 
     37 H3'        94.2200   89.8800  102.1930 H         1 GNP1001     0.0000 
     38 HO3'       94.8300   89.0690  100.0500 H         1 GNP1001     0.0000 
     39 H2'        96.4500   89.6340  103.2100 H         1 GNP1001     0.0000 
     40 HO2'       95.7590   87.6730  101.9630 H         1 GNP1001     0.0000 
     41 H1'        97.3000   90.4170  100.4060 H         1 GNP1001     0.0000 
     42 H8         98.7950   91.4750  103.6320 H         1 GNP1001     0.0000 
     43 HN1       102.5480   87.2480  100.5570 H         1 GNP1001     0.0000 
     44 HN21      101.2690   86.3950   98.6820 H         1 GNP1001     0.0000 
     45 HN22       99.6550   86.9640   98.4210 H         1 GNP1001     0.0000 
@<TRIPOS>BOND
     1    1    2 ar   
     2    1    3 ar   
     3    1    4 ar   
     4    1    5 1    
     5    5    6 1    
     6    5   33 1    
     7    6    7 ar   
     8    6    8 ar   
     9    6    9 1    
    10    9   10 1    
    11   10   11 ar   
    12   10   12 ar   
    13   10   13 1    
    14   13   14 1    
    15   14   15 1    
    16   14   34 1    
    17   14   35 1    
    18   15   16 1    
    19   15   17 1    
    20   15   36 1    
    21   16   21 1    
    22   17   18 1    
    23   17   19 1    
    24   17   37 1    
    25   18   38 1    
    26   19   20 1    
    27   19   21 1    
    28   19   39 1    
    29   20   40 1    
    30   21   22 1    
    31   21   41 1    
    32   22   23 1    
    33   22   32 1    
    34   23   24 2    
    35   23   42 1    
    36   24   25 1    
    37   25   26 1    
    38   25   32 2    
    39   26   27 2    
    40   26   28 am   
    41   28   29 1    
    42   28   43 1    
    43   29   30 1    
    44   29   31 2    
    45   30   44 1    
    46   30   45 1    
    47   31   32 1    
@<TRIPOS>SUBSTRUCTURE
     1 GNP1001     1 GROUP   
@<TRIPOS>SET
ATOM$ORANGE STATIC     ATOMS   COLORGROUP SYSTEM 
20 14 14 15 15 17 17 19 19 21 21 23 23 25 25 26 26 29 \
29 32 32 

