#    Name: 6hz9_12_GDP_CAVITY_N1_4
#    Modification time : Fri May 22 19:41:29 2020

@<TRIPOS>MOLECULE
6hz9_12_GDP_CAVITY_N1_4
  161     0     7     0     0
SMALL
NO_CHARGES


@<TRIPOS>ATOM
      1 OG        144.7500  163.4300  136.9500 O.3       1 SER1        0.0000 
      2 OG        142.7900  163.2500  144.3400 O.3       1 SER1        0.0000 
      3 OG        146.5800  162.3600  137.1000 O.3       1 SER1        0.0000 
      4 OG        146.1600  163.7800  137.3300 O.3       1 SER1        0.0000 
      5 OG        144.8100  164.2400  141.8500 O.3       1 SER1        0.0000 
      6 OG        145.7400  165.2000  137.5600 O.3       1 SER1        0.0000 
      7 OG        144.4000  165.6600  142.0800 O.3       1 SER1        0.0000 
      8 OG        147.6800  162.3900  138.9100 O.3       1 SER1        0.0000 
      9 OG        146.9500  163.4900  140.5800 O.3       1 SER1        0.0000 
     10 OG        147.2600  163.8100  139.1400 O.3       1 SER1        0.0000 
     11 OG        146.2200  164.5900  142.2400 O.3       1 SER1        0.0000 
     12 OG        146.5300  164.9100  140.8000 O.3       1 SER1        0.0000 
     13 OG        151.0200  159.9300  140.6600 O.3       1 SER1        0.0000 
     14 OG        150.6000  161.3500  140.8800 O.3       1 SER1        0.0000 
     15 OG        152.4200  160.2800  141.0400 O.3       1 SER1        0.0000 
     16 OG        152.0100  161.7000  141.2700 O.3       1 SER1        0.0000 
     17 O         146.0100  159.1600  136.2600 O.2       2 ALA2        0.0000 
     18 N         141.9500  166.0900  144.7900 N.am      2 ALA2        0.0000 
     19 N         140.5000  168.2900  148.1100 N.am      2 ALA2        0.0000 
     20 N         140.8100  168.6100  146.6800 N.am      2 ALA2        0.0000 
     21 N         141.1200  168.9400  145.2500 N.am      2 ALA2        0.0000 
     22 O         147.4100  159.5100  136.6400 O.2       2 ALA2        0.0000 
     23 O         147.0000  160.9300  136.8700 O.2       2 ALA2        0.0000 
     24 N         144.0900  165.3400  143.5100 N.am      2 ALA2        0.0000 
     25 N         143.3600  166.4400  145.1700 N.am      2 ALA2        0.0000 
     26 N         143.6700  166.7600  143.7400 N.am      2 ALA2        0.0000 
     27 N         143.9800  167.0800  142.3100 N.am      2 ALA2        0.0000 
     28 N         142.9400  167.8700  145.4000 N.am      2 ALA2        0.0000 
     29 N         141.9100  168.6500  148.5000 N.am      2 ALA2        0.0000 
     30 N         142.2100  168.9700  147.0600 N.am      2 ALA2        0.0000 
     31 N         142.5200  169.2900  145.6300 N.am      2 ALA2        0.0000 
     32 N         142.8300  169.6100  144.2000 N.am      2 ALA2        0.0000 
     33 O         148.2000  159.2200  139.8900 O.2       2 ALA2        0.0000 
     34 O         148.5100  159.5400  138.4600 O.2       2 ALA2        0.0000 
     35 O         147.7900  160.6500  140.1200 O.2       2 ALA2        0.0000 
     36 O         148.0900  160.9700  138.6900 O.2       2 ALA2        0.0000 
     37 O         147.3700  162.0700  140.3500 O.2       2 ALA2        0.0000 
     38 N         145.8000  166.0100  142.4600 N.am      2 ALA2        0.0000 
     39 N         146.1100  166.3300  141.0300 N.am      2 ALA2        0.0000 
     40 N         146.4200  166.6600  139.6000 N.am      2 ALA2        0.0000 
     41 N         145.3800  167.4400  142.6900 N.am      2 ALA2        0.0000 
     42 N         144.6600  168.5400  144.3500 N.am      2 ALA2        0.0000 
     43 N         144.9700  168.8600  142.9200 N.am      2 ALA2        0.0000 
     44 O         149.3000  159.2600  141.7100 O.2       2 ALA2        0.0000 
     45 O         148.8800  160.6800  141.9300 O.2       2 ALA2        0.0000 
     46 N         147.5200  166.6900  141.4100 N.am      2 ALA2        0.0000 
     47 N         147.8300  167.0100  139.9800 N.am      2 ALA2        0.0000 
     48 N         147.1000  168.1100  141.6400 N.am      2 ALA2        0.0000 
     49 O         150.7100  159.6100  142.0900 O.2       2 ALA2        0.0000 
     50 O         150.2900  161.0300  142.3200 O.2       2 ALA2        0.0000 
     51 OD1       149.8600  159.0800  133.9300 O.co2     3 ASP3        0.0000 
     52 OD1       148.8200  159.8600  137.0300 O.co2     3 ASP3        0.0000 
     53 OD1       149.1300  160.1900  135.5900 O.co2     3 ASP3        0.0000 
     54 OD1       149.4400  160.5100  134.1600 O.co2     3 ASP3        0.0000 
     55 OD1       149.6100  159.5800  140.2700 O.co2     3 ASP3        0.0000 
     56 OD1       149.9200  159.9000  138.8400 O.co2     3 ASP3        0.0000 
     57 OD1       150.2300  160.2200  137.4100 O.co2     3 ASP3        0.0000 
     58 OD1       150.5400  160.5400  135.9800 O.co2     3 ASP3        0.0000 
     59 OD1       149.5000  161.3200  139.0700 O.co2     3 ASP3        0.0000 
     60 OD1       149.8100  161.6400  137.6400 O.co2     3 ASP3        0.0000 
     61 OD1       149.0800  162.7400  139.3000 O.co2     3 ASP3        0.0000 
     62 OD1       148.6600  164.1600  139.5300 O.co2     3 ASP3        0.0000 
     63 OD1       151.4400  158.5100  140.4300 O.co2     3 ASP3        0.0000 
     64 OD1       151.7500  158.8300  139.0000 O.co2     3 ASP3        0.0000 
     65 OD1       151.3300  160.2500  139.2200 O.co2     3 ASP3        0.0000 
     66 OD1       151.6400  160.5700  137.7900 O.co2     3 ASP3        0.0000 
     67 OD1       150.9100  161.6700  139.4500 O.co2     3 ASP3        0.0000 
     68 OD1       151.2200  161.9900  138.0200 O.co2     3 ASP3        0.0000 
     69 OD1       150.1800  162.7700  141.1100 O.co2     3 ASP3        0.0000 
     70 OD1       149.7600  164.2000  141.3400 O.co2     3 ASP3        0.0000 
     71 OD1       149.3400  165.6200  141.5700 O.co2     3 ASP3        0.0000 
     72 OD1       149.6500  165.9400  140.1400 O.co2     3 ASP3        0.0000 
     73 OD1       153.4600  159.5000  137.9500 O.co2     3 ASP3        0.0000 
     74 OD1       153.0400  160.9200  138.1700 O.co2     3 ASP3        0.0000 
     75 OD1       152.3200  162.0200  139.8300 O.co2     3 ASP3        0.0000 
     76 OD1       151.5900  163.1300  141.4900 O.co2     3 ASP3        0.0000 
     77 OD1       151.1700  164.5500  141.7200 O.co2     3 ASP3        0.0000 
     78 OD1       148.9900  167.8500  146.7000 O.co2     3 ASP3        0.0000 
     79 NZ        149.0200  161.9300  134.3900 N.4       4 LYS4        0.0000 
     80 NZ        147.9800  162.7100  137.4800 N.4       4 LYS4        0.0000 
     81 NZ        148.2900  163.0300  136.0500 N.4       4 LYS4        0.0000 
     82 NZ        147.5700  164.1300  137.7100 N.4       4 LYS4        0.0000 
     83 NZ        147.1500  165.5500  137.9400 N.4       4 LYS4        0.0000 
     84 NZ        150.8500  160.8600  134.5400 N.4       4 LYS4        0.0000 
     85 NZ        150.1200  161.9600  136.2000 N.4       4 LYS4        0.0000 
     86 NZ        149.3900  163.0600  137.8600 N.4       4 LYS4        0.0000 
     87 NZ        148.2500  165.5900  139.7500 N.4       4 LYS4        0.0000 
     88 NZ        148.1400  167.3300  138.5500 N.4       4 LYS4        0.0000 
     89 NZ        153.1500  159.1800  139.3800 N.4       4 LYS4        0.0000 
     90 NZ        152.7300  160.6000  139.6100 N.4       4 LYS4        0.0000 
     91 NZ        154.8700  159.8500  138.3300 N.4       4 LYS4        0.0000 
     92 NZ        154.4500  161.2700  138.5600 N.4       4 LYS4        0.0000 
     93 CZ        142.3700  164.6700  144.5600 C.ar      5 PHE5        0.0000 
     94 CZ        141.2300  167.1900  146.4500 C.ar      5 PHE5        0.0000 
     95 CZ        140.3900  170.0400  146.9100 C.ar      5 PHE5        0.0000 
     96 CZ        144.2000  163.6000  144.7200 C.ar      5 PHE5        0.0000 
     97 CZ        143.7800  165.0200  144.9500 C.ar      5 PHE5        0.0000 
     98 CZ        142.6300  167.5400  146.8300 C.ar      5 PHE5        0.0000 
     99 CZ        145.4900  165.6900  143.9000 C.ar      5 PHE5        0.0000 
    100 CZ        145.0800  167.1200  144.1200 C.ar      5 PHE5        0.0000 
    101 CZ        144.3500  168.2200  145.7800 C.ar      5 PHE5        0.0000 
    102 CZ        143.6200  169.3200  147.4500 C.ar      5 PHE5        0.0000 
    103 CZ        143.9300  169.6400  146.0100 C.ar      5 PHE5        0.0000 
    104 CZ        146.9000  166.0500  144.2800 C.ar      5 PHE5        0.0000 
    105 CZ        146.4800  167.4700  144.5100 C.ar      5 PHE5        0.0000 
    106 CZ        146.0600  168.8900  144.7300 C.ar      5 PHE5        0.0000 
    107 CZ        148.3100  166.4000  144.6600 C.ar      5 PHE5        0.0000 
    108 CZ        147.8900  167.8200  144.8900 C.ar      5 PHE5        0.0000 
    109 CZ        149.4100  166.4300  146.4800 C.ar      5 PHE5        0.0000 
    110 CZ        149.7200  166.7500  145.0400 C.ar      5 PHE5        0.0000 
    111 CZ        150.3300  167.3900  142.1800 C.ar      5 PHE5        0.0000 
    112 CZ        149.3000  168.1700  145.2700 C.ar      5 PHE5        0.0000 
    113 CZ        149.9100  168.8100  142.4100 C.ar      5 PHE5        0.0000 
    114 CA        145.5900  160.5800  136.4900 C.3       6 GLY6        0.0000 
    115 CA        143.1000  163.5700  142.9000 C.3       6 GLY6        0.0000 
    116 CA        142.6800  164.9900  143.1300 C.3       6 GLY6        0.0000 
    117 CA        140.0800  169.7200  148.3400 C.3       6 GLY6        0.0000 
    118 CA        148.1400  158.4100  134.9800 C.3       6 GLY6        0.0000 
    119 CA        147.7200  159.8300  135.2100 C.3       6 GLY6        0.0000 
    120 CA        145.9600  161.7200  139.9600 C.3       6 GLY6        0.0000 
    121 CA        145.2300  162.8200  141.6300 C.3       6 GLY6        0.0000 
    122 CA        144.5100  163.9200  143.2900 C.3       6 GLY6        0.0000 
    123 CA        141.4900  170.0700  148.7200 C.3       6 GLY6        0.0000 
    124 CA        146.6400  163.1700  142.0100 C.3       6 GLY6        0.0000 
    125 CA        145.9100  164.2700  143.6700 C.3       6 GLY6        0.0000 
    126 CA        148.4700  162.1000  142.1600 C.3       6 GLY6        0.0000 
    127 CA        148.0500  163.5200  142.3900 C.3       6 GLY6        0.0000 
    128 CA        147.6300  164.9400  142.6200 C.3       6 GLY6        0.0000 
    129 CA        149.8700  162.4500  142.5400 C.3       6 GLY6        0.0000 
    130 CA        149.4500  163.8700  142.7700 C.3       6 GLY6        0.0000 
    131 CA        149.0400  165.3000  143.0000 C.3       6 GLY6        0.0000 
    132 CA        150.8600  164.2300  143.1500 C.3       6 GLY6        0.0000 
    133 CA        150.1300  165.3300  144.8100 C.3       6 GLY6        0.0000 
    134 CA        150.4400  165.6500  143.3800 C.3       6 GLY6        0.0000 
    135 CA        150.7500  165.9700  141.9500 C.3       6 GLY6        0.0000 
    136 CA        153.7200  162.3800  140.2200 C.3       6 GLY6        0.0000 
    137 CA        154.0300  162.7000  138.7800 C.3       6 GLY6        0.0000 
    138 DU        148.0300  160.1500  133.7800 H         7 CUB7        0.0000 
    139 DU        147.3100  161.2500  135.4400 H         7 CUB7        0.0000 
    140 DU        147.6100  161.5800  134.0100 H         7 CUB7        0.0000 
    141 DU        146.8900  162.6800  135.6700 H         7 CUB7        0.0000 
    142 DU        141.8000  170.3900  147.2900 H         7 CUB7        0.0000 
    143 DU        142.1000  170.7100  145.8600 H         7 CUB7        0.0000 
    144 DU        148.4000  161.2900  137.2500 H         7 CUB7        0.0000 
    145 DU        148.7100  161.6100  135.8200 H         7 CUB7        0.0000 
    146 DU        144.2400  169.9600  144.5800 H         7 CUB7        0.0000 
    147 DU        143.2000  170.7400  147.6700 H         7 CUB7        0.0000 
    148 DU        149.1900  161.0000  140.5000 H         7 CUB7        0.0000 
    149 DU        148.7700  162.4200  140.7300 H         7 CUB7        0.0000 
    150 DU        148.3600  163.8400  140.9600 H         7 CUB7        0.0000 
    151 DU        147.9400  165.2700  141.1900 H         7 CUB7        0.0000 
    152 DU        147.2100  166.3700  142.8500 H         7 CUB7        0.0000 
    153 DU        146.7900  167.7900  143.0700 H         7 CUB7        0.0000 
    154 DU        148.6200  166.7200  143.2300 H         7 CUB7        0.0000 
    155 DU        148.9300  167.0400  141.8000 H         7 CUB7        0.0000 
    156 DU        149.2300  167.3600  140.3600 H         7 CUB7        0.0000 
    157 DU        148.2000  168.1400  143.4600 H         7 CUB7        0.0000 
    158 DU        148.5100  168.4600  142.0200 H         7 CUB7        0.0000 
    159 DU        148.8200  168.7800  140.5900 H         7 CUB7        0.0000 
    160 DU        150.0200  167.0700  143.6100 H         7 CUB7        0.0000 
    161 DU        149.6100  168.4900  143.8400 H         7 CUB7        0.0000 
@<TRIPOS>BOND
@<TRIPOS>SUBSTRUCTURE
     1 SER1        1 GROUP   
     2 ALA2       17 GROUP   
     3 ASP3       51 GROUP   
     4 LYS4       79 GROUP   
     5 PHE5       93 GROUP   
     6 GLY6      114 GROUP   
     7 CUB7      138 GROUP   
@<TRIPOS>SET

