#    Name: 6chs_11_AGS
#    Modification time : Fri May 22 19:33:12 2020

@<TRIPOS>MOLECULE
6chs_11_AGS
   31    33     1     0     0
SMALL
NO_CHARGES


@<TRIPOS>ATOM
      1 PG        165.2440  189.2790  145.4160 P.3       1 AGS901      0.0000 
      2 S1G       165.1720  188.7400  147.2820 S.2       1 AGS901      0.0000 
      3 O2G       164.4700  188.2670  144.5280 O.3       1 AGS901      0.0000 
      4 O3G       166.7150  189.3740  144.9280 O.3       1 AGS901      0.0000 
      5 PB        165.6030  191.9000  145.1950 P.3       1 AGS901      0.0000 
      6 O1B       164.6920  193.1050  144.9900 O.co2     1 AGS901      0.0000 
      7 O2B       166.4680  192.0020  146.3830 O.co2     1 AGS901      0.0000 
      8 O3B       164.6210  190.6870  145.2940 O.3       1 AGS901      0.0000 
      9 PA        166.2290  193.0220  142.9130 P.3       1 AGS901      0.0000 
     10 O1A       164.7290  193.2260  142.7900 O.co2     1 AGS901      0.0000 
     11 O2A       166.8990  194.2440  143.3160 O.co2     1 AGS901      0.0000 
     12 O3A       166.4580  191.8260  143.8950 O.3       1 AGS901      0.0000 
     13 O5'       166.7210  192.5670  141.5160 O.3       1 AGS901      0.0000 
     14 C5'       165.6920  192.2370  140.5680 C.3       1 AGS901      0.0000 
     15 C4'       165.9100  193.0530  139.3230 C.3       1 AGS901      0.0000 
     16 O4'       164.6430  193.3530  138.6990 O.3       1 AGS901      0.0000 
     17 C3'       166.5750  194.4010  139.5510 C.3       1 AGS901      0.0000 
     18 O3'       167.9850  194.2330  139.5090 O.3       1 AGS901      0.0000 
     19 C2'       166.0690  195.2170  138.3670 C.3       1 AGS901      0.0000 
     20 O2'       166.8390  194.9830  137.1950 O.3       1 AGS901      0.0000 
     21 C1'       164.6460  194.6790  138.2020 C.3       1 AGS901      0.0000 
     22 N9        163.6540  195.4310  138.9510 N.pl3     1 AGS901      0.0000 
     23 C8        162.8560  194.9480  139.9530 C.2       1 AGS901      0.0000 
     24 N7        162.0550  195.8420  140.4760 N.2       1 AGS901      0.0000 
     25 C5        162.3570  197.0010  139.7790 C.ar      1 AGS901      0.0000 
     26 C6        161.8540  198.3120  139.8570 C.ar      1 AGS901      0.0000 
     27 N6        160.9060  198.6910  140.7140 N.pl3     1 AGS901      0.0000 
     28 N1        162.3620  199.2320  139.0090 N.ar      1 AGS901      0.0000 
     29 C2        163.3160  198.8600  138.1530 C.ar      1 AGS901      0.0000 
     30 N3        163.8640  197.6550  137.9850 N.ar      1 AGS901      0.0000 
     31 C4        163.3410  196.7630  138.8360 C.ar      1 AGS901      0.0000 
@<TRIPOS>BOND
     1    1    2 2    
     2    1    3 1    
     3    1    4 1    
     4    1    8 1    
     5    5    6 ar   
     6    5    7 ar   
     7    5    8 1    
     8    5   12 1    
     9    9   10 ar   
    10    9   11 ar   
    11    9   12 1    
    12    9   13 1    
    13   13   14 1    
    14   14   15 1    
    15   15   16 1    
    16   15   17 1    
    17   16   21 1    
    18   17   18 1    
    19   17   19 1    
    20   19   20 1    
    21   19   21 1    
    22   21   22 1    
    23   22   23 1    
    24   22   31 1    
    25   23   24 2    
    26   24   25 1    
    27   25   26 ar   
    28   25   31 ar   
    29   26   27 1    
    30   26   28 ar   
    31   28   29 ar   
    32   29   30 ar   
    33   30   31 ar   
@<TRIPOS>SUBSTRUCTURE
     1 AGS901      1 GROUP   
@<TRIPOS>SET

