#    Name: 6chs_4_AGS
#    Modification time : Fri May 22 19:31:00 2020

@<TRIPOS>MOLECULE
6chs_4_AGS
   31    33     1     0     0
SMALL
NO_CHARGES


@<TRIPOS>ATOM
      1 PG        132.4350  170.1270  195.8640 P.3       1 AGS902      0.0000 
      2 S1G       132.1990  171.9960  196.3490 S.2       1 AGS902      0.0000 
      3 O2G       133.9500  169.7760  195.8880 O.3       1 AGS902      0.0000 
      4 O3G       131.8650  169.9040  194.4330 O.3       1 AGS902      0.0000 
      5 PB        132.3680  168.8550  198.2490 P.3       1 AGS902      0.0000 
      6 O1B       133.4990  167.9240  198.0850 O.co2     1 AGS902      0.0000 
      7 O2B       131.2490  168.2780  199.1110 O.co2     1 AGS902      0.0000 
      8 O3B       131.6880  169.2110  196.8710 O.3       1 AGS902      0.0000 
      9 PA        134.2040  170.1090  199.7170 P.3       1 AGS902      0.0000 
     10 O1A       135.2430  170.7550  198.8920 O.co2     1 AGS902      0.0000 
     11 O2A       134.3990  168.6330  200.0590 O.co2     1 AGS902      0.0000 
     12 O3A       132.8330  170.1630  198.9750 O.3       1 AGS902      0.0000 
     13 O5'       133.9760  170.9860  200.9920 O.3       1 AGS902      0.0000 
     14 C5'       132.7740  171.7750  201.0840 C.3       1 AGS902      0.0000 
     15 C4'       133.0520  173.0610  201.8190 C.3       1 AGS902      0.0000 
     16 O4'       131.9650  173.3510  202.7190 O.3       1 AGS902      0.0000 
     17 C3'       134.2950  173.0670  202.6960 C.3       1 AGS902      0.0000 
     18 O3'       134.7970  174.3850  202.8740 O.3       1 AGS902      0.0000 
     19 C2'       133.7660  172.5140  204.0180 C.3       1 AGS902      0.0000 
     20 O2'       134.4660  173.0320  205.1410 O.3       1 AGS902      0.0000 
     21 C1'       132.3180  173.0130  204.0470 C.3       1 AGS902      0.0000 
     22 N9        131.3930  171.9920  204.5070 N.pl3     1 AGS902      0.0000 
     23 C8        130.4160  171.3880  203.7640 C.2       1 AGS902      0.0000 
     24 N7        129.7370  170.4770  204.4160 N.2       1 AGS902      0.0000 
     25 C5        130.3290  170.4590  205.6670 C.ar      1 AGS902      0.0000 
     26 C6        130.0700  169.7030  206.8250 C.ar      1 AGS902      0.0000 
     27 N6        129.1210  168.7700  206.9010 N.pl3     1 AGS902      0.0000 
     28 N1        130.8360  169.9380  207.9130 N.ar      1 AGS902      0.0000 
     29 C2        131.7910  170.8680  207.8380 C.ar      1 AGS902      0.0000 
     30 N3        132.1220  171.6470  206.8040 N.ar      1 AGS902      0.0000 
     31 C4        131.3520  171.3870  205.7390 C.ar      1 AGS902      0.0000 
@<TRIPOS>BOND
     1    1    2 2    
     2    1    3 1    
     3    1    4 1    
     4    1    8 1    
     5    5    6 ar   
     6    5    7 ar   
     7    5    8 1    
     8    5   12 1    
     9    9   10 ar   
    10    9   11 ar   
    11    9   12 1    
    12    9   13 1    
    13   13   14 1    
    14   14   15 1    
    15   15   16 1    
    16   15   17 1    
    17   16   21 1    
    18   17   18 1    
    19   17   19 1    
    20   19   20 1    
    21   19   21 1    
    22   21   22 1    
    23   22   23 1    
    24   22   31 1    
    25   23   24 2    
    26   24   25 1    
    27   25   26 ar   
    28   25   31 ar   
    29   26   27 1    
    30   26   28 ar   
    31   28   29 ar   
    32   29   30 ar   
    33   30   31 ar   
@<TRIPOS>SUBSTRUCTURE
     1 AGS902      1 GROUP   
@<TRIPOS>SET

