#    Name: 6chs_6_AGS
#    Modification time : Fri May 22 19:31:38 2020

@<TRIPOS>MOLECULE
6chs_6_AGS
   31    33     1     0     0
SMALL
NO_CHARGES


@<TRIPOS>ATOM
      1 PG        134.4340  141.3540  186.6590 P.3       1 AGS902      0.0000 
      2 S1G       133.9480  142.1910  188.3460 S.2       1 AGS902      0.0000 
      3 O2G       135.9120  140.8790  186.7170 O.3       1 AGS902      0.0000 
      4 O3G       134.2730  142.3890  185.5120 O.3       1 AGS902      0.0000 
      5 PB        134.0710  138.7150  186.7630 P.3       1 AGS902      0.0000 
      6 O1B       133.0750  137.7120  186.2000 O.co2     1 AGS902      0.0000 
      7 O2B       135.4640  138.5380  186.3040 O.co2     1 AGS902      0.0000 
      8 O3B       133.5180  140.1320  186.3870 O.3       1 AGS902      0.0000 
      9 PA        135.3590  138.4300  189.0550 P.3       1 AGS902      0.0000 
     10 O1A       136.2400  137.5260  188.1970 O.co2     1 AGS902      0.0000 
     11 O2A       135.9100  139.7730  189.2790 O.co2     1 AGS902      0.0000 
     12 O3A       133.9930  138.5140  188.3030 O.3       1 AGS902      0.0000 
     13 O5'       135.0140  137.7710  190.4420 O.3       1 AGS902      0.0000 
     14 C5'       134.7680  138.6300  191.5550 C.3       1 AGS902      0.0000 
     15 C4'       134.4240  137.8020  192.7640 C.3       1 AGS902      0.0000 
     16 O4'       133.3490  136.8950  192.4480 O.3       1 AGS902      0.0000 
     17 C3'       135.5650  136.9600  193.3400 C.3       1 AGS902      0.0000 
     18 O3'       135.6680  137.1540  194.7450 O.3       1 AGS902      0.0000 
     19 C2'       135.1450  135.5220  193.0340 C.3       1 AGS902      0.0000 
     20 O2'       135.5790  134.6430  194.0670 O.3       1 AGS902      0.0000 
     21 C1'       133.6240  135.6380  193.0220 C.3       1 AGS902      0.0000 
     22 N9        132.9390  134.6290  192.2270 N.pl3     1 AGS902      0.0000 
     23 C8        132.0830  134.8730  191.1870 C.2       1 AGS902      0.0000 
     24 N7        131.5990  133.7920  190.6270 N.2       1 AGS902      0.0000 
     25 C5        132.1680  132.7610  191.3590 C.ar      1 AGS902      0.0000 
     26 C6        132.0540  131.3600  191.2700 C.ar      1 AGS902      0.0000 
     27 N6        131.2960  130.7340  190.3690 N.pl3     1 AGS902      0.0000 
     28 N1        132.7590  130.6130  192.1500 N.ar      1 AGS902      0.0000 
     29 C2        133.5210  131.2350  193.0540 C.ar      1 AGS902      0.0000 
     30 N3        133.7010  132.5450  193.2350 N.ar      1 AGS902      0.0000 
     31 C4        132.9970  133.2600  192.3480 C.ar      1 AGS902      0.0000 
@<TRIPOS>BOND
     1    1    2 2    
     2    1    3 1    
     3    1    4 1    
     4    1    8 1    
     5    5    6 ar   
     6    5    7 ar   
     7    5    8 1    
     8    5   12 1    
     9    9   10 ar   
    10    9   11 ar   
    11    9   12 1    
    12    9   13 1    
    13   13   14 1    
    14   14   15 1    
    15   15   16 1    
    16   15   17 1    
    17   16   21 1    
    18   17   18 1    
    19   17   19 1    
    20   19   20 1    
    21   19   21 1    
    22   21   22 1    
    23   22   23 1    
    24   22   31 1    
    25   23   24 2    
    26   24   25 1    
    27   25   26 ar   
    28   25   31 ar   
    29   26   27 1    
    30   26   28 ar   
    31   28   29 ar   
    32   29   30 ar   
    33   30   31 ar   
@<TRIPOS>SUBSTRUCTURE
     1 AGS902      1 GROUP   
@<TRIPOS>SET

