#    Name: 6chs_5_AGS_CAVITY_N1_6
#    Modification time : Fri May 22 19:31:21 2020

@<TRIPOS>MOLECULE
6chs_5_AGS_CAVITY_N1_6
   83     0     7     0     0
SMALL
NO_CHARGES


@<TRIPOS>ATOM
      1 OG        175.4400  143.8300  185.6100 O.3       1 SER1        0.0000 
      2 O         169.4800  144.5100  181.1100 O.2       2 ALA2        0.0000 
      3 O         170.3900  144.5700  179.9200 O.2       2 ALA2        0.0000 
      4 O         168.6600  145.1700  184.2900 O.2       2 ALA2        0.0000 
      5 O         169.5700  145.2300  183.1000 O.2       2 ALA2        0.0000 
      6 O         169.8200  146.5700  181.4700 O.2       2 ALA2        0.0000 
      7 O         170.3100  144.6800  185.5300 O.2       2 ALA2        0.0000 
      8 O         170.8200  147.3600  182.2700 O.2       2 ALA2        0.0000 
      9 N         171.0600  144.1300  187.9500 N.am      2 ALA2        0.0000 
     10 N         171.9700  144.1900  186.7600 N.am      2 ALA2        0.0000 
     11 N         170.4000  145.4000  187.5200 N.am      2 ALA2        0.0000 
     12 N         171.3100  145.4700  186.3300 N.am      2 ALA2        0.0000 
     13 N         173.6200  143.7000  188.0000 N.am      2 ALA2        0.0000 
     14 N         172.9600  144.9800  187.5600 N.am      2 ALA2        0.0000 
     15 N         174.6200  144.4900  188.8000 N.am      2 ALA2        0.0000 
     16 OD1       170.2300  143.9600  183.5300 O.co2     3 ASP3        0.0000 
     17 OD1       170.4800  145.2900  181.9100 O.co2     3 ASP3        0.0000 
     18 OD1       171.6300  142.1300  186.4000 O.co2     3 ASP3        0.0000 
     19 OD1       170.9700  143.4000  185.9600 O.co2     3 ASP3        0.0000 
     20 OD1       171.2200  144.7400  184.3300 O.co2     3 ASP3        0.0000 
     21 OD1       173.0400  144.8700  181.9500 O.co2     3 ASP3        0.0000 
     22 OD1       170.5700  146.0200  183.9000 O.co2     3 ASP3        0.0000 
     23 OD1       171.4700  146.0800  182.7100 O.co2     3 ASP3        0.0000 
     24 OD1       172.6300  142.9200  187.2000 O.co2     3 ASP3        0.0000 
     25 OD1       173.5400  142.9800  186.0100 O.co2     3 ASP3        0.0000 
     26 OD1       172.8800  144.2500  185.5700 O.co2     3 ASP3        0.0000 
     27 OD1       172.2200  145.5300  185.1400 O.co2     3 ASP3        0.0000 
     28 OD1       173.1300  145.5900  183.9400 O.co2     3 ASP3        0.0000 
     29 OD1       170.6500  146.7400  185.8900 O.co2     3 ASP3        0.0000 
     30 OD1       171.5600  146.8000  184.7000 O.co2     3 ASP3        0.0000 
     31 OD1       172.4700  146.8700  183.5100 O.co2     3 ASP3        0.0000 
     32 OD1       170.9000  148.0800  184.2600 O.co2     3 ASP3        0.0000 
     33 OD1       171.8100  148.1400  183.0700 O.co2     3 ASP3        0.0000 
     34 OD1       173.8700  145.0400  186.3700 O.co2     3 ASP3        0.0000 
     35 OD1       174.7800  145.1000  185.1800 O.co2     3 ASP3        0.0000 
     36 OD1       175.9400  146.5000  182.3600 O.co2     3 ASP3        0.0000 
     37 OD1       174.8700  145.8300  187.1700 O.co2     3 ASP3        0.0000 
     38 OD1       175.7800  145.8900  185.9800 O.co2     3 ASP3        0.0000 
     39 OD1       177.9200  143.5100  191.2700 O.co2     3 ASP3        0.0000 
     40 NZ        172.3800  146.1400  181.5200 N.4       4 LYS4        0.0000 
     41 NZ        174.0400  145.6500  182.7500 N.4       4 LYS4        0.0000 
     42 NZ        174.9500  145.7200  181.5600 N.4       4 LYS4        0.0000 
     43 NZ        173.3800  146.9300  182.3200 N.4       4 LYS4        0.0000 
     44 NZ        176.3500  143.8900  184.4200 N.4       4 LYS4        0.0000 
     45 NZ        175.6900  145.1700  183.9900 N.4       4 LYS4        0.0000 
     46 NZ        176.6000  145.2300  182.8000 N.4       4 LYS4        0.0000 
     47 NZ        177.3400  144.6800  185.2200 N.4       4 LYS4        0.0000 
     48 NZ        176.6900  145.9500  184.7900 N.4       4 LYS4        0.0000 
     49 NZ        176.5200  145.3400  188.4100 N.4       4 LYS4        0.0000 
     50 CZ        171.7200  142.8500  188.3900 C.ar      5 PHE5        0.0000 
     51 CZ        173.3700  142.3700  189.6200 C.ar      5 PHE5        0.0000 
     52 CZ        172.7100  143.6400  189.1900 C.ar      5 PHE5        0.0000 
     53 CZ        174.3700  143.1500  190.4300 C.ar      5 PHE5        0.0000 
     54 CA        169.2300  143.1700  182.7300 C.3       6 GLY6        0.0000 
     55 CA        170.1400  143.2300  181.5400 C.3       6 GLY6        0.0000 
     56 CA        171.3900  145.3600  180.7200 C.3       6 GLY6        0.0000 
     57 CA        170.7300  146.6300  180.2800 C.3       6 GLY6        0.0000 
     58 CA        172.2900  140.8500  186.8300 C.3       6 GLY6        0.0000 
     59 CA        170.7200  142.0700  187.5900 C.3       6 GLY6        0.0000 
     60 CA        170.0600  143.3400  187.1500 C.3       6 GLY6        0.0000 
     61 CA        169.4100  144.6200  186.7200 C.3       6 GLY6        0.0000 
     62 CA        169.6600  145.9600  185.0900 C.3       6 GLY6        0.0000 
     63 CA        169.9100  147.2900  183.4600 C.3       6 GLY6        0.0000 
     64 CA        174.8500  140.4300  186.8800 C.3       6 GLY6        0.0000 
     65 CA        174.1900  141.7000  186.4400 C.3       6 GLY6        0.0000 
     66 CA        175.8500  141.2200  187.6800 C.3       6 GLY6        0.0000 
     67 CA        175.1900  142.4900  187.2400 C.3       6 GLY6        0.0000 
     68 CA        176.1000  142.5500  186.0500 C.3       6 GLY6        0.0000 
     69 CA        175.6100  145.2800  189.6000 C.3       6 GLY6        0.0000 
     70 DU        173.9400  140.3700  188.0700 H         7 CUB7        0.0000 
     71 DU        172.3800  141.5800  188.8200 H         7 CUB7        0.0000 
     72 DU        173.2900  141.6400  187.6300 H         7 CUB7        0.0000 
     73 DU        174.0300  141.0900  190.0600 H         7 CUB7        0.0000 
     74 DU        174.9400  141.1500  188.8700 H         7 CUB7        0.0000 
     75 DU        174.2800  142.4300  188.4300 H         7 CUB7        0.0000 
     76 DU        174.5300  143.7700  186.8100 H         7 CUB7        0.0000 
     77 DU        175.2800  143.2100  189.2300 H         7 CUB7        0.0000 
     78 DU        176.1800  143.2800  188.0400 H         7 CUB7        0.0000 
     79 DU        177.0900  143.3400  186.8500 H         7 CUB7        0.0000 
     80 DU        175.5300  144.5500  187.6100 H         7 CUB7        0.0000 
     81 DU        176.4400  144.6200  186.4200 H         7 CUB7        0.0000 
     82 DU        176.2700  144.0000  190.0300 H         7 CUB7        0.0000 
     83 DU        177.1800  144.0600  188.8400 H         7 CUB7        0.0000 
@<TRIPOS>BOND
@<TRIPOS>SUBSTRUCTURE
     1 SER1        1 GROUP   
     2 ALA2        2 GROUP   
     3 ASP3       16 GROUP   
     4 LYS4       40 GROUP   
     5 PHE5       50 GROUP   
     6 GLY6       54 GROUP   
     7 CUB7       70 GROUP   
@<TRIPOS>SET

