#    Name: 6chs_3_AGS
#    Modification time : Fri May 22 19:30:39 2020

@<TRIPOS>MOLECULE
6chs_3_AGS
   31    33     1     0     0
SMALL
NO_CHARGES


@<TRIPOS>ATOM
      1 PG        168.6020  172.0930  193.7370 P.3       1 AGS901      0.0000 
      2 S1G       168.4720  170.5400  192.5720 S.2       1 AGS901      0.0000 
      3 O2G       167.7610  173.2710  193.1640 O.3       1 AGS901      0.0000 
      4 O3G       170.0920  172.5050  193.8710 O.3       1 AGS901      0.0000 
      5 PB        169.2540  171.2940  196.1610 P.3       1 AGS901      0.0000 
      6 O1B       170.1270  170.2620  195.5720 O.co2     1 AGS901      0.0000 
      7 O2B       168.5190  170.8250  197.4150 O.co2     1 AGS901      0.0000 
      8 O3B       168.1300  171.7240  195.1610 O.3       1 AGS901      0.0000 
      9 PA        170.1080  172.7510  198.1650 P.3       1 AGS901      0.0000 
     10 O1A       168.6780  172.6690  198.6630 O.co2     1 AGS901      0.0000 
     11 O2A       170.9400  171.8080  198.8950 O.co2     1 AGS901      0.0000 
     12 O3A       170.0880  172.5250  196.6180 O.3       1 AGS901      0.0000 
     13 O5'       170.5870  174.2100  198.3870 O.3       1 AGS901      0.0000 
     14 C5'       169.5650  175.1720  198.6710 C.3       1 AGS901      0.0000 
     15 C4'       169.9230  175.8600  199.9610 C.3       1 AGS901      0.0000 
     16 O4'       168.7280  176.1920  200.7040 O.3       1 AGS901      0.0000 
     17 C3'       170.7590  175.0310  200.9240 C.3       1 AGS901      0.0000 
     18 O3'       172.1380  175.1130  200.5860 O.3       1 AGS901      0.0000 
     19 C2'       170.4420  175.6920  202.2600 C.3       1 AGS901      0.0000 
     20 O2'       171.1920  176.8860  202.4380 O.3       1 AGS901      0.0000 
     21 C1'       168.9540  176.0060  202.0910 C.3       1 AGS901      0.0000 
     22 N9        168.0830  174.9320  202.5410 N.pl3     1 AGS901      0.0000 
     23 C8        167.2090  174.2160  201.7690 C.2       1 AGS901      0.0000 
     24 N7        166.5510  173.2920  202.4240 N.2       1 AGS901      0.0000 
     25 C5        167.0330  173.4030  203.7180 C.ar      1 AGS901      0.0000 
     26 C6        166.7360  172.7040  204.9020 C.ar      1 AGS901      0.0000 
     27 N6        165.8460  171.7120  204.9740 N.pl3     1 AGS901      0.0000 
     28 N1        167.3950  173.0640  206.0260 N.ar      1 AGS901      0.0000 
     29 C2        168.2860  174.0550  205.9600 C.ar      1 AGS901      0.0000 
     30 N3        168.6440  174.7870  204.9030 N.ar      1 AGS901      0.0000 
     31 C4        167.9790  174.4070  203.8050 C.ar      1 AGS901      0.0000 
@<TRIPOS>BOND
     1    1    2 2    
     2    1    3 1    
     3    1    4 1    
     4    1    8 1    
     5    5    6 ar   
     6    5    7 ar   
     7    5    8 1    
     8    5   12 1    
     9    9   10 ar   
    10    9   11 ar   
    11    9   12 1    
    12    9   13 1    
    13   13   14 1    
    14   14   15 1    
    15   15   16 1    
    16   15   17 1    
    17   16   21 1    
    18   17   18 1    
    19   17   19 1    
    20   19   20 1    
    21   19   21 1    
    22   21   22 1    
    23   22   23 1    
    24   22   31 1    
    25   23   24 2    
    26   24   25 1    
    27   25   26 ar   
    28   25   31 ar   
    29   26   27 1    
    30   26   28 ar   
    31   28   29 ar   
    32   29   30 ar   
    33   30   31 ar   
@<TRIPOS>SUBSTRUCTURE
     1 AGS901      1 GROUP   
@<TRIPOS>SET

