#    Name: 6chs_12_AGS
#    Modification time : Fri May 22 19:33:29 2020

@<TRIPOS>MOLECULE
6chs_12_AGS
   31    33     1     0     0
SMALL
NO_CHARGES


@<TRIPOS>ATOM
      1 PG        129.2730  187.2810  146.6370 P.3       1 AGS902      0.0000 
      2 S1G       128.8160  186.7480  144.8250 S.2       1 AGS902      0.0000 
      3 O2G       130.7260  187.8260  146.6230 O.3       1 AGS902      0.0000 
      4 O3G       129.1950  186.0380  147.5690 O.3       1 AGS902      0.0000 
      5 PB        128.6740  189.8820  146.9110 P.3       1 AGS902      0.0000 
      6 O1B       127.4260  190.7240  147.1520 O.co2     1 AGS902      0.0000 
      7 O2B       129.8490  190.3380  147.6770 O.co2     1 AGS902      0.0000 
      8 O3B       128.3090  188.3760  147.1760 O.3       1 AGS902      0.0000 
      9 PA        130.3350  190.6480  145.0600 P.3       1 AGS902      0.0000 
     10 O1A       131.3810  189.6160  145.1000 O.co2     1 AGS902      0.0000 
     11 O2A       130.4170  191.8140  146.0390 O.co2     1 AGS902      0.0000 
     12 O3A       128.9680  189.9970  145.4030 O.3       1 AGS902      0.0000 
     13 O5'       130.1110  191.0780  143.5800 O.3       1 AGS902      0.0000 
     14 C5'       129.1020  190.3360  142.8770 C.3       1 AGS902      0.0000 
     15 C4'       129.0520  190.7560  141.4370 C.3       1 AGS902      0.0000 
     16 O4'       127.7730  191.3610  141.1570 O.3       1 AGS902      0.0000 
     17 C3'       130.1150  191.7680  141.0190 C.3       1 AGS902      0.0000 
     18 O3'       130.6010  191.4910  139.7120 O.3       1 AGS902      0.0000 
     19 C2'       129.3640  193.0950  141.0550 C.3       1 AGS902      0.0000 
     20 O2'       129.8660  193.9990  140.0810 O.3       1 AGS902      0.0000 
     21 C1'       127.9430  192.6790  140.6790 C.3       1 AGS902      0.0000 
     22 N9        126.9450  193.5080  141.3250 N.pl3     1 AGS902      0.0000 
     23 C8        126.0370  193.0980  142.2610 C.2       1 AGS902      0.0000 
     24 N7        125.2720  194.0570  142.7190 N.2       1 AGS902      0.0000 
     25 C5        125.7210  195.1820  142.0480 C.ar      1 AGS902      0.0000 
     26 C6        125.3180  196.5290  142.0860 C.ar      1 AGS902      0.0000 
     27 N6        124.3480  196.9860  142.8770 N.pl3     1 AGS902      0.0000 
     28 N1        125.9620  197.4010  141.2800 N.ar      1 AGS902      0.0000 
     29 C2        126.9440  196.9480  140.4980 C.ar      1 AGS902      0.0000 
     30 N3        127.4070  195.7010  140.3740 N.ar      1 AGS902      0.0000 
     31 C4        126.7540  194.8610  141.1880 C.ar      1 AGS902      0.0000 
@<TRIPOS>BOND
     1    1    2 2    
     2    1    3 1    
     3    1    4 1    
     4    1    8 1    
     5    5    6 ar   
     6    5    7 ar   
     7    5    8 1    
     8    5   12 1    
     9    9   10 ar   
    10    9   11 ar   
    11    9   12 1    
    12    9   13 1    
    13   13   14 1    
    14   14   15 1    
    15   15   16 1    
    16   15   17 1    
    17   16   21 1    
    18   17   18 1    
    19   17   19 1    
    20   19   20 1    
    21   19   21 1    
    22   21   22 1    
    23   22   23 1    
    24   22   31 1    
    25   23   24 2    
    26   24   25 1    
    27   25   26 ar   
    28   25   31 ar   
    29   26   27 1    
    30   26   28 ar   
    31   28   29 ar   
    32   29   30 ar   
    33   30   31 ar   
@<TRIPOS>SUBSTRUCTURE
     1 AGS902      1 GROUP   
@<TRIPOS>SET

