#    Name: 6chs_9_AGS
#    Modification time : Fri May 22 19:32:33 2020

@<TRIPOS>MOLECULE
6chs_9_AGS
   31    33     1     0     0
SMALL
NO_CHARGES


@<TRIPOS>ATOM
      1 PG        166.5850  161.0230  135.7400 P.3       1 AGS901      0.0000 
      2 S1G       166.6090  162.3900  137.1250 S.2       1 AGS901      0.0000 
      3 O2G       165.9960  159.7020  136.3040 O.3       1 AGS901      0.0000 
      4 O3G       168.0270  160.7740  135.2170 O.3       1 AGS901      0.0000 
      5 PB        166.5040  162.1910  133.3590 P.3       1 AGS901      0.0000 
      6 O1B       165.4620  162.5600  132.3010 O.co2     1 AGS901      0.0000 
      7 O2B       167.3340  163.3270  133.8020 O.co2     1 AGS901      0.0000 
      8 O3B       165.7290  161.5290  134.5520 O.3       1 AGS901      0.0000 
      9 PA        167.2820  161.0380  131.1320 P.3       1 AGS901      0.0000 
     10 O1A       167.8540  162.1660  130.4220 O.co2     1 AGS901      0.0000 
     11 O2A       165.8120  160.9610  130.7770 O.co2     1 AGS901      0.0000 
     12 O3A       167.4080  161.1260  132.6860 O.3       1 AGS901      0.0000 
     13 O5'       167.9400  159.6850  130.7430 O.3       1 AGS901      0.0000 
     14 C5'       167.0580  158.5630  130.5560 C.3       1 AGS901      0.0000 
     15 C4'       167.4290  157.9200  129.2510 C.3       1 AGS901      0.0000 
     16 O4'       166.2580  157.3490  128.6270 O.3       1 AGS901      0.0000 
     17 C3'       168.0030  158.8850  128.2250 C.3       1 AGS901      0.0000 
     18 O3'       169.4060  159.0150  128.4180 O.3       1 AGS901      0.0000 
     19 C2'       167.6300  158.2110  126.9090 C.3       1 AGS901      0.0000 
     20 O2'       168.5110  157.1470  126.5810 O.3       1 AGS901      0.0000 
     21 C1'       166.2470  157.6560  127.2450 C.3       1 AGS901      0.0000 
     22 N9        165.1730  158.6070  127.0140 N.pl3     1 AGS901      0.0000 
     23 C8        164.3310  159.1250  127.9600 C.2       1 AGS901      0.0000 
     24 N7        163.4470  159.9650  127.4830 N.2       1 AGS901      0.0000 
     25 C5        163.7430  160.0220  126.1320 C.ar      1 AGS901      0.0000 
     26 C6        163.1700  160.7400  125.0670 C.ar      1 AGS901      0.0000 
     27 N6        162.1440  161.5800  125.2080 N.pl3     1 AGS901      0.0000 
     28 N1        163.6940  160.5630  123.8350 N.ar      1 AGS901      0.0000 
     29 C2        164.7200  159.7220  123.6890 C.ar      1 AGS901      0.0000 
     30 N3        165.3390  158.9880  124.6170 N.ar      1 AGS901      0.0000 
     31 C4        164.8020  159.1880  125.8260 C.ar      1 AGS901      0.0000 
@<TRIPOS>BOND
     1    1    2 2    
     2    1    3 1    
     3    1    4 1    
     4    1    8 1    
     5    5    6 ar   
     6    5    7 ar   
     7    5    8 1    
     8    5   12 1    
     9    9   10 ar   
    10    9   11 ar   
    11    9   12 1    
    12    9   13 1    
    13   13   14 1    
    14   14   15 1    
    15   15   16 1    
    16   15   17 1    
    17   16   21 1    
    18   17   18 1    
    19   17   19 1    
    20   19   20 1    
    21   19   21 1    
    22   21   22 1    
    23   22   23 1    
    24   22   31 1    
    25   23   24 2    
    26   24   25 1    
    27   25   26 ar   
    28   25   31 ar   
    29   26   27 1    
    30   26   28 ar   
    31   28   29 ar   
    32   29   30 ar   
    33   30   31 ar   
@<TRIPOS>SUBSTRUCTURE
     1 AGS901      1 GROUP   
@<TRIPOS>SET

