#    Name: 6chs_7_AGS
#    Modification time : Fri May 22 19:31:57 2020

@<TRIPOS>MOLECULE
6chs_7_AGS
   31    33     1     0     0
SMALL
NO_CHARGES


@<TRIPOS>ATOM
      1 PG        169.1180  138.8080  155.2800 P.3       1 AGS901      0.0000 
      2 S1G       168.9550  140.7200  154.9490 S.2       1 AGS901      0.0000 
      3 O2G       168.5280  138.4860  156.6830 O.3       1 AGS901      0.0000 
      4 O3G       170.6170  138.3980  155.2610 O.3       1 AGS901      0.0000 
      5 PB        169.1920  137.3930  152.9680 P.3       1 AGS901      0.0000 
      6 O1B       168.2000  136.6220  152.1000 O.co2     1 AGS901      0.0000 
      7 O2B       169.8970  138.4520  152.2290 O.co2     1 AGS901      0.0000 
      8 O3B       168.3710  138.0010  154.1780 O.3       1 AGS901      0.0000 
      9 PA        170.1610  134.8670  152.8990 P.3       1 AGS901      0.0000 
     10 O1A       170.8810  134.6710  151.6410 O.co2     1 AGS901      0.0000 
     11 O2A       168.7030  134.4900  152.6900 O.co2     1 AGS901      0.0000 
     12 O3A       170.2170  136.3280  153.4830 O.3       1 AGS901      0.0000 
     13 O5'       170.8450  133.9970  154.0140 O.3       1 AGS901      0.0000 
     14 C5'       170.0720  133.1360  154.8540 C.3       1 AGS901      0.0000 
     15 C4'       170.6340  131.7460  154.7210 C.3       1 AGS901      0.0000 
     16 O4'       169.5760  130.7750  154.8860 O.3       1 AGS901      0.0000 
     17 C3'       171.2550  131.4390  153.3650 C.3       1 AGS901      0.0000 
     18 O3'       172.6280  131.8070  153.3530 O.3       1 AGS901      0.0000 
     19 C2'       171.0390  129.9350  153.2420 C.3       1 AGS901      0.0000 
     20 O2'       171.9920  129.2000  153.9970 O.3       1 AGS901      0.0000 
     21 C1'       169.6550  129.7920  153.8700 C.3       1 AGS901      0.0000 
     22 N9        168.5730  130.0310  152.9290 N.pl3     1 AGS901      0.0000 
     23 C8        167.6850  131.0730  152.9500 C.2       1 AGS901      0.0000 
     24 N7        166.8080  131.0460  151.9790 N.2       1 AGS901      0.0000 
     25 C5        167.1590  129.9200  151.2510 C.ar      1 AGS901      0.0000 
     26 C6        166.6210  129.3380  150.0890 C.ar      1 AGS901      0.0000 
     27 N6        165.5790  129.8380  149.4240 N.pl3     1 AGS901      0.0000 
     28 N1        167.1990  128.2090  149.6270 N.ar      1 AGS901      0.0000 
     29 C2        168.2400  127.7020  150.2910 C.ar      1 AGS901      0.0000 
     30 N3        168.8340  128.1630  151.3950 N.ar      1 AGS901      0.0000 
     31 C4        168.2430  129.2830  151.8270 C.ar      1 AGS901      0.0000 
@<TRIPOS>BOND
     1    1    2 2    
     2    1    3 1    
     3    1    4 1    
     4    1    8 1    
     5    5    6 ar   
     6    5    7 ar   
     7    5    8 1    
     8    5   12 1    
     9    9   10 ar   
    10    9   11 ar   
    11    9   12 1    
    12    9   13 1    
    13   13   14 1    
    14   14   15 1    
    15   15   16 1    
    16   15   17 1    
    17   16   21 1    
    18   17   18 1    
    19   17   19 1    
    20   19   20 1    
    21   19   21 1    
    22   21   22 1    
    23   22   23 1    
    24   22   31 1    
    25   23   24 2    
    26   24   25 1    
    27   25   26 ar   
    28   25   31 ar   
    29   26   27 1    
    30   26   28 ar   
    31   28   29 ar   
    32   29   30 ar   
    33   30   31 ar   
@<TRIPOS>SUBSTRUCTURE
     1 AGS901      1 GROUP   
@<TRIPOS>SET

