#    Name: 6chs_10_AGS
#    Modification time : Fri May 22 19:32:52 2020

@<TRIPOS>MOLECULE
6chs_10_AGS
   31    33     1     0     0
SMALL
NO_CHARGES


@<TRIPOS>ATOM
      1 PG        130.4290  158.6280  137.2620 P.3       1 AGS902      0.0000 
      2 S1G       130.0470  156.7920  136.7380 S.2       1 AGS902      0.0000 
      3 O2G       131.8540  159.0200  136.7780 O.3       1 AGS902      0.0000 
      4 O3G       130.3500  158.7290  138.8150 O.3       1 AGS902      0.0000 
      5 PB        129.6710  160.1200  135.1340 P.3       1 AGS902      0.0000 
      6 O1B       128.3340  160.5730  134.5470 O.co2     1 AGS902      0.0000 
      7 O2B       130.7420  161.1320  135.1180 O.co2     1 AGS902      0.0000 
      8 O3B       129.3990  159.5940  136.6010 O.3       1 AGS902      0.0000 
      9 PA        131.4200  159.1770  133.4520 P.3       1 AGS902      0.0000 
     10 O1A       131.3330  160.6340  133.0080 O.co2     1 AGS902      0.0000 
     11 O2A       132.5840  158.8060  134.2630 O.co2     1 AGS902      0.0000 
     12 O3A       130.1140  158.9260  134.2540 O.3       1 AGS902      0.0000 
     13 O5'       131.2770  158.1670  132.2750 O.3       1 AGS902      0.0000 
     14 C5'       130.3990  157.0400  132.4830 C.3       1 AGS902      0.0000 
     15 C4'       130.7450  155.9070  131.5500 C.3       1 AGS902      0.0000 
     16 O4'       129.5750  155.5340  130.7950 O.3       1 AGS902      0.0000 
     17 C3'       131.8200  156.2010  130.5100 C.3       1 AGS902      0.0000 
     18 O3'       132.5040  155.0180  130.1190 O.3       1 AGS902      0.0000 
     19 C2'       131.0100  156.7520  129.3420 C.3       1 AGS902      0.0000 
     20 O2'       131.6190  156.4830  128.0860 O.3       1 AGS902      0.0000 
     21 C1'       129.6910  155.9820  129.4570 C.3       1 AGS902      0.0000 
     22 N9        128.5520  156.8270  129.1720 N.pl3     1 AGS902      0.0000 
     23 C8        127.6170  157.2710  130.0660 C.2       1 AGS902      0.0000 
     24 N7        126.7030  158.0470  129.5390 N.2       1 AGS902      0.0000 
     25 C5        127.0910  158.1580  128.2150 C.ar      1 AGS902      0.0000 
     26 C6        126.5430  158.8560  127.1230 C.ar      1 AGS902      0.0000 
     27 N6        125.4520  159.6180  127.2060 N.pl3     1 AGS902      0.0000 
     28 N1        127.1690  158.7480  125.9290 N.ar      1 AGS902      0.0000 
     29 C2        128.2650  157.9890  125.8450 C.ar      1 AGS902      0.0000 
     30 N3        128.8700  157.2830  126.8040 N.ar      1 AGS902      0.0000 
     31 C4        128.2310  157.4150  127.9750 C.ar      1 AGS902      0.0000 
@<TRIPOS>BOND
     1    1    2 2    
     2    1    3 1    
     3    1    4 1    
     4    1    8 1    
     5    5    6 ar   
     6    5    7 ar   
     7    5    8 1    
     8    5   12 1    
     9    9   10 ar   
    10    9   11 ar   
    11    9   12 1    
    12    9   13 1    
    13   13   14 1    
    14   14   15 1    
    15   15   16 1    
    16   15   17 1    
    17   16   21 1    
    18   17   18 1    
    19   17   19 1    
    20   19   20 1    
    21   19   21 1    
    22   21   22 1    
    23   22   23 1    
    24   22   31 1    
    25   23   24 2    
    26   24   25 1    
    27   25   26 ar   
    28   25   31 ar   
    29   26   27 1    
    30   26   28 ar   
    31   28   29 ar   
    32   29   30 ar   
    33   30   31 ar   
@<TRIPOS>SUBSTRUCTURE
     1 AGS902      1 GROUP   
@<TRIPOS>SET

