#    Name: 6chs_11_AGS_CAVITY_N1_4
#    Modification time : Fri May 22 19:33:13 2020

@<TRIPOS>MOLECULE
6chs_11_AGS_CAVITY_N1_4
   81     0     7     0     0
SMALL
NO_CHARGES


@<TRIPOS>ATOM
      1 OG        165.5200  190.4600  140.8500 O.3       1 SER1        0.0000 
      2 OG        165.8500  192.5200  141.2100 O.3       1 SER1        0.0000 
      3 O         163.3600  188.2700  142.8600 O.2       2 ALA2        0.0000 
      4 O         164.2700  188.3400  141.6700 O.2       2 ALA2        0.0000 
      5 N         166.1800  189.1900  141.2800 N.am      2 ALA2        0.0000 
      6 O         166.4200  185.9600  146.9600 O.2       2 ALA2        0.0000 
      7 O         165.7600  187.2300  146.5300 O.2       2 ALA2        0.0000 
      8 O         164.1900  188.4500  147.2800 O.2       2 ALA2        0.0000 
      9 N         167.8300  188.7000  142.5200 N.am      2 ALA2        0.0000 
     10 O         164.4400  189.7800  145.6600 O.2       2 ALA2        0.0000 
     11 O         165.3500  189.8500  144.4600 O.2       2 ALA2        0.0000 
     12 N         167.1700  189.9700  142.0800 N.am      2 ALA2        0.0000 
     13 N         168.0800  190.0400  140.8900 N.am      2 ALA2        0.0000 
     14 N         168.9900  190.1000  139.7000 N.am      2 ALA2        0.0000 
     15 O         165.2000  193.8000  140.7800 O.2       2 ALA2        0.0000 
     16 O         165.8500  187.9600  148.5200 O.2       2 ALA2        0.0000 
     17 O         165.1900  189.2300  148.0800 O.2       2 ALA2        0.0000 
     18 O         165.9400  193.2500  143.2000 O.2       2 ALA2        0.0000 
     19 O         168.7500  194.1600  141.6200 O.2       2 ALA2        0.0000 
     20 O         169.7500  194.9500  142.4200 O.2       2 ALA2        0.0000 
     21 O         170.6600  195.0100  141.2300 O.2       2 ALA2        0.0000 
     22 OD1       167.3300  186.0200  145.7700 O.co2     3 ASP3        0.0000 
     23 OD1       166.6700  187.3000  145.3400 O.co2     3 ASP3        0.0000 
     24 OD1       165.1000  188.5100  146.0900 O.co2     3 ASP3        0.0000 
     25 OD1       166.0100  188.5700  144.9000 O.co2     3 ASP3        0.0000 
     26 OD1       166.9200  188.6300  143.7100 O.co2     3 ASP3        0.0000 
     27 OD1       166.2600  189.9100  143.2700 O.co2     3 ASP3        0.0000 
     28 OD1       166.7600  188.0200  147.3300 O.co2     3 ASP3        0.0000 
     29 OD1       167.6700  188.0800  146.1400 O.co2     3 ASP3        0.0000 
     30 OD1       168.5800  188.1500  144.9400 O.co2     3 ASP3        0.0000 
     31 OD1       169.4800  188.2100  143.7500 O.co2     3 ASP3        0.0000 
     32 OD1       166.1000  189.3000  146.8900 O.co2     3 ASP3        0.0000 
     33 OD1       168.8300  189.4800  143.3200 O.co2     3 ASP3        0.0000 
     34 OD1       165.4400  190.5700  146.4600 O.co2     3 ASP3        0.0000 
     35 OD1       168.1700  190.7600  142.8800 O.co2     3 ASP3        0.0000 
     36 OD1       165.6900  191.9100  144.8300 O.co2     3 ASP3        0.0000 
     37 OD1       166.6000  191.9700  143.6400 O.co2     3 ASP3        0.0000 
     38 OD1       167.5100  192.0300  142.4500 O.co2     3 ASP3        0.0000 
     39 OD1       167.7500  188.8100  148.1300 O.co2     3 ASP3        0.0000 
     40 OD1       170.4800  189.0000  144.5500 O.co2     3 ASP3        0.0000 
     41 NZ        167.4200  186.7500  147.7600 N.4       4 LYS4        0.0000 
     42 NZ        168.3200  186.8100  146.5700 N.4       4 LYS4        0.0000 
     43 NZ        169.3200  187.6000  147.3700 N.4       4 LYS4        0.0000 
     44 NZ        166.1800  190.0200  148.8800 N.4       4 LYS4        0.0000 
     45 CZ        165.7700  191.8000  139.2200 C.ar      5 PHE5        0.0000 
     46 CZ        167.4200  191.3100  140.4500 C.ar      5 PHE5        0.0000 
     47 CZ        168.3300  191.3700  139.2600 C.ar      5 PHE5        0.0000 
     48 CZ        169.2400  191.4400  138.0700 C.ar      5 PHE5        0.0000 
     49 CZ        166.7600  192.5900  140.0200 C.ar      5 PHE5        0.0000 
     50 CZ        167.6700  192.6500  138.8300 C.ar      5 PHE5        0.0000 
     51 CZ        168.5800  192.7100  137.6400 C.ar      5 PHE5        0.0000 
     52 CA        164.0200  187.0000  143.3000 C.3       6 GLY6        0.0000 
     53 CA        165.6800  186.5100  144.5400 C.3       6 GLY6        0.0000 
     54 CA        164.1100  187.7200  145.2900 C.3       6 GLY6        0.0000 
     55 CA        165.0200  187.7800  144.1000 C.3       6 GLY6        0.0000 
     56 CA        165.2700  189.1200  142.4700 C.3       6 GLY6        0.0000 
     57 CA        165.6000  191.1900  142.8400 C.3       6 GLY6        0.0000 
     58 CA        164.9500  192.4600  142.4000 C.3       6 GLY6        0.0000 
     59 CA        166.5100  186.6800  148.9500 C.3       6 GLY6        0.0000 
     60 CA        166.1900  194.5900  141.5800 C.3       6 GLY6        0.0000 
     61 CA        167.1000  194.6500  140.3800 C.3       6 GLY6        0.0000 
     62 CA        166.8400  188.7500  149.3200 C.3       6 GLY6        0.0000 
     63 CA        170.0700  191.6100  142.4900 C.3       6 GLY6        0.0000 
     64 CA        169.4100  192.8800  142.0600 C.3       6 GLY6        0.0000 
     65 CA        167.8400  194.1000  142.8100 C.3       6 GLY6        0.0000 
     66 CA        168.0900  195.4400  141.1800 C.3       6 GLY6        0.0000 
     67 CA        170.0000  196.2900  140.7900 C.3       6 GLY6        0.0000 
     68 CA        170.9100  196.3500  139.6000 C.3       6 GLY6        0.0000 
     69 DU        166.5100  191.2500  141.6500 H         7 CUB7        0.0000 
     70 DU        166.1000  193.8600  139.5800 H         7 CUB7        0.0000 
     71 DU        169.0800  190.8200  141.6900 H         7 CUB7        0.0000 
     72 DU        168.4200  192.1000  141.2600 H         7 CUB7        0.0000 
     73 DU        166.8500  193.3100  142.0100 H         7 CUB7        0.0000 
     74 DU        167.7600  193.3700  140.8200 H         7 CUB7        0.0000 
     75 DU        168.6700  193.4400  139.6300 H         7 CUB7        0.0000 
     76 DU        168.0100  194.7100  139.1900 H         7 CUB7        0.0000 
     77 DU        170.3200  192.9500  140.8600 H         7 CUB7        0.0000 
     78 DU        169.6600  194.2200  140.4300 H         7 CUB7        0.0000 
     79 DU        170.5700  194.2900  139.2400 H         7 CUB7        0.0000 
     80 DU        170.8200  195.6200  137.6100 H         7 CUB7        0.0000 
     81 DU        171.5700  195.0700  140.0400 H         7 CUB7        0.0000 
@<TRIPOS>BOND
@<TRIPOS>SUBSTRUCTURE
     1 SER1        1 GROUP   
     2 ALA2        3 GROUP   
     3 ASP3       22 GROUP   
     4 LYS4       41 GROUP   
     5 PHE5       45 GROUP   
     6 GLY6       52 GROUP   
     7 CUB7       69 GROUP   
@<TRIPOS>SET

