#    Name: 6chs_8_AGS
#    Modification time : Fri May 22 19:32:14 2020

@<TRIPOS>MOLECULE
6chs_8_AGS
   31    33     1     0     0
SMALL
NO_CHARGES


@<TRIPOS>ATOM
      1 PG        132.9930  135.6890  157.2770 P.3       1 AGS902      0.0000 
      2 S1G       132.9740  134.1110  158.4160 S.2       1 AGS902      0.0000 
      3 O2G       134.4090  135.8580  156.6590 O.3       1 AGS902      0.0000 
      4 O3G       132.6470  136.9440  158.1330 O.3       1 AGS902      0.0000 
      5 PB        132.3820  134.7770  154.8290 P.3       1 AGS902      0.0000 
      6 O1B       131.1320  134.6100  153.9670 O.co2     1 AGS902      0.0000 
      7 O2B       133.5250  135.4450  154.1780 O.co2     1 AGS902      0.0000 
      8 O3B       131.9500  135.5380  156.1340 O.3       1 AGS902      0.0000 
      9 PA        134.1930  132.8930  154.7510 P.3       1 AGS902      0.0000 
     10 O1A       134.1890  133.1710  153.2510 O.co2     1 AGS902      0.0000 
     11 O2A       135.2270  133.5410  155.5780 O.co2     1 AGS902      0.0000 
     12 O3A       132.7780  133.3320  155.2250 O.3       1 AGS902      0.0000 
     13 O5'       134.2040  131.3800  155.1150 O.3       1 AGS902      0.0000 
     14 C5'       134.1350  131.0880  156.5170 C.3       1 AGS902      0.0000 
     15 C4'       134.0340  129.6020  156.7510 C.3       1 AGS902      0.0000 
     16 O4'       132.7430  129.1220  156.3180 O.3       1 AGS902      0.0000 
     17 C3'       135.0840  128.7500  156.0400 C.3       1 AGS902      0.0000 
     18 O3'       135.6010  127.7660  156.9260 O.3       1 AGS902      0.0000 
     19 C2'       134.3020  128.1090  154.8910 C.3       1 AGS902      0.0000 
     20 O2'       134.8190  126.8260  154.5610 O.3       1 AGS902      0.0000 
     21 C1'       132.9070  127.9850  155.4980 C.3       1 AGS902      0.0000 
     22 N9        131.8310  128.0010  154.5210 N.pl3     1 AGS902      0.0000 
     23 C8        130.8000  128.8980  154.4960 C.2       1 AGS902      0.0000 
     24 N7        129.9530  128.7120  153.5160 N.2       1 AGS902      0.0000 
     25 C5        130.4700  127.6220  152.8380 C.ar      1 AGS902      0.0000 
     26 C6        130.0340  126.9240  151.6980 C.ar      1 AGS902      0.0000 
     27 N6        128.9450  127.2510  151.0030 N.pl3     1 AGS902      0.0000 
     28 N1        130.7700  125.8700  151.2860 N.ar      1 AGS902      0.0000 
     29 C2        131.8630  125.5400  151.9780 C.ar      1 AGS902      0.0000 
     30 N3        132.3700  126.1230  153.0680 N.ar      1 AGS902      0.0000 
     31 C4        131.6250  127.1690  153.4480 C.ar      1 AGS902      0.0000 
@<TRIPOS>BOND
     1    1    2 2    
     2    1    3 1    
     3    1    4 1    
     4    1    8 1    
     5    5    6 ar   
     6    5    7 ar   
     7    5    8 1    
     8    5   12 1    
     9    9   10 ar   
    10    9   11 ar   
    11    9   12 1    
    12    9   13 1    
    13   13   14 1    
    14   14   15 1    
    15   15   16 1    
    16   15   17 1    
    17   16   21 1    
    18   17   18 1    
    19   17   19 1    
    20   19   20 1    
    21   19   21 1    
    22   21   22 1    
    23   22   23 1    
    24   22   31 1    
    25   23   24 2    
    26   24   25 1    
    27   25   26 ar   
    28   25   31 ar   
    29   26   27 1    
    30   26   28 ar   
    31   28   29 ar   
    32   29   30 ar   
    33   30   31 ar   
@<TRIPOS>SUBSTRUCTURE
     1 AGS902      1 GROUP   
@<TRIPOS>SET

