#    Name: 6chs_2_AGS
#    Modification time : Fri May 22 19:30:17 2020

@<TRIPOS>MOLECULE
6chs_2_AGS
   31    33     1     0     0
SMALL
NO_CHARGES


@<TRIPOS>ATOM
      1 PG        130.3550  192.9170  175.7260 P.3       1 AGS902      0.0000 
      2 S1G       129.6920  194.2820  174.5120 S.2       1 AGS902      0.0000 
      3 O2G       131.8580  193.1770  176.0280 O.3       1 AGS902      0.0000 
      4 O3G       130.1950  191.5200  175.0490 O.3       1 AGS902      0.0000 
      5 PB        130.0380  194.0000  178.1740 P.3       1 AGS902      0.0000 
      6 O1B       131.2220  193.4850  178.8860 O.co2     1 AGS902      0.0000 
      7 O2B       128.8280  194.3140  179.0560 O.co2     1 AGS902      0.0000 
      8 O3B       129.5520  192.9920  177.0570 O.3       1 AGS902      0.0000 
      9 PA        131.6120  196.0750  178.2240 P.3       1 AGS902      0.0000 
     10 O1A       132.8880  195.6320  177.6410 O.co2     1 AGS902      0.0000 
     11 O2A       131.4340  195.7820  179.7090 O.co2     1 AGS902      0.0000 
     12 O3A       130.4250  195.3580  177.5260 O.3       1 AGS902      0.0000 
     13 O5'       131.3840  197.5750  177.8920 O.3       1 AGS902      0.0000 
     14 C5'       130.3720  197.9150  176.9370 C.3       1 AGS902      0.0000 
     15 C4'       130.6640  199.2670  176.3370 C.3       1 AGS902      0.0000 
     16 O4'       129.5100  200.1170  176.4860 O.3       1 AGS902      0.0000 
     17 C3'       131.8170  200.0460  176.9580 C.3       1 AGS902      0.0000 
     18 O3'       132.3970  200.9390  176.0150 O.3       1 AGS902      0.0000 
     19 C2'       131.1280  200.8280  178.0720 C.3       1 AGS902      0.0000 
     20 O2'       131.7700  202.0620  178.3650 O.3       1 AGS902      0.0000 
     21 C1'       129.7450  201.0980  177.4790 C.3       1 AGS902      0.0000 
     22 N9        128.7130  200.9590  178.4780 N.pl3     1 AGS902      0.0000 
     23 C8        127.8060  199.9440  178.5590 C.2       1 AGS902      0.0000 
     24 N7        126.9890  200.0370  179.5770 N.2       1 AGS902      0.0000 
     25 C5        127.4240  201.1690  180.2410 C.ar      1 AGS902      0.0000 
     26 C6        126.9780  201.8090  181.4100 C.ar      1 AGS902      0.0000 
     27 N6        125.9690  201.3600  182.1570 N.pl3     1 AGS902      0.0000 
     28 N1        127.6200  202.9330  181.7940 N.ar      1 AGS902      0.0000 
     29 C2        128.6340  203.3800  181.0500 C.ar      1 AGS902      0.0000 
     30 N3        129.1410  202.8620  179.9280 N.ar      1 AGS902      0.0000 
     31 C4        128.4880  201.7480  179.5760 C.ar      1 AGS902      0.0000 
@<TRIPOS>BOND
     1    1    2 2    
     2    1    3 1    
     3    1    4 1    
     4    1    8 1    
     5    5    6 ar   
     6    5    7 ar   
     7    5    8 1    
     8    5   12 1    
     9    9   10 ar   
    10    9   11 ar   
    11    9   12 1    
    12    9   13 1    
    13   13   14 1    
    14   14   15 1    
    15   15   16 1    
    16   15   17 1    
    17   16   21 1    
    18   17   18 1    
    19   17   19 1    
    20   19   20 1    
    21   19   21 1    
    22   21   22 1    
    23   22   23 1    
    24   22   31 1    
    25   23   24 2    
    26   24   25 1    
    27   25   26 ar   
    28   25   31 ar   
    29   26   27 1    
    30   26   28 ar   
    31   28   29 ar   
    32   29   30 ar   
    33   30   31 ar   
@<TRIPOS>SUBSTRUCTURE
     1 AGS902      1 GROUP   
@<TRIPOS>SET

