#    Name: 6chs_5_AGS
#    Modification time : Fri May 22 19:31:20 2020

@<TRIPOS>MOLECULE
6chs_5_AGS
   31    33     1     0     0
SMALL
NO_CHARGES


@<TRIPOS>ATOM
      1 PG        170.5120  143.8170  184.1600 P.3       1 AGS901      0.0000 
      2 S1G       170.7400  144.0500  182.2440 S.2       1 AGS901      0.0000 
      3 O2G       169.6920  144.9810  184.7650 O.3       1 AGS901      0.0000 
      4 O3G       171.8890  143.7460  184.8770 O.3       1 AGS901      0.0000 
      5 PB        170.6880  141.3160  184.8900 P.3       1 AGS901      0.0000 
      6 O1B       171.6230  140.8750  183.8460 O.co2     1 AGS901      0.0000 
      7 O2B       169.7280  140.2100  185.3130 O.co2     1 AGS901      0.0000 
      8 O3B       169.7780  142.4870  184.4090 O.3       1 AGS901      0.0000 
      9 PA        171.6730  140.5680  187.1870 P.3       1 AGS901      0.0000 
     10 O1A       172.5490  139.5290  186.6190 O.co2     1 AGS901      0.0000 
     11 O2A       170.2400  140.1560  187.5090 O.co2     1 AGS901      0.0000 
     12 O3A       171.4870  141.7420  186.1730 O.3       1 AGS901      0.0000 
     13 O5'       172.3150  141.1010  188.5190 O.3       1 AGS901      0.0000 
     14 C5'       171.4240  141.2740  189.6410 C.3       1 AGS901      0.0000 
     15 C4'       171.7100  140.2820  190.7430 C.3       1 AGS901      0.0000 
     16 O4'       170.4860  139.6600  191.1880 O.3       1 AGS901      0.0000 
     17 C3'       172.6060  139.1120  190.3750 C.3       1 AGS901      0.0000 
     18 O3'       173.9670  139.5180  190.4220 O.3       1 AGS901      0.0000 
     19 C2'       172.2610  138.1040  191.4670 C.3       1 AGS901      0.0000 
     20 O2'       172.9510  138.3950  192.6740 O.3       1 AGS901      0.0000 
     21 C1'       170.7620  138.3530  191.6630 C.3       1 AGS901      0.0000 
     22 N9        169.9000  137.4130  190.9560 N.pl3     1 AGS901      0.0000 
     23 C8        169.0120  137.7050  189.9560 C.2       1 AGS901      0.0000 
     24 N7        168.3590  136.6640  189.5010 N.2       1 AGS901      0.0000 
     25 C5        168.8540  135.6120  190.2540 C.ar      1 AGS901      0.0000 
     26 C6        168.5540  134.2370  190.2730 C.ar      1 AGS901      0.0000 
     27 N6        167.6830  133.6570  189.4460 N.pl3     1 AGS901      0.0000 
     28 N1        169.2380  133.4570  191.1390 N.ar      1 AGS901      0.0000 
     29 C2        170.1320  134.0270  191.9490 C.ar      1 AGS901      0.0000 
     30 N3        170.4830  135.3110  192.0350 N.ar      1 AGS901      0.0000 
     31 C4        169.8040  136.0570  191.1540 C.ar      1 AGS901      0.0000 
@<TRIPOS>BOND
     1    1    2 2    
     2    1    3 1    
     3    1    4 1    
     4    1    8 1    
     5    5    6 ar   
     6    5    7 ar   
     7    5    8 1    
     8    5   12 1    
     9    9   10 ar   
    10    9   11 ar   
    11    9   12 1    
    12    9   13 1    
    13   13   14 1    
    14   14   15 1    
    15   15   16 1    
    16   15   17 1    
    17   16   21 1    
    18   17   18 1    
    19   17   19 1    
    20   19   20 1    
    21   19   21 1    
    22   21   22 1    
    23   22   23 1    
    24   22   31 1    
    25   23   24 2    
    26   24   25 1    
    27   25   26 ar   
    28   25   31 ar   
    29   26   27 1    
    30   26   28 ar   
    31   28   29 ar   
    32   29   30 ar   
    33   30   31 ar   
@<TRIPOS>SUBSTRUCTURE
     1 AGS901      1 GROUP   
@<TRIPOS>SET

