#    Name: 6chs_3_AGS_CAVITY_N1_4
#    Modification time : Fri May 22 19:30:41 2020

@<TRIPOS>MOLECULE
6chs_3_AGS_CAVITY_N1_4
   68     0     7     0     0
SMALL
NO_CHARGES


@<TRIPOS>ATOM
      1 OG        168.2500  175.7300  196.9200 O.3       1 SER1        0.0000 
      2 OG        169.0000  175.1800  199.3400 O.3       1 SER1        0.0000 
      3 OG        169.9000  175.2400  198.1500 O.3       1 SER1        0.0000 
      4 O         168.9700  168.9400  191.4500 O.2       2 ALA2        0.0000 
      5 O         168.5700  171.5600  189.3800 O.2       2 ALA2        0.0000 
      6 O         168.4000  170.9400  193.0000 O.2       2 ALA2        0.0000 
      7 O         169.3100  171.0000  191.8100 O.2       2 ALA2        0.0000 
      8 O         167.7400  172.2200  192.5700 O.2       2 ALA2        0.0000 
      9 O         168.6500  172.2800  191.3700 O.2       2 ALA2        0.0000 
     10 O         169.5600  172.3400  190.1800 O.2       2 ALA2        0.0000 
     11 O         167.1700  174.2200  194.1200 O.2       2 ALA2        0.0000 
     12 N         169.0700  175.0700  193.7300 N.am      2 ALA2        0.0000 
     13 O         167.5100  176.2800  194.4900 O.2       2 ALA2        0.0000 
     14 N         169.1600  175.7900  195.7200 N.am      2 ALA2        0.0000 
     15 N         170.0700  175.8500  194.5300 N.am      2 ALA2        0.0000 
     16 O         171.2200  172.6900  199.0200 O.2       2 ALA2        0.0000 
     17 O         169.6500  173.9000  199.7800 O.2       2 ALA2        0.0000 
     18 N         171.7200  175.3700  195.7700 N.am      2 ALA2        0.0000 
     19 N         170.1600  176.5800  196.5200 N.am      2 ALA2        0.0000 
     20 O         172.2200  173.4800  199.8200 O.2       2 ALA2        0.0000 
     21 OD1       169.9700  169.7300  192.2500 O.co2     3 ASP3        0.0000 
     22 OD1       170.3100  171.7900  192.6100 O.co2     3 ASP3        0.0000 
     23 OD1       171.2100  171.8500  191.4200 O.co2     3 ASP3        0.0000 
     24 OD1       168.7400  173.0000  193.3700 O.co2     3 ASP3        0.0000 
     25 OD1       169.6500  173.0700  192.1800 O.co2     3 ASP3        0.0000 
     26 OD1       170.5600  173.1300  190.9800 O.co2     3 ASP3        0.0000 
     27 OD1       169.9000  174.4100  190.5500 O.co2     3 ASP3        0.0000 
     28 OD1       172.2100  172.6400  192.2200 O.co2     3 ASP3        0.0000 
     29 OD1       169.7300  173.7900  194.1700 O.co2     3 ASP3        0.0000 
     30 OD1       170.6400  173.8500  192.9800 O.co2     3 ASP3        0.0000 
     31 OD1       169.9800  175.1300  192.5400 O.co2     3 ASP3        0.0000 
     32 OD1       170.4800  173.2400  196.5900 O.co2     3 ASP3        0.0000 
     33 OD1       173.2000  173.4300  193.0200 O.co2     3 ASP3        0.0000 
     34 OD1       170.7300  174.5800  194.9700 O.co2     3 ASP3        0.0000 
     35 OD1       171.6400  174.6400  193.7800 O.co2     3 ASP3        0.0000 
     36 OD1       171.4700  174.0300  197.3900 O.co2     3 ASP3        0.0000 
     37 OD1       172.3800  174.0900  196.2000 O.co2     3 ASP3        0.0000 
     38 OD1       173.2900  174.1500  195.0100 O.co2     3 ASP3        0.0000 
     39 OD1       172.6300  175.4300  194.5800 O.co2     3 ASP3        0.0000 
     40 NZ        170.2200  171.0700  190.6200 N.4       4 LYS4        0.0000 
     41 CZ        169.2500  176.5200  197.7200 C.ar      5 PHE5        0.0000 
     42 CZ        170.9000  176.0300  198.9500 C.ar      5 PHE5        0.0000 
     43 CZ        172.1500  178.1500  198.1200 C.ar      5 PHE5        0.0000 
     44 CA        169.2200  170.2800  189.8200 C.3       6 GLY6        0.0000 
     45 CA        168.9000  173.6200  189.7500 C.3       6 GLY6        0.0000 
     46 CA        168.0800  174.2800  192.9300 C.3       6 GLY6        0.0000 
     47 CA        168.9900  174.3400  191.7400 C.3       6 GLY6        0.0000 
     48 CA        166.5100  175.4900  193.6900 C.3       6 GLY6        0.0000 
     49 CA        168.8200  173.7300  195.3600 C.3       6 GLY6        0.0000 
     50 CA        168.1700  175.0000  194.9200 C.3       6 GLY6        0.0000 
     51 CA        168.4200  176.3400  193.3000 C.3       6 GLY6        0.0000 
     52 CA        169.5700  173.1800  197.7900 C.3       6 GLY6        0.0000 
     53 CA        168.9100  174.4500  197.3500 C.3       6 GLY6        0.0000 
     54 CA        169.8200  174.5200  196.1600 C.3       6 GLY6        0.0000 
     55 CA        172.1300  172.7500  197.8300 C.3       6 GLY6        0.0000 
     56 CA        173.1300  173.5400  198.6300 C.3       6 GLY6        0.0000 
     57 CA        174.0400  173.6000  197.4400 C.3       6 GLY6        0.0000 
     58 CA        175.0300  174.3900  198.2400 C.3       6 GLY6        0.0000 
     59 DU        170.5600  173.9600  198.5900 H         7 CUB7        0.0000 
     60 DU        170.8100  175.3000  196.9600 H         7 CUB7        0.0000 
     61 DU        171.5600  174.7500  199.3900 H         7 CUB7        0.0000 
     62 DU        172.4700  174.8100  198.2000 H         7 CUB7        0.0000 
     63 DU        173.3800  174.8800  197.0000 H         7 CUB7        0.0000 
     64 DU        171.8100  176.0900  197.7600 H         7 CUB7        0.0000 
     65 DU        172.7200  176.1500  196.5700 H         7 CUB7        0.0000 
     66 DU        174.1200  174.3300  199.4300 H         7 CUB7        0.0000 
     67 DU        174.3700  175.6600  197.8000 H         7 CUB7        0.0000 
     68 DU        172.8000  176.8800  198.5600 H         7 CUB7        0.0000 
@<TRIPOS>BOND
@<TRIPOS>SUBSTRUCTURE
     1 SER1        1 GROUP   
     2 ALA2        4 GROUP   
     3 ASP3       21 GROUP   
     4 LYS4       40 GROUP   
     5 PHE5       41 GROUP   
     6 GLY6       44 GROUP   
     7 CUB7       59 GROUP   
@<TRIPOS>SET

