#    Name: 6chs_1_AGS
#    Modification time : Fri May 22 19:29:57 2020

@<TRIPOS>MOLECULE
6chs_1_AGS
   31    33     1     0     0
SMALL
NO_CHARGES


@<TRIPOS>ATOM
      1 PG        166.5120  194.3910  174.6440 P.3       1 AGS901      0.0000 
      2 S1G       166.7280  192.5280  175.1740 S.2       1 AGS901      0.0000 
      3 O2G       165.6800  194.5030  173.3350 O.3       1 AGS901      0.0000 
      4 O3G       167.9160  195.0270  174.4410 O.3       1 AGS901      0.0000 
      5 PB        166.6370  196.3760  176.3610 P.3       1 AGS901      0.0000 
      6 O1B       167.8770  195.9110  177.0080 O.co2     1 AGS901      0.0000 
      7 O2B       165.7540  197.2070  177.2950 O.co2     1 AGS901      0.0000 
      8 O3B       165.8070  195.1890  175.7660 O.3       1 AGS901      0.0000 
      9 PA        168.1540  198.2140  175.6150 P.3       1 AGS901      0.0000 
     10 O1A       169.3880  197.5310  175.2120 O.co2     1 AGS901      0.0000 
     11 O2A       167.9080  198.5070  177.0980 O.co2     1 AGS901      0.0000 
     12 O3A       166.9630  197.3300  175.2100 O.3       1 AGS901      0.0000 
     13 O5'       167.9760  199.4660  174.7150 O.3       1 AGS901      0.0000 
     14 C5'       166.7690  200.2220  174.7160 C.3       1 AGS901      0.0000 
     15 C4'       167.2320  201.6410  174.5960 C.3       1 AGS901      0.0000 
     16 O4'       166.1020  202.5260  174.4370 O.3       1 AGS901      0.0000 
     17 C3'       167.9790  202.1470  175.8220 C.3       1 AGS901      0.0000 
     18 O3'       169.3620  201.8450  175.6970 O.3       1 AGS901      0.0000 
     19 C2'       167.6840  203.6420  175.7760 C.3       1 AGS901      0.0000 
     20 O2'       168.4900  204.3040  174.8120 O.3       1 AGS901      0.0000 
     21 C1'       166.2310  203.6320  175.3090 C.3       1 AGS901      0.0000 
     22 N9        165.2740  203.4500  176.3850 N.pl3     1 AGS901      0.0000 
     23 C8        164.4260  202.3880  176.5450 C.2       1 AGS901      0.0000 
     24 N7        163.6580  202.4710  177.6020 N.2       1 AGS901      0.0000 
     25 C5        164.0460  203.6600  178.1940 C.ar      1 AGS901      0.0000 
     26 C6        163.6100  204.3240  179.3540 C.ar      1 AGS901      0.0000 
     27 N6        162.6650  203.8500  180.1660 N.pl3     1 AGS901      0.0000 
     28 N1        164.1910  205.5040  179.6570 N.ar      1 AGS901      0.0000 
     29 C2        165.1320  205.9860  178.8420 C.ar      1 AGS901      0.0000 
     30 N3        165.6260  205.4490  177.7240 N.ar      1 AGS901      0.0000 
     31 C4        165.0340  204.2800  177.4510 C.ar      1 AGS901      0.0000 
@<TRIPOS>BOND
     1    1    2 2    
     2    1    3 1    
     3    1    4 1    
     4    1    8 1    
     5    5    6 ar   
     6    5    7 ar   
     7    5    8 1    
     8    5   12 1    
     9    9   10 ar   
    10    9   11 ar   
    11    9   12 1    
    12    9   13 1    
    13   13   14 1    
    14   14   15 1    
    15   15   16 1    
    16   15   17 1    
    17   16   21 1    
    18   17   18 1    
    19   17   19 1    
    20   19   20 1    
    21   19   21 1    
    22   21   22 1    
    23   22   23 1    
    24   22   31 1    
    25   23   24 2    
    26   24   25 1    
    27   25   26 ar   
    28   25   31 ar   
    29   26   27 1    
    30   26   28 ar   
    31   28   29 ar   
    32   29   30 ar   
    33   30   31 ar   
@<TRIPOS>SUBSTRUCTURE
     1 AGS901      1 GROUP   
@<TRIPOS>SET

