#    Name: 6ham_1_AP5
#    Modification time : Fri May 22 19:29:03 2020

@<TRIPOS>MOLECULE
6ham_1_AP5
   57    64     1     0     0
SMALL
NO_CHARGES


@<TRIPOS>ATOM
      1 PA         30.0330   -2.1200    2.4830 P.3       1 AP5301      0.0000 
      2 O1A        30.5360   -1.0420    3.5860 O.co2     1 AP5301      0.0000 
      3 O2A        28.8350   -2.8810    2.9310 O.co2     1 AP5301      0.0000 
      4 O3A        29.9210   -1.3350    1.1220 O.3       1 AP5301      0.0000 
      5 PB         28.5170   -1.0730    0.4990 P.3       1 AP5301      0.0000 
      6 O1B        29.0360   -0.1350   -0.7130 O.co2     1 AP5301      0.0000 
      7 O2B        27.6560   -0.2930    1.4120 O.co2     1 AP5301      0.0000 
      8 O3B        27.8200   -2.1630   -0.4300 O.3       1 AP5301      0.0000 
      9 PG         26.5400   -1.3900   -1.1320 P.3       1 AP5301      0.0000 
     10 O1G        26.0800   -1.8880   -2.6170 O.co2     1 AP5301      0.0000 
     11 O2G        25.5390   -0.7830   -0.1940 O.co2     1 AP5301      0.0000 
     12 O3G        25.7400   -2.7970   -0.8850 O.3       1 AP5301      0.0000 
     13 PD         24.7340   -3.3550    0.3090 P.3       1 AP5301      0.0000 
     14 O1D        24.1450   -2.2380    1.3780 O.co2     1 AP5301      0.0000 
     15 O2D        23.8830   -4.5480   -0.0410 O.co2     1 AP5301      0.0000 
     16 O3D        23.7000   -2.5960   -0.7170 O.3       1 AP5301      0.0000 
     17 PE         22.0660   -2.5420   -0.5370 P.3       1 AP5301      0.0000 
     18 O1E        21.6350   -2.5430    1.0330 O.co2     1 AP5301      0.0000 
     19 O2E        21.5400   -1.3260   -1.2150 O.co2     1 AP5301      0.0000 
     20 O5F        31.2560   -3.0780    2.1930 O.3       1 AP5301      0.0000 
     21 C5F        31.3660   -4.3680    1.6050 C.3       1 AP5301      0.0000 
     22 C4F        32.1070   -5.2840    2.6050 C.3       1 AP5301      0.0000 
     23 O4F        33.0450   -4.1270    2.4630 Du        1 AP5301      0.0000 
     24 C3F        32.3110   -5.2540    4.1440 C.3       1 AP5301      0.0000 
     25 O3F        33.1510   -6.3230    4.5000 O.3       1 AP5301      0.0000 
     26 C2F        33.0070   -3.9530    4.2390 Du        1 AP5301      0.0000 
     27 O2F        33.4850   -3.7910    5.5830 Du        1 AP5301      0.0000 
     28 C1F        34.1400   -4.3600    3.3440 Du        1 AP5301      0.0000 
     29 N9A        35.0640   -3.2190    3.2100 Du        1 AP5301      0.0000 
     30 C8A        34.5520   -2.0070    3.4240 Du        1 AP5301      0.0000 
     31 N7A        35.4890   -1.0980    3.1940 Du        1 AP5301      0.0000 
     32 C5A        36.5760   -1.7400    2.7870 Du        1 AP5301      0.0000 
     33 C6A        37.7750   -1.2790    2.4330 Du        1 AP5301      0.0000 
     34 N6A        37.9420    0.0400    2.4820 Du        1 AP5301      0.0000 
     35 N1A        38.7560   -2.1010    2.0460 Du        1 AP5301      0.0000 
     36 C2A        38.5130   -3.4730    2.0190 Du        1 AP5301      0.0000 
     37 N3A        37.2460   -3.9300    2.3910 Du        1 AP5301      0.0000 
     38 C4A        36.3010   -3.0500    2.7480 Du        1 AP5301      0.0000 
     39 O5J        21.4420   -3.8690   -1.1810 O.3       1 AP5301      0.0000 
     40 C5J        20.8280   -3.7660   -2.4470 C.3       1 AP5301      0.0000 
     41 C4J        19.4950   -4.5180   -2.3250 C.3       1 AP5301      0.0000 
     42 O4J        18.0270   -4.5200   -2.0490 O.3       1 AP5301      0.0000 
     43 C3J        19.2040   -4.0280   -3.7940 C.3       1 AP5301      0.0000 
     44 O3J        20.1600   -4.6110   -4.6900 O.3       1 AP5301      0.0000 
     45 C2J        17.8740   -4.5300   -4.1560 C.3       1 AP5301      0.0000 
     46 O2J        17.7920   -5.9250   -3.8860 O.3       1 AP5301      0.0000 
     47 C1J        17.3080   -3.7160   -2.9560 C.3       1 AP5301      0.0000 
     48 N9B        17.5720   -2.2260   -3.0590 N.pl3     1 AP5301      0.0000 
     49 C8B        18.2480   -1.4460   -2.2090 C.2       1 AP5301      0.0000 
     50 N7B        18.1910   -0.1930   -2.6480 N.2       1 AP5301      0.0000 
     51 C5B        17.4390   -0.1770   -3.7430 C.ar      1 AP5301      0.0000 
     52 C6B        17.0720    0.8210   -4.5450 C.ar      1 AP5301      0.0000 
     53 N6B        17.5180    2.0330   -4.2250 N.pl3     1 AP5301      0.0000 
     54 N1B        16.2970    0.6170   -5.6170 N.ar      1 AP5301      0.0000 
     55 C2B        15.8610   -0.6770   -5.8990 C.ar      1 AP5301      0.0000 
     56 N3B        16.2600   -1.7050   -5.0430 N.ar      1 AP5301      0.0000 
     57 C4B        17.0300   -1.4290   -3.9790 C.ar      1 AP5301      0.0000 
@<TRIPOS>BOND
     1    1    2 ar   
     2    1    3 ar   
     3    1    4 1    
     4    1   20 1    
     5    4    5 1    
     6    5    6 ar   
     7    5    7 ar   
     8    5    8 1    
     9    8    9 1    
    10    9   10 ar   
    11    9   11 ar   
    12    9   12 1    
    13   12   13 1    
    14   13   14 ar   
    15   13   15 ar   
    16   13   16 1    
    17   16   17 1    
    18   17   18 ar   
    19   17   19 ar   
    20   17   39 1    
    21   20   21 1    
    22   21   22 1    
    23   21   23 du   
    24   22   23 du   
    25   22   24 1    
    26   23   26 du   
    27   23   28 du   
    28   24   25 1    
    29   24   26 du   
    30   26   27 du   
    31   26   28 du   
    32   28   29 du   
    33   29   30 du   
    34   29   38 du   
    35   30   31 du   
    36   31   32 du   
    37   32   33 du   
    38   32   38 du   
    39   33   34 du   
    40   33   35 du   
    41   35   36 du   
    42   36   37 du   
    43   37   38 du   
    44   39   40 1    
    45   40   41 1    
    46   41   42 1    
    47   41   43 1    
    48   42   47 1    
    49   43   44 1    
    50   43   45 1    
    51   45   46 1    
    52   45   47 1    
    53   47   48 1    
    54   48   49 1    
    55   48   57 1    
    56   49   50 2    
    57   50   51 1    
    58   51   52 ar   
    59   51   57 ar   
    60   52   53 1    
    61   52   54 ar   
    62   54   55 ar   
    63   55   56 ar   
    64   56   57 ar   
@<TRIPOS>SUBSTRUCTURE
     1 AP5301      1 GROUP   
@<TRIPOS>SET

