#    Name: 6ham_1_AP5_CAVITY_N1_4
#    Modification time : Fri May 22 19:29:05 2020

@<TRIPOS>MOLECULE
6ham_1_AP5_CAVITY_N1_4
   94     0     7     0     0
SMALL
NO_CHARGES


@<TRIPOS>ATOM
      1 OG         21.4100   -0.2800    1.6500 O.3       1 SER1        0.0000 
      2 OG         23.2600   -0.3200    2.6900 O.3       1 SER1        0.0000 
      3 OG         22.5400   -0.6900    3.9500 O.3       1 SER1        0.0000 
      4 OG         30.4700   -1.7300    2.8200 O.3       1 SER1        0.0000 
      5 OG         31.5100   -2.7700    3.1000 O.3       1 SER1        0.0000 
      6 OG         32.5400   -3.8200    3.3800 O.3       1 SER1        0.0000 
      7 OG         34.0700   -2.4400    2.8800 O.3       1 SER1        0.0000 
      8 OG         33.3500   -2.8100    4.1400 O.3       1 SER1        0.0000 
      9 OG         34.1600   -1.8000    4.9000 O.3       1 SER1        0.0000 
     10 N          22.1300    0.1000    0.3900 N.am      2 ALA2        0.0000 
     11 O          26.6800   -2.2900   -1.2900 O.2       2 ALA2        0.0000 
     12 O          28.5300   -2.3300   -0.2500 O.2       2 ALA2        0.0000 
     13 N          31.6500   -5.4600    0.6000 N.am      2 ALA2        0.0000 
     14 O          28.3000   -0.2700    0.2300 O.2       2 ALA2        0.0000 
     15 O          27.5800   -0.6500    1.4900 O.2       2 ALA2        0.0000 
     16 O          29.3400   -1.3200    0.5100 O.2       2 ALA2        0.0000 
     17 O          28.6200   -1.6900    1.7800 O.2       2 ALA2        0.0000 
     18 O          30.3800   -2.3600    0.8000 O.2       2 ALA2        0.0000 
     19 N          31.4200   -3.4100    1.0800 N.am      2 ALA2        0.0000 
     20 N          32.4600   -4.4500    1.3600 N.am      2 ALA2        0.0000 
     21 N          32.0500   -6.2500    4.1600 N.am      2 ALA2        0.0000 
     22 O          29.4300   -0.6800    2.5400 O.2       2 ALA2        0.0000 
     23 O          28.7100   -1.0600    3.8000 O.2       2 ALA2        0.0000 
     24 N          33.2600   -3.4400    2.1200 N.am      2 ALA2        0.0000 
     25 O          33.6700   -4.2300    5.6900 O.2       2 ALA2        0.0000 
     26 OD1        23.8000   -1.2100   -2.6100 O.co2     3 ASP3        0.0000 
     27 OD1        23.0800   -1.5800   -1.3500 O.co2     3 ASP3        0.0000 
     28 OD1        21.6400   -2.3300    1.1700 O.co2     3 ASP3        0.0000 
     29 OD1        23.4000   -3.0000    0.1900 O.co2     3 ASP3        0.0000 
     30 OD1        22.6800   -3.3800    1.4500 O.co2     3 ASP3        0.0000 
     31 OD1        24.6100   -0.2000   -1.8500 O.co2     3 ASP3        0.0000 
     32 OD1        22.4500   -1.3200    1.9300 O.co2     3 ASP3        0.0000 
     33 OD1        25.6500   -1.2400   -1.5700 O.co2     3 ASP3        0.0000 
     34 OD1        24.2100   -1.9900    0.9500 O.co2     3 ASP3        0.0000 
     35 OD1        23.4900   -2.3700    2.2100 O.co2     3 ASP3        0.0000 
     36 OD1        25.9600   -2.6600   -0.0300 O.co2     3 ASP3        0.0000 
     37 OD1        25.2400   -3.0400    1.2300 O.co2     3 ASP3        0.0000 
     38 OD1        23.8100   -3.7900    3.7600 O.co2     3 ASP3        0.0000 
     39 OD1        26.4500   -0.2400   -0.8100 O.co2     3 ASP3        0.0000 
     40 OD1        24.3000   -1.3600    2.9700 O.co2     3 ASP3        0.0000 
     41 OD1        23.5800   -1.7400    4.2400 O.co2     3 ASP3        0.0000 
     42 OD1        27.4900   -1.2800   -0.5300 O.co2     3 ASP3        0.0000 
     43 OD1        26.7700   -1.6600    0.7300 O.co2     3 ASP3        0.0000 
     44 OD1        26.0500   -2.0300    1.9900 O.co2     3 ASP3        0.0000 
     45 OD1        25.3300   -2.4100    3.2600 O.co2     3 ASP3        0.0000 
     46 OD1        27.8100   -2.7000    1.0100 O.co2     3 ASP3        0.0000 
     47 OD1        26.3700   -3.4500    3.5400 O.co2     3 ASP3        0.0000 
     48 OD1        27.9000   -2.0700    3.0400 O.co2     3 ASP3        0.0000 
     49 OD1        29.6600   -2.7400    2.0600 O.co2     3 ASP3        0.0000 
     50 OD1        28.9400   -3.1100    3.3200 O.co2     3 ASP3        0.0000 
     51 OD1        30.7000   -3.7800    2.3400 O.co2     3 ASP3        0.0000 
     52 OD1        34.7900   -2.0600    1.6200 O.co2     3 ASP3        0.0000 
     53 NZ         23.8900   -0.5700   -0.5900 N.4       4 LYS4        0.0000 
     54 NZ         22.9400    1.1000    1.1500 N.4       4 LYS4        0.0000 
     55 NZ         24.7000    0.4300    0.1700 N.4       4 LYS4        0.0000 
     56 NZ         23.9800    0.0600    1.4300 N.4       4 LYS4        0.0000 
     57 NZ         25.7300   -0.6100    0.4500 N.4       4 LYS4        0.0000 
     58 NZ         24.0600    0.6900    3.4500 N.4       4 LYS4        0.0000 
     59 NZ         24.3800   -0.7300    5.0000 N.4       4 LYS4        0.0000 
     60 CZ         32.7700   -5.8700    2.9000 C.ar      5 PHE5        0.0000 
     61 CZ         35.3400   -5.5300    2.6800 C.ar      5 PHE5        0.0000 
     62 CA         21.3200   -0.9100   -0.3700 C.3       6 GLY6        0.0000 
     63 CA         22.3600   -1.9600   -0.0900 C.3       6 GLY6        0.0000 
     64 CA         24.8400   -2.2500   -2.3300 C.3       6 GLY6        0.0000 
     65 CA         22.8500    0.4700   -0.8700 C.3       6 GLY6        0.0000 
     66 CA         24.6100   -2.7800    4.5200 C.3       6 GLY6        0.0000 
     67 CA         25.6500   -3.8300    4.8000 C.3       6 GLY6        0.0000 
     68 CA         29.5700   -3.3700    0.0300 C.3       6 GLY6        0.0000 
     69 CA         30.6100   -4.4200    0.3200 C.3       6 GLY6        0.0000 
     70 CA         31.9700   -6.8800    2.1400 C.3       6 GLY6        0.0000 
     71 CA         25.8200    0.0200    2.4700 C.3       6 GLY6        0.0000 
     72 CA         25.1000   -0.3500    3.7400 C.3       6 GLY6        0.0000 
     73 CA         26.8600   -1.0200    2.7600 C.3       6 GLY6        0.0000 
     74 CA         26.1400   -1.4000    4.0200 C.3       6 GLY6        0.0000 
     75 CA         27.1800   -2.4400    4.3000 C.3       6 GLY6        0.0000 
     76 CA         29.9800   -4.1600    3.6000 C.3       6 GLY6        0.0000 
     77 CA         33.4900   -5.5000    1.6400 C.3       6 GLY6        0.0000 
     78 CA         27.9900   -1.4300    5.0600 C.3       6 GLY6        0.0000 
     79 CA         32.2300   -2.4000    1.8400 C.3       6 GLY6        0.0000 
     80 CA         31.8200   -4.1900    4.6400 C.3       6 GLY6        0.0000 
     81 CA         35.0200   -4.1100    1.1400 C.3       6 GLY6        0.0000 
     82 CA         34.3000   -4.4900    2.4000 C.3       6 GLY6        0.0000 
     83 CA         33.5800   -4.8600    3.6600 C.3       6 GLY6        0.0000 
     84 CA         32.8600   -5.2400    4.9200 C.3       6 GLY6        0.0000 
     85 CA         33.0300   -1.3900    2.6000 C.3       6 GLY6        0.0000 
     86 CA         34.3900   -3.8600    4.4200 C.3       6 GLY6        0.0000 
     87 CA         33.8400   -0.3800    3.3600 C.3       6 GLY6        0.0000 
     88 CA         35.2000   -2.8500    5.1900 C.3       6 GLY6        0.0000 
     89 DU         24.1200   -2.6300   -1.0700 H         7 CUB7        0.0000 
     90 DU         23.1700   -0.9500    0.6700 H         7 CUB7        0.0000 
     91 DU         24.9300   -1.6200   -0.3100 H         7 CUB7        0.0000 
     92 DU         25.0100   -0.9900    1.7100 H         7 CUB7        0.0000 
     93 DU         31.7400   -4.8300    2.6200 H         7 CUB7        0.0000 
     94 DU         35.1100   -3.4800    3.1600 H         7 CUB7        0.0000 
@<TRIPOS>BOND
@<TRIPOS>SUBSTRUCTURE
     1 SER1        1 GROUP   
     2 ALA2       10 GROUP   
     3 ASP3       26 GROUP   
     4 LYS4       53 GROUP   
     5 PHE5       60 GROUP   
     6 GLY6       62 GROUP   
     7 CUB7       89 GROUP   
@<TRIPOS>SET

