#    Name: 5ork_1_ADP
#    Modification time : Fri May 22 19:13:01 2020

@<TRIPOS>MOLECULE
5ork_1_ADP
   27    29     1     0     1
SMALL
NO_CHARGES


@<TRIPOS>ATOM
      1 PB         82.0810  131.7580  356.0680 P.3       1 ADP401      0.0000 
      2 O1B        81.5510  131.9290  354.6350 O.co2     1 ADP401      0.0000 
      3 O2B        83.1250  132.8150  356.4910 O.co2     1 ADP401      0.0000 
      4 O3B        82.8550  130.4540  356.2350 O.co2     1 ADP401      0.0000 
      5 PA         79.5650  132.7120  357.3260 P.3       1 ADP401      0.0000 
      6 O1A        79.3480  133.7130  356.1560 O.co2     1 ADP401      0.0000 
      7 O2A        79.6310  133.4210  358.6260 O.co2     1 ADP401      0.0000 
      8 O3A        80.8860  131.8310  357.1280 O.3       1 ADP401      0.0000 
      9 O5'        78.3160  131.7100  357.2250 O.3       1 ADP401      0.0000 
     10 C5'        77.9950  130.8780  356.0900 C.3       1 ADP401      0.0000 
     11 C4'        76.4960  130.8260  355.9410 C.3       1 ADP401      0.0000 
     12 O4'        75.8800  130.4200  357.1850 O.3       1 ADP401      0.0000 
     13 C3'        75.8240  132.1510  355.6190 C.3       1 ADP401      0.0000 
     14 O3'        76.0150  132.5260  354.2610 O.3       1 ADP401      0.0000 
     15 C2'        74.3830  131.8730  356.0470 C.3       1 ADP401      0.0000 
     16 O2'        73.6440  131.1410  355.0670 O.3       1 ADP401      0.0000 
     17 C1'        74.6150  131.0520  357.3260 C.3       1 ADP401      0.0000 
     18 N9         74.6140  131.8430  358.5600 N.pl3     1 ADP401      0.0000 
     19 C8         75.6980  132.3440  359.2370 C.2       1 ADP401      0.0000 
     20 N7         75.3890  133.0160  360.3180 N.2       1 ADP401      0.0000 
     21 C5         74.0060  132.9480  360.3640 C.ar      1 ADP401      0.0000 
     22 C6         73.0680  133.3660  361.3300 C.ar      1 ADP401      0.0000 
     23 N6         73.3930  134.0450  362.4270 N.pl3     1 ADP401      0.0000 
     24 N1         71.7680  133.0340  361.1330 N.ar      1 ADP401      0.0000 
     25 C2         71.4390  132.3520  360.0280 C.ar      1 ADP401      0.0000 
     26 N3         72.2300  131.9320  359.0400 N.ar      1 ADP401      0.0000 
     27 C4         73.5130  132.2380  359.2800 C.ar      1 ADP401      0.0000 
@<TRIPOS>BOND
     1    1    2 ar   
     2    1    3 ar   
     3    1    4 ar   
     4    1    8 1    
     5    5    6 ar   
     6    5    7 ar   
     7    5    8 1    
     8    5    9 1    
     9    9   10 1    
    10   10   11 1    
    11   11   12 1    
    12   11   13 1    
    13   12   17 1    
    14   13   14 1    
    15   13   15 1    
    16   15   16 1    
    17   15   17 1    
    18   17   18 1    
    19   18   19 1    
    20   18   27 1    
    21   19   20 2    
    22   20   21 1    
    23   21   22 ar   
    24   21   27 ar   
    25   22   23 1    
    26   22   24 ar   
    27   24   25 ar   
    28   25   26 ar   
    29   26   27 ar   
@<TRIPOS>SUBSTRUCTURE
     1 ADP401      1 GROUP   
@<TRIPOS>SET
ATOM$ORANGE STATIC     ATOMS   COLORGROUP SYSTEM 
20 10 10 11 11 13 13 15 15 17 17 19 19 21 21 22 22 25 \
25 27 27 

