#    Name: 5ork_2_ADP
#    Modification time : Fri May 22 19:13:07 2020

@<TRIPOS>MOLECULE
5ork_2_ADP
   27    29     1     0     1
SMALL
NO_CHARGES


@<TRIPOS>ATOM
      1 PB        103.7090  119.8480  391.4260 P.3       1 ADP401      0.0000 
      2 O1B       104.9960  119.0740  391.1710 O.co2     1 ADP401      0.0000 
      3 O2B       102.5640  118.8250  391.3730 O.co2     1 ADP401      0.0000 
      4 O3B       103.7430  120.6210  392.7150 O.co2     1 ADP401      0.0000 
      5 PA        102.7480  122.1670  389.8570 P.3       1 ADP401      0.0000 
      6 O1A       102.0750  122.1120  388.5360 O.co2     1 ADP401      0.0000 
      7 O2A       101.6950  122.4240  390.9270 O.co2     1 ADP401      0.0000 
      8 O3A       103.4940  120.7880  390.1540 O.3       1 ADP401      0.0000 
      9 O5'       103.8430  123.3340  390.0400 O.3       1 ADP401      0.0000 
     10 C5'       104.6000  123.5970  391.2440 C.3       1 ADP401      0.0000 
     11 C4'       104.8160  125.0830  391.3920 C.3       1 ADP401      0.0000 
     12 O4'       105.2420  125.6430  390.1320 O.3       1 ADP401      0.0000 
     13 C3'       103.5900  125.9000  391.7820 C.3       1 ADP401      0.0000 
     14 O3'       103.3450  125.8750  393.1850 O.3       1 ADP401      0.0000 
     15 C2'       103.9580  127.2950  391.2680 C.3       1 ADP401      0.0000 
     16 O2'       104.7380  128.0780  392.1700 O.3       1 ADP401      0.0000 
     17 C1'       104.7340  126.9590  389.9890 C.3       1 ADP401      0.0000 
     18 N9        103.9220  127.0310  388.7770 N.pl3     1 ADP401      0.0000 
     19 C8        103.2130  126.0300  388.1630 C.2       1 ADP401      0.0000 
     20 N7        102.5550  126.4170  387.0970 N.2       1 ADP401      0.0000 
     21 C5        102.8520  127.7680  387.0000 C.ar      1 ADP401      0.0000 
     22 C6        102.4720  128.7600  386.0750 C.ar      1 ADP401      0.0000 
     23 N6        101.6950  128.5270  385.0180 N.pl3     1 ADP401      0.0000 
     24 N1        102.9560  130.0100  386.2600 N.ar      1 ADP401      0.0000 
     25 C2        103.7710  130.2380  387.2970 C.ar      1 ADP401      0.0000 
     26 N3        104.1940  129.3850  388.2350 N.ar      1 ADP401      0.0000 
     27 C4        103.6950  128.1590  388.0290 C.ar      1 ADP401      0.0000 
@<TRIPOS>BOND
     1    1    2 ar   
     2    1    3 ar   
     3    1    4 ar   
     4    1    8 1    
     5    5    6 ar   
     6    5    7 ar   
     7    5    8 1    
     8    5    9 1    
     9    9   10 1    
    10   10   11 1    
    11   11   12 1    
    12   11   13 1    
    13   12   17 1    
    14   13   14 1    
    15   13   15 1    
    16   15   16 1    
    17   15   17 1    
    18   17   18 1    
    19   18   19 1    
    20   18   27 1    
    21   19   20 2    
    22   20   21 1    
    23   21   22 ar   
    24   21   27 ar   
    25   22   23 1    
    26   22   24 ar   
    27   24   25 ar   
    28   25   26 ar   
    29   26   27 ar   
@<TRIPOS>SUBSTRUCTURE
     1 ADP401      1 GROUP   
@<TRIPOS>SET
ATOM$ORANGE STATIC     ATOMS   COLORGROUP SYSTEM 
20 10 10 11 11 13 13 15 15 17 17 19 19 21 21 22 22 25 \
25 27 27 

