#    Name: 6ty9_1_GTP_CAVITY_N1_8
#    Modification time : Fri May 22 19:26:06 2020

@<TRIPOS>MOLECULE
6ty9_1_GTP_CAVITY_N1_8
   75     0     4     0     0
SMALL
NO_CHARGES


@<TRIPOS>ATOM
      1 O         114.3500  130.9300  105.3700 O.2       1 ALA2        0.0000 
      2 N         117.2700  132.5900  102.3700 N.am      1 ALA2        0.0000 
      3 O         116.5000  131.1500  106.8200 O.2       1 ALA2        0.0000 
      4 O         116.3000  131.7700  105.4700 O.2       1 ALA2        0.0000 
      5 N         117.8400  133.8700  102.8800 N.am      1 ALA2        0.0000 
      6 N         119.9900  134.0800  104.3400 N.am      1 ALA2        0.0000 
      7 N         118.6200  134.5300  104.7500 N.am      1 ALA2        0.0000 
      8 N         116.8500  136.2300  102.4600 N.am      1 ALA2        0.0000 
      9 N         121.9300  134.9300  104.4400 N.am      1 ALA2        0.0000 
     10 N         120.5600  135.3700  104.8500 N.am      1 ALA2        0.0000 
     11 N         119.1900  135.8200  105.2600 N.am      1 ALA2        0.0000 
     12 N         121.1300  136.6600  105.3700 N.am      1 ALA2        0.0000 
     13 OD1       117.5200  126.3900  104.4500 O.co2     2 ASP3        0.0000 
     14 OD1       117.3200  127.0200  103.1100 O.co2     2 ASP3        0.0000 
     15 OD1       115.9500  127.4700  103.5200 O.co2     2 ASP3        0.0000 
     16 OD1       117.9000  128.3100  103.6200 O.co2     2 ASP3        0.0000 
     17 OD1       116.5200  128.7500  104.0300 O.co2     2 ASP3        0.0000 
     18 OD1       116.3200  129.3800  102.6800 O.co2     2 ASP3        0.0000 
     19 OD1       116.1200  129.2300  107.6500 O.co2     2 ASP3        0.0000 
     20 OD1       120.4100  130.4400  104.2400 O.co2     2 ASP3        0.0000 
     21 OD1       119.4400  129.6300  107.3500 O.co2     2 ASP3        0.0000 
     22 OD1       119.2400  130.2500  106.0000 O.co2     2 ASP3        0.0000 
     23 OD1       119.0400  130.8800  104.6500 O.co2     2 ASP3        0.0000 
     24 OD1       118.0700  130.0700  107.7600 O.co2     2 ASP3        0.0000 
     25 OD1       116.1000  132.4000  104.1300 O.co2     2 ASP3        0.0000 
     26 OD1       115.9000  133.0300  102.7800 O.co2     2 ASP3        0.0000 
     27 OD1       114.7300  132.8500  104.5400 O.co2     2 ASP3        0.0000 
     28 OD1       119.6100  132.1700  105.1700 O.co2     2 ASP3        0.0000 
     29 OD1       116.6700  133.6900  104.6400 O.co2     2 ASP3        0.0000 
     30 OD1       120.1900  133.4600  105.6800 O.co2     2 ASP3        0.0000 
     31 OD1       119.0100  133.2700  107.4400 O.co2     2 ASP3        0.0000 
     32 OD1       117.0400  135.6000  103.8100 O.co2     2 ASP3        0.0000 
     33 OD1       115.2700  137.3100  101.5300 O.co2     2 ASP3        0.0000 
     34 OD1       120.7600  134.7400  106.2000 O.co2     2 ASP3        0.0000 
     35 CA        119.2700  127.8600  103.2100 C.3       3 GLY6        0.0000 
     36 CA        118.2900  127.0500  106.3200 C.3       3 GLY6        0.0000 
     37 CA        117.7000  128.9400  102.2700 C.3       3 GLY6        0.0000 
     38 CA        120.0400  128.5200  105.0700 C.3       3 GLY6        0.0000 
     39 CA        119.8400  129.1500  103.7300 C.3       3 GLY6        0.0000 
     40 CA        118.2700  130.2200  102.7900 C.3       3 GLY6        0.0000 
     41 CA        116.9000  130.6700  103.2000 C.3       3 GLY6        0.0000 
     42 CA        116.7000  131.3000  101.8500 C.3       3 GLY6        0.0000 
     43 CA        116.5000  131.9300  100.5100 C.3       3 GLY6        0.0000 
     44 CA        120.2100  131.0600  102.8900 C.3       3 GLY6        0.0000 
     45 CA        118.6400  132.1400  101.9600 C.3       3 GLY6        0.0000 
     46 CA        120.7900  132.3500  103.4100 C.3       3 GLY6        0.0000 
     47 CA        120.5900  132.9800  102.0600 C.3       3 GLY6        0.0000 
     48 CA        119.2200  133.4300  102.4700 C.3       3 GLY6        0.0000 
     49 CA        118.4400  131.9900  106.9300 C.3       3 GLY6        0.0000 
     50 CA        118.2400  132.6200  105.5800 C.3       3 GLY6        0.0000 
     51 CA        121.3600  133.6400  103.9300 C.3       3 GLY6        0.0000 
     52 CA        118.8100  133.9000  106.0900 C.3       3 GLY6        0.0000 
     53 CA        117.2400  134.9800  105.1600 C.3       3 GLY6        0.0000 
     54 CA        119.5900  134.5600  107.9600 C.3       3 GLY6        0.0000 
     55 CA        119.3900  135.1900  106.6100 C.3       3 GLY6        0.0000 
     56 CA        118.0200  135.6300  107.0200 C.3       3 GLY6        0.0000 
     57 CA        117.8200  136.2600  105.6700 C.3       3 GLY6        0.0000 
     58 CA        117.6200  136.8900  104.3300 C.3       3 GLY6        0.0000 
     59 CA        119.7600  137.1000  105.7800 C.3       3 GLY6        0.0000 
     60 DU        118.0900  127.6800  104.9700 H         4 CUB7        0.0000 
     61 DU        116.7200  128.1300  105.3800 H         4 CUB7        0.0000 
     62 DU        118.8700  128.3400  106.8300 H         4 CUB7        0.0000 
     63 DU        118.6700  128.9700  105.4800 H         4 CUB7        0.0000 
     64 DU        118.4700  129.6000  104.1400 H         4 CUB7        0.0000 
     65 DU        117.4900  128.7800  107.2400 H         4 CUB7        0.0000 
     66 DU        117.3000  129.4100  105.8900 H         4 CUB7        0.0000 
     67 DU        115.9200  129.8600  106.3100 H         4 CUB7        0.0000 
     68 DU        115.7200  130.4900  104.9600 H         4 CUB7        0.0000 
     69 DU        115.5300  131.1200  103.6100 H         4 CUB7        0.0000 
     70 DU        118.8400  131.5100  103.3100 H         4 CUB7        0.0000 
     71 DU        117.8700  130.7000  106.4100 H         4 CUB7        0.0000 
     72 DU        117.6700  131.3300  105.0600 H         4 CUB7        0.0000 
     73 DU        117.4700  131.9600  103.7200 H         4 CUB7        0.0000 
     74 DU        119.4100  132.8000  103.8200 H         4 CUB7        0.0000 
     75 DU        118.0400  133.2400  104.2300 H         4 CUB7        0.0000 
@<TRIPOS>BOND
@<TRIPOS>SUBSTRUCTURE
     1 ALA2        1 GROUP   
     2 ASP3       13 GROUP   
     3 GLY6       35 GROUP   
     4 CUB7       60 GROUP   
@<TRIPOS>SET

