#    Name: 6ty9_1_GTP
#    Modification time : Fri May 22 19:26:04 2020

@<TRIPOS>MOLECULE
6ty9_1_GTP
   32    34     1     0     1
SMALL
NO_CHARGES


@<TRIPOS>ATOM
      1 PG        116.8640  130.5400  106.2010 P.3       1 GTP2        0.0000 
      2 O1G       115.5090  130.0580  106.6630 O.co2     1 GTP2        0.0000 
      3 O2G       117.8820  129.4360  106.3530 O.co2     1 GTP2        0.0000 
      4 O3G       116.7950  130.9520  104.7480 O.co2     1 GTP2        0.0000 
      5 O3B       117.3220  131.8310  107.1170 O.3       1 GTP2        0.0000 
      6 PB        118.8170  131.9730  107.7990 P.3       1 GTP2        0.0000 
      7 O1B       119.8560  131.6880  106.7420 O.co2     1 GTP2        0.0000 
      8 O2B       119.0090  133.3770  108.3240 O.co2     1 GTP2        0.0000 
      9 O3A       118.9590  130.8840  109.0370 O.3       1 GTP2        0.0000 
     10 PA        120.3060  129.9650  109.3150 P.3       1 GTP2        0.0000 
     11 O1A       120.0100  128.9420  110.3890 O.co2     1 GTP2        0.0000 
     12 O2A       120.6990  129.2510  108.0440 O.co2     1 GTP2        0.0000 
     13 O5'       121.5500  130.9450  109.8090 O.3       1 GTP2        0.0000 
     14 C5'       121.2210  132.2050  110.3540 C.3       1 GTP2        0.0000 
     15 C4'       122.4320  132.8120  110.9850 C.3       1 GTP2        0.0000 
     16 O4'       123.4400  132.0110  110.8340 O.3       1 GTP2        0.0000 
     17 C3'       122.8680  134.2010  110.1850 C.3       1 GTP2        0.0000 
     18 O3'       122.0580  135.3420  110.6680 O.3       1 GTP2        0.0000 
     19 C2'       124.0610  134.3810  110.4540 C.3       1 GTP2        0.0000 
     20 O2'       124.1950  135.2710  111.6630 O.3       1 GTP2        0.0000 
     21 C1'       124.6360  132.9240  110.8060 C.3       1 GTP2        0.0000 
     22 N9        125.5100  132.5280  109.8910 N.pl3     1 GTP2        0.0000 
     23 C8        125.2180  131.4210  109.1780 C.2       1 GTP2        0.0000 
     24 N7        126.2410  131.2020  108.3240 N.2       1 GTP2        0.0000 
     25 C5        127.1470  132.1610  108.5120 C.2       1 GTP2        0.0000 
     26 C6        128.5020  132.4450  107.8510 C.2       1 GTP2        0.0000 
     27 O6        128.9080  131.7290  106.9980 O.2       1 GTP2        0.0000 
     28 N1        129.2750  133.5750  108.2700 N.am      1 GTP2        0.0000 
     29 C2        128.7790  134.4420  109.3120 C.2       1 GTP2        0.0000 
     30 N2        129.5640  135.5960  109.7420 N.pl3     1 GTP2        0.0000 
     31 N3        127.4880  134.1660  109.9360 N.2       1 GTP2        0.0000 
     32 C4        126.6890  132.9890  109.4940 C.2       1 GTP2        0.0000 
@<TRIPOS>BOND
     1    1    2 ar   
     2    1    3 ar   
     3    1    4 ar   
     4    1    5 1    
     5    5    6 1    
     6    6    7 ar   
     7    6    8 ar   
     8    6    9 1    
     9    9   10 1    
    10   10   11 ar   
    11   10   12 ar   
    12   10   13 1    
    13   13   14 1    
    14   14   15 1    
    15   15   16 1    
    16   15   17 1    
    17   16   21 1    
    18   17   18 1    
    19   17   19 1    
    20   19   20 1    
    21   19   21 1    
    22   21   22 1    
    23   22   23 1    
    24   22   32 1    
    25   23   24 2    
    26   24   25 1    
    27   25   26 1    
    28   25   32 2    
    29   26   27 2    
    30   26   28 am   
    31   28   29 1    
    32   29   30 1    
    33   29   31 2    
    34   31   32 1    
@<TRIPOS>SUBSTRUCTURE
     1 GTP2        1 GROUP   
@<TRIPOS>SET
ATOM$ORANGE STATIC     ATOMS   COLORGROUP SYSTEM 
20 14 14 15 15 17 17 19 19 21 21 23 23 25 25 26 26 29 \
29 32 32 

