#    Name: 6s83_3_MDN_CAVITY_N1_4
#    Modification time : Fri May 22 19:41:06 2020

@<TRIPOS>MOLECULE
6s83_3_MDN_CAVITY_N1_4
   23     0     5     0     0
SMALL
NO_CHARGES


@<TRIPOS>ATOM
      1 OG         -6.6800   -5.0500   22.2000 O.3       1 SER1        0.0000 
      2 OG         -5.3100   -5.6600   22.2300 O.3       1 SER1        0.0000 
      3 OG         -3.9400   -6.2700   22.2600 O.3       1 SER1        0.0000 
      4 OG         -1.7500   -1.3300   22.4500 O.3       1 SER1        0.0000 
      5 NZ         -6.3000   -4.2600   20.9800 N.4       2 LYS4        0.0000 
      6 NZ         -4.9300   -4.8700   21.0100 N.4       2 LYS4        0.0000 
      7 NZ         -3.5600   -5.4800   21.0400 N.4       2 LYS4        0.0000 
      8 NZ         -6.5800   -4.7200   24.2900 N.4       2 LYS4        0.0000 
      9 NZ         -5.2100   -5.3300   24.3200 N.4       2 LYS4        0.0000 
     10 NZ         -5.8300   -3.1400   21.8600 N.4       2 LYS4        0.0000 
     11 NZ         -4.4600   -3.7500   21.8900 N.4       2 LYS4        0.0000 
     12 NZ         -3.0800   -4.3600   21.9200 N.4       2 LYS4        0.0000 
     13 NZ         -4.3600   -3.4200   23.9800 N.4       2 LYS4        0.0000 
     14 NZ         -3.9800   -2.6300   22.7600 N.4       2 LYS4        0.0000 
     15 NZ         -3.6000   -1.8400   21.5500 N.4       2 LYS4        0.0000 
     16 NZ         -2.2300   -2.4500   21.5800 N.4       2 LYS4        0.0000 
     17 CZ         -7.0600   -5.8400   23.4100 C.ar      3 PHE5        0.0000 
     18 CA         -2.7400    0.0700   21.2100 C.3       4 GLY6        0.0000 
     19 CA         -1.3700   -0.5400   21.2400 C.3       4 GLY6        0.0000 
     20 DU         -6.2000   -3.9300   23.0700 H         5 CUB7        0.0000 
     21 DU         -4.8300   -4.5400   23.1000 H         5 CUB7        0.0000 
     22 DU         -3.4600   -5.1500   23.1300 H         5 CUB7        0.0000 
     23 DU         -3.1200   -0.7200   22.4200 H         5 CUB7        0.0000 
@<TRIPOS>BOND
@<TRIPOS>SUBSTRUCTURE
     1 SER1        1 GROUP   
     2 LYS4        5 GROUP   
     3 PHE5       17 GROUP   
     4 GLY6       18 GROUP   
     5 CUB7       20 GROUP   
@<TRIPOS>SET

