#    Name: 6s83_7_ACP
#    Modification time : Fri May 22 19:41:13 2020

@<TRIPOS>MOLECULE
6s83_7_ACP
   45    47     1     0     1
SMALL
NO_CHARGES


@<TRIPOS>ATOM
      1 PG         12.8760  -17.4060   65.6520 P.3       1 ACP504      0.0000 
      2 O1G        12.7030  -17.2970   67.1500 O.co2     1 ACP504      0.0000 
      3 O2G        14.1250  -16.6640   65.2330 O.co2     1 ACP504      0.0000 
      4 O3G        11.6760  -16.8030   64.9610 O.co2     1 ACP504      0.0000 
      5 PB         14.1270  -20.0670   66.3740 P.3       1 ACP504      0.0000 
      6 O1B        14.0050  -21.5630   66.1920 O.co2     1 ACP504      0.0000 
      7 O2B        13.7050  -19.6930   67.7750 O.co2     1 ACP504      0.0000 
      8 C3B        13.0290  -19.1940   65.1550 C.3       1 ACP504      0.0000 
      9 PA         16.6590  -20.1670   64.9450 P.3       1 ACP504      0.0000 
     10 O1A        15.8150  -20.6130   63.7750 O.co2     1 ACP504      0.0000 
     11 O2A        17.4370  -21.3430   65.4880 O.co2     1 ACP504      0.0000 
     12 O3A        15.6840  -19.5790   66.1340 O.3       1 ACP504      0.0000 
     13 O5'        17.7000  -18.9790   64.4660 O.3       1 ACP504      0.0000 
     14 C5'        17.3010  -18.0740   63.4720 C.3       1 ACP504      0.0000 
     15 C4'        17.4790  -16.6220   63.9990 C.3       1 ACP504      0.0000 
     16 O4'        18.5610  -16.5380   64.7290 O.3       1 ACP504      0.0000 
     17 C3'        17.6870  -15.6270   62.8390 C.3       1 ACP504      0.0000 
     18 O3'        16.5050  -15.0780   62.4580 O.3       1 ACP504      0.0000 
     19 C2'        18.6130  -14.5620   63.4560 C.3       1 ACP504      0.0000 
     20 O2'        17.8190  -13.5890   64.2680 O.3       1 ACP504      0.0000 
     21 C1'        19.4030  -15.2390   64.2490 C.3       1 ACP504      0.0000 
     22 N9         20.6190  -15.6830   63.6020 N.pl3     1 ACP504      0.0000 
     23 C8         20.8620  -15.8990   62.3040 C.2       1 ACP504      0.0000 
     24 N7         22.1260  -16.3100   62.1760 N.2       1 ACP504      0.0000 
     25 C5         22.6690  -16.3570   63.3990 C.ar      1 ACP504      0.0000 
     26 C6         23.9270  -16.7100   63.8360 C.ar      1 ACP504      0.0000 
     27 N6         25.1250  -17.1580   63.1510 N.pl3     1 ACP504      0.0000 
     28 N1         24.2150  -16.6690   65.1270 N.ar      1 ACP504      0.0000 
     29 C2         23.2740  -16.2800   66.0200 C.ar      1 ACP504      0.0000 
     30 N3         22.0390  -15.9320   65.5910 N.ar      1 ACP504      0.0000 
     31 C4         21.7410  -15.9720   64.2790 C.ar      1 ACP504      0.0000 
     32 H3B1       13.4180  -19.2520   64.2680 H         1 ACP504      0.0000 
     33 H3B2       12.1520  -19.6070   65.1540 H         1 ACP504      0.0000 
     34 H5'1       16.3700  -18.2260   63.2500 H         1 ACP504      0.0000 
     35 H5'2       17.8480  -18.2000   62.6810 H         1 ACP504      0.0000 
     36 H4'        16.7070  -16.3590   64.5230 H         1 ACP504      0.0000 
     37 H3'        18.1240  -16.0640   62.0910 H         1 ACP504      0.0000 
     38 HO3'       16.0780  -15.6320   61.9740 H         1 ACP504      0.0000 
     39 H2'        19.1230  -14.1090   62.7660 H         1 ACP504      0.0000 
     40 HO2'       18.3320  -12.9740   64.5530 H         1 ACP504      0.0000 
     41 H1'        19.6240  -14.6960   65.0210 H         1 ACP504      0.0000 
     42 H8         20.2570  -15.7770   61.6090 H         1 ACP504      0.0000 
     43 HN61       25.4700  -17.9230   63.3430 H         1 ACP504      0.0000 
     44 HN62       25.4910  -16.6600   62.5540 H         1 ACP504      0.0000 
     45 H2         23.4760  -16.2500   66.9270 H         1 ACP504      0.0000 
@<TRIPOS>BOND
     1    1    2 ar   
     2    1    3 ar   
     3    1    4 ar   
     4    1    8 1    
     5    5    6 ar   
     6    5    7 ar   
     7    5    8 1    
     8    5   12 1    
     9    8   32 1    
    10    8   33 1    
    11    9   10 ar   
    12    9   11 ar   
    13    9   12 1    
    14    9   13 1    
    15   13   14 1    
    16   14   15 1    
    17   14   34 1    
    18   14   35 1    
    19   15   16 1    
    20   15   17 1    
    21   15   36 1    
    22   16   21 1    
    23   17   18 1    
    24   17   19 1    
    25   17   37 1    
    26   18   38 1    
    27   19   20 1    
    28   19   21 1    
    29   19   39 1    
    30   21   41 1    
    31   21   22 1    
    32   20   40 1    
    33   22   23 1    
    34   22   31 1    
    35   23   24 2    
    36   24   25 1    
    37   23   42 1    
    38   25   26 ar   
    39   25   31 ar   
    40   26   27 1    
    41   26   28 ar   
    42   28   29 ar   
    43   27   43 1    
    44   27   44 1    
    45   29   30 ar   
    46   30   31 ar   
    47   29   45 1    
@<TRIPOS>SUBSTRUCTURE
     1 ACP504      1 GROUP   
@<TRIPOS>SET
ATOM$ORANGE STATIC     ATOMS   COLORGROUP SYSTEM 
22 8 8 14 14 15 15 17 17 19 19 21 21 23 23 25 25 26 \
26 29 29 31 31 

