#    Name: 6s83_9_ACP_CAVITY_N1_4
#    Modification time : Fri May 22 19:41:29 2020

@<TRIPOS>MOLECULE
6s83_9_ACP_CAVITY_N1_4
   47     0     6     0     0
SMALL
NO_CHARGES


@<TRIPOS>ATOM
      1 O          53.9200  -87.2400   83.7800 O.2       1 ALA2        0.0000 
      2 O          54.4000  -86.1200   84.6600 O.2       1 ALA2        0.0000 
      3 O          54.7700  -85.3300   83.4400 O.2       1 ALA2        0.0000 
      4 OD1        47.9600  -85.9200   82.7800 O.co2     2 ASP3        0.0000 
      5 OD1        48.3400  -85.1300   81.5700 O.co2     2 ASP3        0.0000 
      6 OD1        48.7100  -84.3400   80.3500 O.co2     2 ASP3        0.0000 
      7 OD1        48.4400  -84.8000   83.6600 O.co2     2 ASP3        0.0000 
      8 OD1        50.1800  -84.6200   82.4700 O.co2     2 ASP3        0.0000 
      9 OD1        50.5600  -83.8300   81.2600 O.co2     2 ASP3        0.0000 
     10 NZ         49.3300  -86.5300   82.8100 N.4       3 LYS4        0.0000 
     11 NZ         50.8400  -83.3700   77.9500 N.4       3 LYS4        0.0000 
     12 NZ         52.2100  -83.9800   77.9800 N.4       3 LYS4        0.0000 
     13 CZ         53.5800  -84.5900   78.0100 C.ar      4 PHE5        0.0000 
     14 CZ         54.9500  -85.2000   78.0400 C.ar      4 PHE5        0.0000 
     15 CZ         53.6800  -84.2600   80.1000 C.ar      4 PHE5        0.0000 
     16 CZ         55.0500  -84.8700   80.1300 C.ar      4 PHE5        0.0000 
     17 CZ         54.0600  -83.4700   78.8800 C.ar      4 PHE5        0.0000 
     18 CZ         54.1600  -83.1400   80.9800 C.ar      4 PHE5        0.0000 
     19 CA         52.4500  -86.9600   81.6600 C.3       5 GLY6        0.0000 
     20 CA         54.2000  -86.7800   80.4700 C.3       5 GLY6        0.0000 
     21 CA         54.5700  -85.9900   79.2500 C.3       5 GLY6        0.0000 
     22 CA         55.9400  -86.6000   79.2800 C.3       5 GLY6        0.0000 
     23 CA         54.3000  -86.4500   82.5600 C.3       5 GLY6        0.0000 
     24 CA         54.6700  -85.6600   81.3500 C.3       5 GLY6        0.0000 
     25 CA         53.0200  -85.5100   84.6300 C.3       5 GLY6        0.0000 
     26 CA         50.6600  -83.5000   83.3500 C.3       5 GLY6        0.0000 
     27 CA         52.0300  -84.1100   83.3800 C.3       5 GLY6        0.0000 
     28 CA         53.4000  -84.7200   83.4100 C.3       5 GLY6        0.0000 
     29 CA         51.0400  -82.7100   82.1300 C.3       5 GLY6        0.0000 
     30 CA         52.4100  -83.3200   82.1600 C.3       5 GLY6        0.0000 
     31 CA         53.7800  -83.9300   82.1900 C.3       5 GLY6        0.0000 
     32 CA         55.1500  -84.5400   82.2200 C.3       5 GLY6        0.0000 
     33 CA         51.4200  -81.9200   80.9200 C.3       5 GLY6        0.0000 
     34 CA         52.7900  -82.5300   80.9500 C.3       5 GLY6        0.0000 
     35 CA         55.2500  -84.2100   84.3200 C.3       5 GLY6        0.0000 
     36 DU         49.7100  -85.7400   81.6000 H         6 CUB7        0.0000 
     37 DU         50.0800  -84.9500   80.3800 H         6 CUB7        0.0000 
     38 DU         52.8200  -86.1700   80.4400 H         6 CUB7        0.0000 
     39 DU         51.8300  -84.7700   79.1900 H         6 CUB7        0.0000 
     40 DU         53.2000  -85.3800   79.2200 H         6 CUB7        0.0000 
     41 DU         52.5500  -86.6300   83.7500 H         6 CUB7        0.0000 
     42 DU         51.5500  -85.2300   82.5000 H         6 CUB7        0.0000 
     43 DU         52.9200  -85.8400   82.5300 H         6 CUB7        0.0000 
     44 DU         51.9300  -84.4400   81.2900 H         6 CUB7        0.0000 
     45 DU         53.3000  -85.0500   81.3200 H         6 CUB7        0.0000 
     46 DU         50.9400  -83.0400   80.0400 H         6 CUB7        0.0000 
     47 DU         52.3100  -83.6500   80.0700 H         6 CUB7        0.0000 
@<TRIPOS>BOND
@<TRIPOS>SUBSTRUCTURE
     1 ALA2        1 GROUP   
     2 ASP3        4 GROUP   
     3 LYS4       10 GROUP   
     4 PHE5       13 GROUP   
     5 GLY6       19 GROUP   
     6 CUB7       36 GROUP   
@<TRIPOS>SET

