#    Name: 6s83_8_ACP_CAVITY_N1_6
#    Modification time : Fri May 22 19:41:21 2020

@<TRIPOS>MOLECULE
6s83_8_ACP_CAVITY_N1_6
   53     0     7     0     0
SMALL
NO_CHARGES


@<TRIPOS>ATOM
      1 OG         13.8400  -33.0500   15.9300 O.3       1 SER1        0.0000 
      2 OG         15.3100  -33.3300   18.0600 O.3       1 SER1        0.0000 
      3 OG         14.3200  -31.9300   16.8100 O.3       1 SER1        0.0000 
      4 OG         15.6900  -32.5400   16.8400 O.3       1 SER1        0.0000 
      5 N          17.5400  -32.0300   17.7500 N.am      2 ALA2        0.0000 
      6 OD1        12.1600  -29.2600   19.7200 O.co2     3 ASP3        0.0000 
      7 OD1        12.5400  -28.4700   18.5000 O.co2     3 ASP3        0.0000 
      8 OD1        13.0100  -27.3500   19.3800 O.co2     3 ASP3        0.0000 
      9 OD1        14.3800  -27.9600   19.4100 O.co2     3 ASP3        0.0000 
     10 OD1        13.3900  -26.5600   18.1600 O.co2     3 ASP3        0.0000 
     11 NZ         14.2800  -28.2900   17.3200 N.4       4 LYS4        0.0000 
     12 NZ         13.2900  -26.8900   16.0700 N.4       4 LYS4        0.0000 
     13 NZ         14.6600  -27.5000   16.1000 N.4       4 LYS4        0.0000 
     14 NZ         14.7600  -27.1700   18.1900 N.4       4 LYS4        0.0000 
     15 CZ         13.1800  -34.3000   20.4600 C.ar      5 PHE5        0.0000 
     16 CZ         13.2800  -33.9700   22.5500 C.ar      5 PHE5        0.0000 
     17 CZ         14.6500  -34.5800   22.5800 C.ar      5 PHE5        0.0000 
     18 CZ         12.2900  -32.5700   21.3100 C.ar      5 PHE5        0.0000 
     19 CZ         13.6600  -33.1800   21.3400 C.ar      5 PHE5        0.0000 
     20 CZ         12.3900  -32.2500   23.4000 C.ar      5 PHE5        0.0000 
     21 CA         13.4600  -33.8400   17.1500 C.3       6 GLY6        0.0000 
     22 CA         12.4700  -32.4400   15.9000 C.3       6 GLY6        0.0000 
     23 CA         13.5600  -33.5100   19.2400 C.3       6 GLY6        0.0000 
     24 CA         14.9300  -34.1200   19.2700 C.3       6 GLY6        0.0000 
     25 CA         13.9400  -32.7200   18.0300 C.3       6 GLY6        0.0000 
     26 CA         11.5800  -30.7100   16.7500 C.3       6 GLY6        0.0000 
     27 CA         12.9500  -31.3200   16.7800 C.3       6 GLY6        0.0000 
     28 CA         15.0300  -33.7900   21.3700 C.3       6 GLY6        0.0000 
     29 CA         12.6700  -31.7800   20.0900 C.3       6 GLY6        0.0000 
     30 CA         14.0400  -32.3900   20.1200 C.3       6 GLY6        0.0000 
     31 CA         15.4100  -33.0000   20.1500 C.3       6 GLY6        0.0000 
     32 CA         11.6800  -30.3800   18.8400 C.3       6 GLY6        0.0000 
     33 CA         13.0500  -30.9900   18.8700 C.3       6 GLY6        0.0000 
     34 CA         15.7900  -32.2100   18.9300 C.3       6 GLY6        0.0000 
     35 CA         13.4300  -30.2000   17.6600 C.3       6 GLY6        0.0000 
     36 CA         12.4400  -28.8000   16.4100 C.3       6 GLY6        0.0000 
     37 CA         12.8100  -28.0100   15.1900 C.3       6 GLY6        0.0000 
     38 CA         15.5100  -32.6700   22.2400 C.3       6 GLY6        0.0000 
     39 CA         15.2800  -29.6900   18.5600 C.3       6 GLY6        0.0000 
     40 CA         16.6500  -30.3000   18.5900 C.3       6 GLY6        0.0000 
     41 CA         12.9100  -27.6800   17.2900 C.3       6 GLY6        0.0000 
     42 CA         15.6500  -28.9000   17.3500 C.3       6 GLY6        0.0000 
     43 DU         14.4200  -31.6000   18.9000 H         7 CUB7        0.0000 
     44 DU         14.8000  -30.8100   17.6900 H         7 CUB7        0.0000 
     45 DU         16.1700  -31.4200   17.7200 H         7 CUB7        0.0000 
     46 DU         13.8100  -29.4100   16.4400 H         7 CUB7        0.0000 
     47 DU         12.7700  -31.4600   22.1800 H         7 CUB7        0.0000 
     48 DU         14.1400  -32.0600   22.2100 H         7 CUB7        0.0000 
     49 DU         13.1500  -30.6600   20.9700 H         7 CUB7        0.0000 
     50 DU         14.5200  -31.2700   21.0000 H         7 CUB7        0.0000 
     51 DU         13.5300  -29.8700   19.7500 H         7 CUB7        0.0000 
     52 DU         16.2700  -31.0900   19.8100 H         7 CUB7        0.0000 
     53 DU         13.9100  -29.0800   18.5300 H         7 CUB7        0.0000 
@<TRIPOS>BOND
@<TRIPOS>SUBSTRUCTURE
     1 SER1        1 GROUP   
     2 ALA2        5 GROUP   
     3 ASP3        6 GROUP   
     4 LYS4       11 GROUP   
     5 PHE5       15 GROUP   
     6 GLY6       21 GROUP   
     7 CUB7       43 GROUP   
@<TRIPOS>SET

