#    Name: 6s83_3_MDN_CAVITY_N1_ALL
#    Modification time : Fri May 22 19:41:06 2020

@<TRIPOS>MOLECULE
6s83_3_MDN_CAVITY_N1_ALL
   99     0     6     0     0
SMALL
NO_CHARGES


@<TRIPOS>ATOM
      1 OG         -6.6800   -5.0500   22.2000 O.3       1 SER1        0.0000 
      2 OG         -5.3100   -5.6600   22.2300 O.3       1 SER1        0.0000 
      3 OG         -3.9400   -6.2700   22.2600 O.3       1 SER1        0.0000 
      4 OG         -9.2200   -3.1800   26.3200 O.3       1 SER1        0.0000 
      5 OG         -8.7400   -2.0600   27.2000 O.3       1 SER1        0.0000 
      6 OG         -1.7500   -1.3300   22.4500 O.3       1 SER1        0.0000 
      7 OG         -1.2700   -0.2100   23.3300 O.3       1 SER1        0.0000 
      8 OG         -2.2600    1.1900   22.0800 O.3       1 SER1        0.0000 
      9 OG         -3.5300    2.1300   24.1500 O.3       1 SER1        0.0000 
     10 OG         -2.1600    1.5200   24.1800 O.3       1 SER1        0.0000 
     11 OG         -3.1500    2.9200   22.9300 O.3       1 SER1        0.0000 
     12 OG         -0.4100    1.7000   22.9900 O.3       1 SER1        0.0000 
     13 OG         -1.4000    3.1000   21.7400 O.3       1 SER1        0.0000 
     14 O          -8.4300   -5.2300   23.3800 O.2       2 ALA2        0.0000 
     15 O          -6.9600   -5.5100   25.5100 O.2       2 ALA2        0.0000 
     16 O          -7.9500   -4.1100   24.2600 O.2       2 ALA2        0.0000 
     17 N          -7.2000   -2.5300   21.8300 N.am      2 ALA2        0.0000 
     18 N          -8.0900   -0.8000   22.6700 N.am      2 ALA2        0.0000 
     19 N          -6.7200   -1.4100   22.7000 N.am      2 ALA2        0.0000 
     20 N          -6.3400   -0.6200   21.4900 N.am      2 ALA2        0.0000 
     21 N          -5.9600    0.1700   20.2700 N.am      2 ALA2        0.0000 
     22 N          -7.6100    0.3200   23.5500 N.am      2 ALA2        0.0000 
     23 N          -7.2300    1.1100   22.3300 N.am      2 ALA2        0.0000 
     24 N          -5.8600    0.5000   22.3600 N.am      2 ALA2        0.0000 
     25 N          -6.8500    1.9000   21.1200 N.am      2 ALA2        0.0000 
     26 N          -5.4800    1.2900   21.1500 N.am      2 ALA2        0.0000 
     27 NZ         -6.3000   -4.2600   20.9800 N.4       3 LYS4        0.0000 
     28 NZ         -4.9300   -4.8700   21.0100 N.4       3 LYS4        0.0000 
     29 NZ         -3.5600   -5.4800   21.0400 N.4       3 LYS4        0.0000 
     30 NZ         -6.5800   -4.7200   24.2900 N.4       3 LYS4        0.0000 
     31 NZ         -5.2100   -5.3300   24.3200 N.4       3 LYS4        0.0000 
     32 NZ         -5.8300   -3.1400   21.8600 N.4       3 LYS4        0.0000 
     33 NZ         -4.4600   -3.7500   21.8900 N.4       3 LYS4        0.0000 
     34 NZ         -3.0800   -4.3600   21.9200 N.4       3 LYS4        0.0000 
     35 NZ         -7.4700   -2.9900   25.1400 N.4       3 LYS4        0.0000 
     36 NZ         -7.1000   -2.2000   23.9200 N.4       3 LYS4        0.0000 
     37 NZ         -5.7300   -2.8100   23.9500 N.4       3 LYS4        0.0000 
     38 NZ         -4.3600   -3.4200   23.9800 N.4       3 LYS4        0.0000 
     39 NZ         -5.3500   -2.0200   22.7300 N.4       3 LYS4        0.0000 
     40 NZ         -3.9800   -2.6300   22.7600 N.4       3 LYS4        0.0000 
     41 NZ         -4.9700   -1.2300   21.5200 N.4       3 LYS4        0.0000 
     42 NZ         -3.6000   -1.8400   21.5500 N.4       3 LYS4        0.0000 
     43 NZ         -2.2300   -2.4500   21.5800 N.4       3 LYS4        0.0000 
     44 NZ         -5.5800    0.9600   19.0500 N.4       3 LYS4        0.0000 
     45 NZ         -4.8700   -0.9000   23.6100 N.4       3 LYS4        0.0000 
     46 NZ         -3.5000   -1.5100   23.6400 N.4       3 LYS4        0.0000 
     47 NZ         -4.1100    0.6800   21.1800 N.4       3 LYS4        0.0000 
     48 NZ         -3.7300    1.4700   19.9600 N.4       3 LYS4        0.0000 
     49 NZ         -5.7600    0.8300   24.4600 N.4       3 LYS4        0.0000 
     50 NZ         -4.0100    1.0100   23.2700 N.4       3 LYS4        0.0000 
     51 NZ         -2.6400    0.4000   23.3000 N.4       3 LYS4        0.0000 
     52 NZ         -0.8900    0.5800   22.1100 N.4       3 LYS4        0.0000 
     53 NZ         -5.2800    1.9400   25.3300 N.4       3 LYS4        0.0000 
     54 CZ         -7.0600   -5.8400   23.4100 C.ar      4 PHE5        0.0000 
     55 CZ        -10.6900   -2.8900   24.2000 C.ar      4 PHE5        0.0000 
     56 CZ         -9.3200   -3.5000   24.2300 C.ar      4 PHE5        0.0000 
     57 CZ         -4.9000    2.7400   24.1200 C.ar      4 PHE5        0.0000 
     58 CZ         -4.5200    3.5300   22.9000 C.ar      4 PHE5        0.0000 
     59 CZ         -4.1400    4.3200   21.6800 C.ar      4 PHE5        0.0000 
     60 CZ         -2.7700    3.7100   21.7100 C.ar      4 PHE5        0.0000 
     61 CZ         -5.1400    5.7200   20.4300 C.ar      4 PHE5        0.0000 
     62 CZ         -5.7900    4.4600   24.9600 C.ar      4 PHE5        0.0000 
     63 CZ         -5.4100    5.2600   23.7500 C.ar      4 PHE5        0.0000 
     64 CA         -8.9400   -2.7100   23.0100 C.3       5 GLY6        0.0000 
     65 CA         -8.4700   -1.5900   23.8900 C.3       5 GLY6        0.0000 
     66 CA         -8.2200    2.5100   21.0900 C.3       5 GLY6        0.0000 
     67 CA         -2.7400    0.0700   21.2100 C.3       5 GLY6        0.0000 
     68 CA         -1.3700   -0.5400   21.2400 C.3       5 GLY6        0.0000 
     69 CA         -6.4700    2.6900   19.9000 C.3       5 GLY6        0.0000 
     70 CA         -5.1000    2.0800   19.9300 C.3       5 GLY6        0.0000 
     71 CA         -2.3600    0.8600   19.9900 C.3       5 GLY6        0.0000 
     72 CA         -4.7200    2.8700   18.7100 C.3       5 GLY6        0.0000 
     73 CA         -8.1200    2.8400   23.1800 C.3       5 GLY6        0.0000 
     74 CA         -7.7400    3.6300   21.9600 C.3       5 GLY6        0.0000 
     75 CA         -6.3700    3.0200   21.9900 C.3       5 GLY6        0.0000 
     76 CA         -5.9900    3.8100   20.7800 C.3       5 GLY6        0.0000 
     77 CA         -4.6200    3.2000   20.8100 C.3       5 GLY6        0.0000 
     78 CA         -3.2500    2.5900   20.8400 C.3       5 GLY6        0.0000 
     79 CA         -1.8800    1.9800   20.8700 C.3       5 GLY6        0.0000 
     80 CA         -0.5100    1.3700   20.9000 C.3       5 GLY6        0.0000 
     81 CA         -5.6100    4.6000   19.5600 C.3       5 GLY6        0.0000 
     82 CA         -4.2400    3.9900   19.5900 C.3       5 GLY6        0.0000 
     83 CA         -7.2600    4.7500   22.8400 C.3       5 GLY6        0.0000 
     84 CA         -5.5100    4.9300   21.6500 C.3       5 GLY6        0.0000 
     85 CA         -3.7700    5.1100   20.4700 C.3       5 GLY6        0.0000 
     86 DU         -7.5700   -3.3200   23.0400 H         6 CUB7        0.0000 
     87 DU         -6.2000   -3.9300   23.0700 H         6 CUB7        0.0000 
     88 DU         -4.8300   -4.5400   23.1000 H         6 CUB7        0.0000 
     89 DU         -3.4600   -5.1500   23.1300 H         6 CUB7        0.0000 
     90 DU         -8.8400   -2.3800   25.1100 H         6 CUB7        0.0000 
     91 DU         -6.2400   -0.2900   23.5800 H         6 CUB7        0.0000 
     92 DU         -4.4900   -0.1100   22.3900 H         6 CUB7        0.0000 
     93 DU         -3.1200   -0.7200   22.4200 H         6 CUB7        0.0000 
     94 DU         -6.7500    2.2300   23.2100 H         6 CUB7        0.0000 
     95 DU         -5.3800    1.6200   23.2400 H         6 CUB7        0.0000 
     96 DU         -5.0000    2.4100   22.0200 H         6 CUB7        0.0000 
     97 DU         -3.6300    1.8000   22.0500 H         6 CUB7        0.0000 
     98 DU         -6.2700    3.3500   24.0900 H         6 CUB7        0.0000 
     99 DU         -5.8900    4.1400   22.8700 H         6 CUB7        0.0000 
@<TRIPOS>BOND
@<TRIPOS>SUBSTRUCTURE
     1 SER1        1 GROUP   
     2 ALA2       14 GROUP   
     3 LYS4       27 GROUP   
     4 PHE5       54 GROUP   
     5 GLY6       64 GROUP   
     6 CUB7       86 GROUP   
@<TRIPOS>SET

