#    Name: 6s83_10_ACP_CAVITY_N1_4
#    Modification time : Fri May 22 19:41:37 2020

@<TRIPOS>MOLECULE
6s83_10_ACP_CAVITY_N1_4
   83     0     6     0     0
SMALL
NO_CHARGES


@<TRIPOS>ATOM
      1 OG         42.4700  -97.0100   33.1900 O.3       1 SER1        0.0000 
      2 OG         38.5600  -94.5200   37.2900 O.3       1 SER1        0.0000 
      3 OG         37.6700  -92.8000   38.1400 O.3       1 SER1        0.0000 
      4 OG         39.0400  -93.4100   38.1700 O.3       1 SER1        0.0000 
      5 OG         38.1500  -91.6800   39.0100 O.3       1 SER1        0.0000 
      6 OG         38.5300  -90.8900   37.8000 O.3       1 SER1        0.0000 
      7 OG         38.9100  -90.0900   36.5800 O.3       1 SER1        0.0000 
      8 OG         39.0100  -89.7700   38.6700 O.3       1 SER1        0.0000 
      9 OG         39.3900  -88.9800   37.4600 O.3       1 SER1        0.0000 
     10 OG         39.7600  -88.1800   36.2400 O.3       1 SER1        0.0000 
     11 OG         39.8600  -87.8600   38.3300 O.3       1 SER1        0.0000 
     12 OG         40.2400  -87.0700   37.1100 O.3       1 SER1        0.0000 
     13 OG         44.7300  -88.1000   35.9900 O.3       1 SER1        0.0000 
     14 OG         43.8400  -86.3700   36.8300 O.3       1 SER1        0.0000 
     15 OD1        40.6900  -93.5500   34.8900 O.co2     2 ASP3        0.0000 
     16 OD1        41.0700  -92.7600   33.6700 O.co2     2 ASP3        0.0000 
     17 OD1        41.1700  -92.4300   35.7600 O.co2     2 ASP3        0.0000 
     18 OD1        40.2800  -90.7000   36.6100 O.co2     2 ASP3        0.0000 
     19 OD1        41.6500  -91.3100   36.6400 O.co2     2 ASP3        0.0000 
     20 OD1        40.7600  -89.5900   37.4900 O.co2     2 ASP3        0.0000 
     21 OD1        41.1300  -88.7900   36.2700 O.co2     2 ASP3        0.0000 
     22 OD1        42.5000  -89.4000   36.3000 O.co2     2 ASP3        0.0000 
     23 OD1        41.5100  -88.0000   35.0500 O.co2     2 ASP3        0.0000 
     24 OD1        42.8800  -88.6100   35.0800 O.co2     2 ASP3        0.0000 
     25 OD1        41.9900  -86.8800   35.9300 O.co2     2 ASP3        0.0000 
     26 OD1        42.0900  -86.5600   38.0200 O.co2     2 ASP3        0.0000 
     27 NZ         39.5200  -92.2900   39.0400 N.4       3 LYS4        0.0000 
     28 NZ         40.3800  -90.3800   38.7000 N.4       3 LYS4        0.0000 
     29 NZ         41.7500  -90.9900   38.7300 N.4       3 LYS4        0.0000 
     30 NZ         44.2500  -89.2200   35.1100 N.4       3 LYS4        0.0000 
     31 NZ         40.8600  -89.2600   39.5800 N.4       3 LYS4        0.0000 
     32 NZ         42.2300  -89.8700   39.6100 N.4       3 LYS4        0.0000 
     33 CZ         40.3400  -97.9800   35.6000 C.ar      4 PHE5        0.0000 
     34 CZ         40.4400  -97.6500   37.6900 C.ar      4 PHE5        0.0000 
     35 CZ         39.4500  -96.2500   36.4400 C.ar      4 PHE5        0.0000 
     36 CZ         40.8200  -96.8600   36.4700 C.ar      4 PHE5        0.0000 
     37 CZ         40.5400  -97.3300   39.7800 C.ar      4 PHE5        0.0000 
     38 CZ         39.5500  -95.9300   38.5400 C.ar      4 PHE5        0.0000 
     39 CZ         40.9200  -96.5400   38.5700 C.ar      4 PHE5        0.0000 
     40 CZ         39.9300  -95.1300   37.3200 C.ar      4 PHE5        0.0000 
     41 CZ         40.0300  -94.8100   39.4100 C.ar      4 PHE5        0.0000 
     42 CA         40.9600 -100.1700   38.0600 C.3       5 GLY6        0.0000 
     43 CA         41.3400  -99.3800   36.8400 C.3       5 GLY6        0.0000 
     44 CA         41.7100  -98.5900   35.6300 C.3       5 GLY6        0.0000 
     45 CA         40.7200  -97.1900   34.3800 C.3       5 GLY6        0.0000 
     46 CA         42.0900  -97.8000   34.4100 C.3       5 GLY6        0.0000 
     47 CA         41.1000  -96.4000   33.1600 C.3       5 GLY6        0.0000 
     48 CA         41.4400  -99.0600   38.9400 C.3       5 GLY6        0.0000 
     49 CA         42.8100  -99.6600   38.9700 C.3       5 GLY6        0.0000 
     50 CA         41.8100  -98.2600   37.7200 C.3       5 GLY6        0.0000 
     51 CA         42.1900  -97.4700   36.5000 C.3       5 GLY6        0.0000 
     52 CA         39.8300  -95.4600   35.2300 C.3       5 GLY6        0.0000 
     53 CA         41.2000  -96.0700   35.2600 C.3       5 GLY6        0.0000 
     54 CA         42.5700  -96.6800   35.2900 C.3       5 GLY6        0.0000 
     55 CA         40.2100  -94.6700   34.0100 C.3       5 GLY6        0.0000 
     56 CA         41.5800  -95.2800   34.0400 C.3       5 GLY6        0.0000 
     57 CA         42.6700  -96.3500   37.3800 C.3       5 GLY6        0.0000 
     58 CA         38.9400  -93.7300   36.0700 C.3       5 GLY6        0.0000 
     59 CA         40.3100  -94.3400   36.1000 C.3       5 GLY6        0.0000 
     60 CA         39.3200  -92.9400   34.8600 C.3       5 GLY6        0.0000 
     61 CA         38.0500  -92.0100   36.9200 C.3       5 GLY6        0.0000 
     62 CA         39.4200  -92.6100   36.9500 C.3       5 GLY6        0.0000 
     63 CA         39.8000  -91.8200   35.7300 C.3       5 GLY6        0.0000 
     64 CA         39.4900  -88.6500   39.5500 C.3       5 GLY6        0.0000 
     65 DU         42.9500  -95.8900   34.0700 H         6 CUB7        0.0000 
     66 DU         42.2900  -97.1500   38.6000 H         6 CUB7        0.0000 
     67 DU         41.3000  -95.7400   37.3500 H         6 CUB7        0.0000 
     68 DU         41.6800  -94.9500   36.1300 H         6 CUB7        0.0000 
     69 DU         43.0500  -95.5600   36.1600 H         6 CUB7        0.0000 
     70 DU         42.0600  -94.1600   34.9200 H         6 CUB7        0.0000 
     71 DU         40.4100  -94.0200   38.2000 H         6 CUB7        0.0000 
     72 DU         40.7900  -93.2200   36.9800 H         6 CUB7        0.0000 
     73 DU         42.5400  -93.0400   35.7900 H         6 CUB7        0.0000 
     74 DU         39.9000  -91.5000   37.8300 H         6 CUB7        0.0000 
     75 DU         41.2700  -92.1100   37.8600 H         6 CUB7        0.0000 
     76 DU         42.1300  -90.2000   37.5200 H         6 CUB7        0.0000 
     77 DU         41.2300  -88.4700   38.3600 H         6 CUB7        0.0000 
     78 DU         42.6000  -89.0800   38.3900 H         6 CUB7        0.0000 
     79 DU         41.6100  -87.6800   37.1400 H         6 CUB7        0.0000 
     80 DU         42.9800  -88.2800   37.1700 H         6 CUB7        0.0000 
     81 DU         43.3600  -87.4900   35.9600 H         6 CUB7        0.0000 
     82 DU         41.7100  -87.3500   39.2400 H         6 CUB7        0.0000 
     83 DU         43.4600  -87.1700   38.0500 H         6 CUB7        0.0000 
@<TRIPOS>BOND
@<TRIPOS>SUBSTRUCTURE
     1 SER1        1 GROUP   
     2 ASP3       15 GROUP   
     3 LYS4       27 GROUP   
     4 PHE5       33 GROUP   
     5 GLY6       42 GROUP   
     6 CUB7       65 GROUP   
@<TRIPOS>SET

