#    Name: 6s83_7_ACP_CAVITY_N1_4
#    Modification time : Fri May 22 19:41:14 2020

@<TRIPOS>MOLECULE
6s83_7_ACP_CAVITY_N1_4
   64     0     7     0     0
SMALL
NO_CHARGES


@<TRIPOS>ATOM
      1 OG         17.3100  -15.5200   63.5400 O.3       1 SER1        0.0000 
      2 OG         19.0600  -15.3400   62.3500 O.3       1 SER1        0.0000 
      3 OG         19.1600  -15.0100   64.4400 O.3       1 SER1        0.0000 
      4 OG         20.5300  -15.6200   64.4700 O.3       1 SER1        0.0000 
      5 OG         22.6100  -18.0900   69.0600 O.3       1 SER1        0.0000 
      6 OG         19.6400  -13.8900   65.3200 O.3       1 SER1        0.0000 
      7 O          23.9800  -18.7000   69.0900 O.2       2 ALA2        0.0000 
      8 OD1        17.9200  -17.7100   66.0000 O.co2     3 ASP3        0.0000 
      9 OD1        16.9300  -16.3100   64.7500 O.co2     3 ASP3        0.0000 
     10 OD1        18.3000  -16.9200   64.7800 O.co2     3 ASP3        0.0000 
     11 OD1        19.3900  -17.9900   68.1200 O.co2     3 ASP3        0.0000 
     12 OD1        19.7700  -17.2000   66.9100 O.co2     3 ASP3        0.0000 
     13 OD1        18.7800  -15.8000   65.6600 O.co2     3 ASP3        0.0000 
     14 NZ         16.8300  -16.6400   62.6600 N.4       4 LYS4        0.0000 
     15 NZ         18.2000  -17.2500   62.6900 N.4       4 LYS4        0.0000 
     16 NZ         19.5700  -17.8600   62.7200 N.4       4 LYS4        0.0000 
     17 NZ         18.6800  -16.1300   63.5700 N.4       4 LYS4        0.0000 
     18 NZ         20.4300  -15.9500   62.3800 N.4       4 LYS4        0.0000 
     19 NZ         17.7900  -14.4000   64.4100 N.4       4 LYS4        0.0000 
     20 CZ         21.8000  -16.5600   62.4100 C.ar      5 PHE5        0.0000 
     21 CZ         23.1700  -17.1700   62.4400 C.ar      5 PHE5        0.0000 
     22 CZ         21.9000  -16.2300   64.5000 C.ar      5 PHE5        0.0000 
     23 CZ         23.2700  -16.8400   64.5300 C.ar      5 PHE5        0.0000 
     24 CZ         22.2800  -15.4400   63.2900 C.ar      5 PHE5        0.0000 
     25 CZ         23.6500  -16.0500   63.3200 C.ar      5 PHE5        0.0000 
     26 CZ         25.0200  -16.6600   63.3500 C.ar      5 PHE5        0.0000 
     27 CZ         21.0100  -14.5000   65.3500 C.ar      5 PHE5        0.0000 
     28 CZ         22.3800  -15.1100   65.3800 C.ar      5 PHE5        0.0000 
     29 CZ         23.7500  -15.7200   65.4100 C.ar      5 PHE5        0.0000 
     30 CA         22.0300  -19.5400   66.0900 C.3       6 GLY6        0.0000 
     31 CA         22.4100  -18.7500   64.8700 C.3       6 GLY6        0.0000 
     32 CA         23.7800  -19.3600   64.9000 C.3       6 GLY6        0.0000 
     33 CA         24.1600  -18.5700   63.6900 C.3       6 GLY6        0.0000 
     34 CA         25.5300  -19.1800   63.7200 C.3       6 GLY6        0.0000 
     35 CA         22.1300  -19.2100   68.1800 C.3       6 GLY6        0.0000 
     36 CA         22.5100  -18.4200   66.9700 C.3       6 GLY6        0.0000 
     37 CA         22.8900  -17.6300   65.7500 C.3       6 GLY6        0.0000 
     38 CA         24.6400  -17.4500   64.5600 C.3       6 GLY6        0.0000 
     39 CA         21.2400  -17.4800   69.0300 C.3       6 GLY6        0.0000 
     40 CA         18.8800  -15.4700   67.7500 C.3       6 GLY6        0.0000 
     41 CA         20.2500  -16.0800   67.7800 C.3       6 GLY6        0.0000 
     42 CA         21.6200  -16.6900   67.8100 C.3       6 GLY6        0.0000 
     43 CA         22.9900  -17.3000   67.8400 C.3       6 GLY6        0.0000 
     44 CA         24.3600  -17.9100   67.8700 C.3       6 GLY6        0.0000 
     45 CA         17.8900  -14.0700   66.5100 C.3       6 GLY6        0.0000 
     46 CA         19.2600  -14.6800   66.5400 C.3       6 GLY6        0.0000 
     47 CA         20.6300  -15.2900   66.5700 C.3       6 GLY6        0.0000 
     48 CA         22.0000  -15.9000   66.6000 C.3       6 GLY6        0.0000 
     49 CA         23.3700  -16.5100   66.6300 C.3       6 GLY6        0.0000 
     50 CA         23.4700  -16.1800   68.7200 C.3       6 GLY6        0.0000 
     51 CA         23.8500  -15.3900   67.5000 C.3       6 GLY6        0.0000 
     52 DU         17.8200  -18.0400   63.9100 H         7 CUB7        0.0000 
     53 DU         19.1900  -18.6500   63.9400 H         7 CUB7        0.0000 
     54 DU         19.2900  -18.3200   66.0300 H         7 CUB7        0.0000 
     55 DU         20.6600  -18.9300   66.0600 H         7 CUB7        0.0000 
     56 DU         19.6700  -17.5300   64.8100 H         7 CUB7        0.0000 
     57 DU         20.0500  -16.7400   63.6000 H         7 CUB7        0.0000 
     58 DU         21.4200  -17.3500   63.6300 H         7 CUB7        0.0000 
     59 DU         22.7900  -17.9600   63.6600 H         7 CUB7        0.0000 
     60 DU         24.5400  -17.7800   62.4700 H         7 CUB7        0.0000 
     61 DU         20.7600  -18.6000   68.1500 H         7 CUB7        0.0000 
     62 DU         21.1400  -17.8100   66.9400 H         7 CUB7        0.0000 
     63 DU         20.1500  -16.4100   65.6900 H         7 CUB7        0.0000 
     64 DU         21.5200  -17.0200   65.7200 H         7 CUB7        0.0000 
@<TRIPOS>BOND
@<TRIPOS>SUBSTRUCTURE
     1 SER1        1 GROUP   
     2 ALA2        7 GROUP   
     3 ASP3        8 GROUP   
     4 LYS4       14 GROUP   
     5 PHE5       20 GROUP   
     6 GLY6       30 GROUP   
     7 CUB7       52 GROUP   
@<TRIPOS>SET

