#    Name: 6s83_10_ACP
#    Modification time : Fri May 22 19:41:36 2020

@<TRIPOS>MOLECULE
6s83_10_ACP
   45    47     1     0     1
SMALL
NO_CHARGES


@<TRIPOS>ATOM
      1 PG         40.3510  -86.6070   35.9020 P.3       1 ACP504      0.0000 
      2 O1G        39.5920  -87.8980   36.0960 O.co2     1 ACP504      0.0000 
      3 O2G        39.6360  -85.4710   36.5950 O.co2     1 ACP504      0.0000 
      4 O3G        40.4730  -86.3090   34.4250 O.co2     1 ACP504      0.0000 
      5 PB         43.1520  -87.6320   35.3810 P.3       1 ACP504      0.0000 
      6 O1B        44.5620  -87.1320   35.5710 O.co2     1 ACP504      0.0000 
      7 O2B        42.6850  -87.2830   33.9850 O.co2     1 ACP504      0.0000 
      8 C3B        42.0510  -86.7990   36.6260 C.3       1 ACP504      0.0000 
      9 PA         43.5350  -90.0320   37.0090 P.3       1 ACP504      0.0000 
     10 O1A        43.7240  -89.0300   38.1250 O.co2     1 ACP504      0.0000 
     11 O2A        44.8240  -90.7950   36.8050 O.co2     1 ACP504      0.0000 
     12 O3A        43.1030  -89.2660   35.6100 O.3       1 ACP504      0.0000 
     13 O5'        42.3370  -91.0890   37.4170 O.3       1 ACP504      0.0000 
     14 C5'        41.3390  -90.6730   38.3080 C.3       1 ACP504      0.0000 
     15 C4'        39.9480  -91.0780   37.7480 C.3       1 ACP504      0.0000 
     16 O4'        40.0300  -92.2300   37.1320 O.3       1 ACP504      0.0000 
     17 C3'        38.9270  -91.2900   38.8850 C.3       1 ACP504      0.0000 
     18 O3'        38.2210  -90.1510   39.1110 O.3       1 ACP504      0.0000 
     19 C2'        38.0150  -92.3980   38.3310 C.3       1 ACP504      0.0000 
     20 O2'        37.0030  -91.7980   37.4100 O.3       1 ACP504      0.0000 
     21 C1'        38.8210  -93.1770   37.6530 C.3       1 ACP504      0.0000 
     22 N9         39.3690  -94.2600   38.4420 N.pl3     1 ACP504      0.0000 
     23 C8         39.5400  -94.3440   39.7670 C.2       1 ACP504      0.0000 
     24 N7         40.0850  -95.5290   40.0450 N.2       1 ACP504      0.0000 
     25 C5         40.2600  -96.1850   38.8910 C.ar      1 ACP504      0.0000 
     26 C6         40.7780  -97.4300   38.6090 C.ar      1 ACP504      0.0000 
     27 N6         41.3220  -98.4880   39.4400 N.pl3     1 ACP504      0.0000 
     28 N1         40.8420  -97.8530   37.3570 N.ar      1 ACP504      0.0000 
     29 C2         40.3960  -97.0600   36.3530 C.ar      1 ACP504      0.0000 
     30 N3         39.8860  -95.8380   36.6300 N.ar      1 ACP504      0.0000 
     31 C4         39.8210  -95.4040   37.9020 C.ar      1 ACP504      0.0000 
     32 H3B1       42.0020  -87.3400   37.4290 H         1 ACP504      0.0000 
     33 H3B2       42.4110  -85.9250   36.8450 H         1 ACP504      0.0000 
     34 H5'1       41.3780  -89.7100   38.4110 H         1 ACP504      0.0000 
     35 H5'2       41.4770  -91.0970   39.1690 H         1 ACP504      0.0000 
     36 H4'        39.6220  -90.4000   37.1350 H         1 ACP504      0.0000 
     37 H3'        39.3740  -91.5880   39.6920 H         1 ACP504      0.0000 
     38 HO3'       38.7480  -89.5380   39.3710 H         1 ACP504      0.0000 
     39 H2'        37.5890  -92.8870   39.0530 H         1 ACP504      0.0000 
     40 HO2'       36.5670  -91.1950   37.8220 H         1 ACP504      0.0000 
     41 H1'        38.3460  -93.5390   36.8890 H         1 ACP504      0.0000 
     42 H8         39.3120  -93.6900   40.3880 H         1 ACP504      0.0000 
     43 HN61       42.0820  -98.8410   39.2440 H         1 ACP504      0.0000 
     44 HN62       40.8850  -98.7620   40.1280 H         1 ACP504      0.0000 
     45 H2         40.4390  -97.3570   35.4730 H         1 ACP504      0.0000 
@<TRIPOS>BOND
     1    1    2 ar   
     2    1    3 ar   
     3    1    4 ar   
     4    1    8 1    
     5    5    6 ar   
     6    5    7 ar   
     7    5    8 1    
     8    5   12 1    
     9    8   32 1    
    10    8   33 1    
    11    9   10 ar   
    12    9   11 ar   
    13    9   12 1    
    14    9   13 1    
    15   13   14 1    
    16   14   15 1    
    17   14   34 1    
    18   14   35 1    
    19   15   16 1    
    20   15   17 1    
    21   15   36 1    
    22   16   21 1    
    23   17   18 1    
    24   17   19 1    
    25   17   37 1    
    26   18   38 1    
    27   19   20 1    
    28   19   21 1    
    29   19   39 1    
    30   21   41 1    
    31   21   22 1    
    32   20   40 1    
    33   22   23 1    
    34   22   31 1    
    35   23   24 2    
    36   24   25 1    
    37   23   42 1    
    38   25   26 ar   
    39   25   31 ar   
    40   26   27 1    
    41   26   28 ar   
    42   28   29 ar   
    43   27   43 1    
    44   27   44 1    
    45   29   30 ar   
    46   30   31 ar   
    47   29   45 1    
@<TRIPOS>SUBSTRUCTURE
     1 ACP504      1 GROUP   
@<TRIPOS>SET
ATOM$ORANGE STATIC     ATOMS   COLORGROUP SYSTEM 
22 8 8 14 14 15 15 17 17 19 19 21 21 23 23 25 25 26 \
26 29 29 31 31 

