#    Name: 6s83_3_MDN
#    Modification time : Fri May 22 19:41:05 2020

@<TRIPOS>MOLECULE
6s83_3_MDN
   11    10     1     0     0
SMALL
NO_CHARGES


@<TRIPOS>ATOM
      1 O3         -0.8820   -3.3580   20.5020 O.co2     1 MDN501      0.0000 
      2 P1         -1.0810   -4.8760   20.5080 P.3       1 MDN501      0.0000 
      3 O1         -1.3490   -5.3380   19.0640 O.co2     1 MDN501      0.0000 
      4 O2          0.1290   -5.6550   21.0270 O.co2     1 MDN501      0.0000 
      5 C4         -2.6040   -5.3410   21.4900 C.3       1 MDN501      0.0000 
      6 P5         -3.0650   -7.1160   21.8920 P.3       1 MDN501      0.0000 
      7 O6         -3.1950   -7.8310   20.5320 O.co2     1 MDN501      0.0000 
      8 O7         -4.4230   -7.1790   22.5980 O.co2     1 MDN501      0.0000 
      9 O8         -1.9440   -7.8010   22.6820 O.co2     1 MDN501      0.0000 
     10 H41        -3.3720   -4.9200   21.0730 H         1 MDN501      0.0000 
     11 H42        -2.5800   -4.8420   22.3210 H         1 MDN501      0.0000 
@<TRIPOS>BOND
     1    1    2 ar   
     2    2    3 ar   
     3    2    4 ar   
     4    2    5 1    
     5    5    6 1    
     6    5   10 1    
     7    5   11 1    
     8    6    7 ar   
     9    6    8 ar   
    10    6    9 ar   
@<TRIPOS>SUBSTRUCTURE
     1 MDN501      1 GROUP   
@<TRIPOS>SET

