#    Name: 6s83_3_MDN_CAVITY_N1_6
#    Modification time : Fri May 22 19:41:06 2020

@<TRIPOS>MOLECULE
6s83_3_MDN_CAVITY_N1_6
   47     0     6     0     0
SMALL
NO_CHARGES


@<TRIPOS>ATOM
      1 OG         -6.6800   -5.0500   22.2000 O.3       1 SER1        0.0000 
      2 OG         -5.3100   -5.6600   22.2300 O.3       1 SER1        0.0000 
      3 OG         -3.9400   -6.2700   22.2600 O.3       1 SER1        0.0000 
      4 OG         -1.7500   -1.3300   22.4500 O.3       1 SER1        0.0000 
      5 OG         -1.2700   -0.2100   23.3300 O.3       1 SER1        0.0000 
      6 OG         -2.2600    1.1900   22.0800 O.3       1 SER1        0.0000 
      7 OG         -0.4100    1.7000   22.9900 O.3       1 SER1        0.0000 
      8 O          -8.4300   -5.2300   23.3800 O.2       2 ALA2        0.0000 
      9 O          -6.9600   -5.5100   25.5100 O.2       2 ALA2        0.0000 
     10 O          -7.9500   -4.1100   24.2600 O.2       2 ALA2        0.0000 
     11 N          -7.2000   -2.5300   21.8300 N.am      2 ALA2        0.0000 
     12 N          -6.7200   -1.4100   22.7000 N.am      2 ALA2        0.0000 
     13 NZ         -6.3000   -4.2600   20.9800 N.4       3 LYS4        0.0000 
     14 NZ         -4.9300   -4.8700   21.0100 N.4       3 LYS4        0.0000 
     15 NZ         -3.5600   -5.4800   21.0400 N.4       3 LYS4        0.0000 
     16 NZ         -6.5800   -4.7200   24.2900 N.4       3 LYS4        0.0000 
     17 NZ         -5.2100   -5.3300   24.3200 N.4       3 LYS4        0.0000 
     18 NZ         -5.8300   -3.1400   21.8600 N.4       3 LYS4        0.0000 
     19 NZ         -4.4600   -3.7500   21.8900 N.4       3 LYS4        0.0000 
     20 NZ         -3.0800   -4.3600   21.9200 N.4       3 LYS4        0.0000 
     21 NZ         -7.4700   -2.9900   25.1400 N.4       3 LYS4        0.0000 
     22 NZ         -7.1000   -2.2000   23.9200 N.4       3 LYS4        0.0000 
     23 NZ         -5.7300   -2.8100   23.9500 N.4       3 LYS4        0.0000 
     24 NZ         -4.3600   -3.4200   23.9800 N.4       3 LYS4        0.0000 
     25 NZ         -5.3500   -2.0200   22.7300 N.4       3 LYS4        0.0000 
     26 NZ         -3.9800   -2.6300   22.7600 N.4       3 LYS4        0.0000 
     27 NZ         -4.9700   -1.2300   21.5200 N.4       3 LYS4        0.0000 
     28 NZ         -3.6000   -1.8400   21.5500 N.4       3 LYS4        0.0000 
     29 NZ         -2.2300   -2.4500   21.5800 N.4       3 LYS4        0.0000 
     30 NZ         -4.8700   -0.9000   23.6100 N.4       3 LYS4        0.0000 
     31 NZ         -3.5000   -1.5100   23.6400 N.4       3 LYS4        0.0000 
     32 NZ         -4.1100    0.6800   21.1800 N.4       3 LYS4        0.0000 
     33 NZ         -3.7300    1.4700   19.9600 N.4       3 LYS4        0.0000 
     34 NZ         -2.6400    0.4000   23.3000 N.4       3 LYS4        0.0000 
     35 NZ         -0.8900    0.5800   22.1100 N.4       3 LYS4        0.0000 
     36 CZ         -7.0600   -5.8400   23.4100 C.ar      4 PHE5        0.0000 
     37 CA         -2.7400    0.0700   21.2100 C.3       5 GLY6        0.0000 
     38 CA         -1.3700   -0.5400   21.2400 C.3       5 GLY6        0.0000 
     39 CA         -2.3600    0.8600   19.9900 C.3       5 GLY6        0.0000 
     40 CA         -1.8800    1.9800   20.8700 C.3       5 GLY6        0.0000 
     41 CA         -0.5100    1.3700   20.9000 C.3       5 GLY6        0.0000 
     42 DU         -7.5700   -3.3200   23.0400 H         6 CUB7        0.0000 
     43 DU         -6.2000   -3.9300   23.0700 H         6 CUB7        0.0000 
     44 DU         -4.8300   -4.5400   23.1000 H         6 CUB7        0.0000 
     45 DU         -3.4600   -5.1500   23.1300 H         6 CUB7        0.0000 
     46 DU         -4.4900   -0.1100   22.3900 H         6 CUB7        0.0000 
     47 DU         -3.1200   -0.7200   22.4200 H         6 CUB7        0.0000 
@<TRIPOS>BOND
@<TRIPOS>SUBSTRUCTURE
     1 SER1        1 GROUP   
     2 ALA2        8 GROUP   
     3 LYS4       13 GROUP   
     4 PHE5       36 GROUP   
     5 GLY6       37 GROUP   
     6 CUB7       42 GROUP   
@<TRIPOS>SET

