#    Name: 6s83_8_ACP
#    Modification time : Fri May 22 19:41:21 2020

@<TRIPOS>MOLECULE
6s83_8_ACP
   45    47     1     0     1
SMALL
NO_CHARGES


@<TRIPOS>ATOM
      1 PG         10.5500  -23.5960   20.7030 P.3       1 ACP503      0.0000 
      2 O1G         9.4880  -22.8080   21.4340 O.co2     1 ACP503      0.0000 
      3 O2G        10.3790  -23.4210   19.2110 O.co2     1 ACP503      0.0000 
      4 O3G        10.4290  -25.0580   21.0620 O.co2     1 ACP503      0.0000 
      5 PB         13.5090  -23.7880   20.0820 P.3       1 ACP503      0.0000 
      6 O1B        14.8130  -23.0330   20.1770 O.co2     1 ACP503      0.0000 
      7 O2B        13.0280  -23.7460   18.6500 O.co2     1 ACP503      0.0000 
      8 C3B        12.2420  -22.9890   21.1860 C.3       1 ACP503      0.0000 
      9 PA         14.3460  -25.8390   21.9940 P.3       1 ACP503      0.0000 
     10 O1A        13.9600  -24.8640   23.0820 O.co2     1 ACP503      0.0000 
     11 O2A        15.8520  -25.9180   21.9090 O.co2     1 ACP503      0.0000 
     12 O3A        13.7310  -25.3580   20.5390 O.3       1 ACP503      0.0000 
     13 O5'        13.7390  -27.3310   22.3500 O.3       1 ACP503      0.0000 
     14 C5'        12.6640  -27.4370   23.2420 C.3       1 ACP503      0.0000 
     15 C4'        11.4940  -28.1820   22.5460 C.3       1 ACP503      0.0000 
     16 O4'        11.9570  -29.1840   21.8430 O.3       1 ACP503      0.0000 
     17 C3'        10.5450  -28.7940   23.5970 C.3       1 ACP503      0.0000 
     18 O3'         9.4690  -27.9890   23.7920 O.3       1 ACP503      0.0000 
     19 C2'        10.1190  -30.1320   22.9680 C.3       1 ACP503      0.0000 
     20 O2'         8.9640  -29.9170   22.0440 O.3       1 ACP503      0.0000 
     21 C1'        11.1630  -30.5260   22.2840 C.3       1 ACP503      0.0000 
     22 N9         12.0420  -31.3790   23.0530 N.pl3     1 ACP503      0.0000 
     23 C8         12.3170  -31.3530   24.3620 C.2       1 ACP503      0.0000 
     24 N7         13.1880  -32.3290   24.6270 N.2       1 ACP503      0.0000 
     25 C5         13.4610  -32.9610   23.4790 C.ar      1 ACP503      0.0000 
     26 C6         14.2860  -34.0250   23.1840 C.ar      1 ACP503      0.0000 
     27 N6         15.1600  -34.8600   23.9860 N.pl3     1 ACP503      0.0000 
     28 N1         14.3760  -34.4640   21.9400 N.ar      1 ACP503      0.0000 
     29 C2         13.6600  -33.8700   20.9560 C.ar      1 ACP503      0.0000 
     30 N3         12.8520  -32.8260   21.2440 N.ar      1 ACP503      0.0000 
     31 C4         12.7570  -32.3750   22.5080 C.ar      1 ACP503      0.0000 
     32 H3B1       12.2830  -22.0250   21.0830 H         1 ACP503      0.0000 
     33 H3B2       12.4200  -23.2250   22.1100 H         1 ACP503      0.0000 
     34 H5'1       12.3720  -26.5500   23.5050 H         1 ACP503      0.0000 
     35 H5'2       12.9420  -27.9320   24.0280 H         1 ACP503      0.0000 
     36 H4'        11.0030  -27.5750   21.9710 H         1 ACP503      0.0000 
     37 H3'        11.0170  -28.9470   24.4300 H         1 ACP503      0.0000 
     38 HO3'        9.6500  -27.4160   24.3930 H         1 ACP503      0.0000 
     39 H2'         9.8990  -30.7780   23.6570 H         1 ACP503      0.0000 
     40 HO2'        8.3890  -30.5310   22.1620 H         1 ACP503      0.0000 
     41 H1'        10.8650  -30.9970   21.4900 H         1 ACP503      0.0000 
     42 H8         11.9570  -30.7600   24.9820 H         1 ACP503      0.0000 
     43 HN61       15.3870  -34.6100   24.7770 H         1 ACP503      0.0000 
     44 HN62       15.4510  -35.6050   23.6710 H         1 ACP503      0.0000 
     45 H2         13.7250  -34.1800   20.0810 H         1 ACP503      0.0000 
@<TRIPOS>BOND
     1    1    2 ar   
     2    1    3 ar   
     3    1    4 ar   
     4    1    8 1    
     5    5    6 ar   
     6    5    7 ar   
     7    5    8 1    
     8    5   12 1    
     9    8   32 1    
    10    8   33 1    
    11    9   10 ar   
    12    9   11 ar   
    13    9   12 1    
    14    9   13 1    
    15   13   14 1    
    16   14   15 1    
    17   14   34 1    
    18   14   35 1    
    19   15   16 1    
    20   15   17 1    
    21   15   36 1    
    22   16   21 1    
    23   17   18 1    
    24   17   19 1    
    25   17   37 1    
    26   18   38 1    
    27   19   20 1    
    28   19   21 1    
    29   19   39 1    
    30   21   41 1    
    31   21   22 1    
    32   20   40 1    
    33   22   23 1    
    34   22   31 1    
    35   23   24 2    
    36   24   25 1    
    37   23   42 1    
    38   25   26 ar   
    39   25   31 ar   
    40   26   27 1    
    41   26   28 ar   
    42   28   29 ar   
    43   27   43 1    
    44   27   44 1    
    45   29   30 ar   
    46   30   31 ar   
    47   29   45 1    
@<TRIPOS>SUBSTRUCTURE
     1 ACP503      1 GROUP   
@<TRIPOS>SET
ATOM$ORANGE STATIC     ATOMS   COLORGROUP SYSTEM 
22 8 8 14 14 15 15 17 17 19 19 21 21 23 23 25 25 26 \
26 29 29 31 31 

