#    Name: 6s83_2_SAM_CAVITY_N1_6
#    Modification time : Fri May 22 19:40:58 2020

@<TRIPOS>MOLECULE
6s83_2_SAM_CAVITY_N1_6
   71     0     7     0     0
SMALL
NO_CHARGES


@<TRIPOS>ATOM
      1 OG        -15.4400  -15.4400   60.7900 O.3       1 SER1        0.0000 
      2 OG        -14.0700  -16.0500   60.8200 O.3       1 SER1        0.0000 
      3 OG        -13.5900  -14.9300   61.7000 O.3       1 SER1        0.0000 
      4 OG        -10.0300  -10.6000   61.9200 O.3       1 SER1        0.0000 
      5 OG        -12.0100   -7.8000   59.4300 O.3       1 SER1        0.0000 
      6 OG        -10.9200   -8.8800   62.7700 O.3       1 SER1        0.0000 
      7 N         -13.6300  -11.3000   62.2000 N.am      2 ALA2        0.0000 
      8 N         -11.5000  -10.3200   59.8000 N.am      2 ALA2        0.0000 
      9 N          -9.7500  -10.1400   58.6100 N.am      2 ALA2        0.0000 
     10 N         -12.7700   -9.3900   61.8600 N.am      2 ALA2        0.0000 
     11 O         -10.6400   -8.4100   59.4600 O.2       2 ALA2        0.0000 
     12 O          -9.2700   -9.0200   59.4900 O.2       2 ALA2        0.0000 
     13 O         -12.2900   -8.2700   62.7400 O.2       2 ALA2        0.0000 
     14 O         -11.9100   -7.4800   61.5200 O.2       2 ALA2        0.0000 
     15 O         -10.5400   -8.0800   61.5500 O.2       2 ALA2        0.0000 
     16 OD1       -13.4900  -14.6100   63.7900 O.co2     3 ASP3        0.0000 
     17 OD1       -12.1200  -15.2200   63.8200 O.co2     3 ASP3        0.0000 
     18 NZ        -17.8000  -13.4300   59.5100 N.4       4 LYS4        0.0000 
     19 NZ        -12.2200  -15.5400   61.7300 N.4       4 LYS4        0.0000 
     20 NZ        -20.0600  -11.0900   60.3300 N.4       4 LYS4        0.0000 
     21 NZ        -18.6900  -11.7000   60.3600 N.4       4 LYS4        0.0000 
     22 NZ        -14.4800  -13.2100   62.5400 N.4       4 LYS4        0.0000 
     23 NZ        -13.1100  -13.8200   62.5700 N.4       4 LYS4        0.0000 
     24 NZ        -11.7400  -14.4200   62.6000 N.4       4 LYS4        0.0000 
     25 NZ        -11.3600  -13.6300   61.3900 N.4       4 LYS4        0.0000 
     26 NZ        -14.0000  -12.0900   63.4200 N.4       4 LYS4        0.0000 
     27 NZ        -12.6300  -12.7000   63.4500 N.4       4 LYS4        0.0000 
     28 NZ         -9.8900  -13.9200   63.5100 N.4       4 LYS4        0.0000 
     29 NZ        -12.2600  -11.9100   62.2300 N.4       4 LYS4        0.0000 
     30 NZ        -10.8900  -12.5100   62.2600 N.4       4 LYS4        0.0000 
     31 NZ         -9.5200  -13.1200   62.2900 N.4       4 LYS4        0.0000 
     32 NZ        -10.5100  -11.7200   61.0400 N.4       4 LYS4        0.0000 
     33 NZ        -10.1300  -10.9300   59.8300 N.4       4 LYS4        0.0000 
     34 NZ        -11.7800  -10.7900   63.1100 N.4       4 LYS4        0.0000 
     35 NZ        -10.4100  -11.4000   63.1400 N.4       4 LYS4        0.0000 
     36 NZ         -9.0400  -12.0100   63.1700 N.4       4 LYS4        0.0000 
     37 NZ         -8.6600  -11.2100   61.9500 N.4       4 LYS4        0.0000 
     38 NZ         -9.6500   -9.8100   60.7000 N.4       4 LYS4        0.0000 
     39 CZ        -19.9300  -14.4100   61.9200 C.ar      5 PHE5        0.0000 
     40 CZ        -19.5500  -13.6100   60.7000 C.ar      5 PHE5        0.0000 
     41 CZ        -18.1800  -14.2200   60.7300 C.ar      5 PHE5        0.0000 
     42 CZ        -16.8100  -14.8300   60.7600 C.ar      5 PHE5        0.0000 
     43 CZ        -16.4300  -14.0400   59.5400 C.ar      5 PHE5        0.0000 
     44 CZ        -16.7100  -14.5100   62.8500 C.ar      5 PHE5        0.0000 
     45 CA        -21.3000  -13.8000   61.8900 C.3       6 GLY6        0.0000 
     46 CA        -20.9200  -13.0100   60.6700 C.3       6 GLY6        0.0000 
     47 CA        -15.0600  -14.6500   59.5700 C.3       6 GLY6        0.0000 
     48 CA        -19.4500  -13.2900   62.7900 C.3       6 GLY6        0.0000 
     49 CA        -18.0800  -13.9000   62.8200 C.3       6 GLY6        0.0000 
     50 CA        -15.3400  -15.1200   62.8800 C.3       6 GLY6        0.0000 
     51 CA        -13.9700  -15.7300   62.9100 C.3       6 GLY6        0.0000 
     52 CA        -20.4400  -11.8900   61.5400 C.3       6 GLY6        0.0000 
     53 CA        -19.0700  -12.5000   61.5700 C.3       6 GLY6        0.0000 
     54 CA        -17.7000  -13.1100   61.6100 C.3       6 GLY6        0.0000 
     55 CA        -16.3300  -13.7200   61.6400 C.3       6 GLY6        0.0000 
     56 CA        -15.9500  -12.9200   60.4200 C.3       6 GLY6        0.0000 
     57 CA        -14.5800  -13.5300   60.4500 C.3       6 GLY6        0.0000 
     58 CA        -13.2100  -14.1400   60.4800 C.3       6 GLY6        0.0000 
     59 CA        -18.5900  -11.3800   62.4500 C.3       6 GLY6        0.0000 
     60 CA        -17.2200  -11.9900   62.4800 C.3       6 GLY6        0.0000 
     61 CA        -15.8500  -12.6000   62.5100 C.3       6 GLY6        0.0000 
     62 CA        -14.1000  -12.4100   61.3200 C.3       6 GLY6        0.0000 
     63 CA        -12.7300  -13.0200   61.3600 C.3       6 GLY6        0.0000 
     64 CA        -12.3600  -12.2300   60.1400 C.3       6 GLY6        0.0000 
     65 CA        -11.8800  -11.1100   61.0100 C.3       6 GLY6        0.0000 
     66 CA        -12.4900   -8.9200   58.5500 C.3       6 GLY6        0.0000 
     67 CA        -13.7600   -7.9800   60.6100 C.3       6 GLY6        0.0000 
     68 CA        -12.3900   -8.5900   60.6400 C.3       6 GLY6        0.0000 
     69 DU        -14.9600  -14.3200   61.6700 H         7 CUB7        0.0000 
     70 DU        -11.4000   -9.9900   61.8900 H         7 CUB7        0.0000 
     71 DU        -11.0200   -9.2000   60.6700 H         7 CUB7        0.0000 
@<TRIPOS>BOND
@<TRIPOS>SUBSTRUCTURE
     1 SER1        1 GROUP   
     2 ALA2        7 GROUP   
     3 ASP3       16 GROUP   
     4 LYS4       18 GROUP   
     5 PHE5       39 GROUP   
     6 GLY6       45 GROUP   
     7 CUB7       69 GROUP   
@<TRIPOS>SET

