#    Name: 6s83_2_SAM
#    Modification time : Fri May 22 19:40:57 2020

@<TRIPOS>MOLECULE
6s83_2_SAM
   49    51     1     0     0
SMALL
NO_CHARGES


@<TRIPOS>ATOM
      1 N          -9.6950  -10.3280   59.3350 N.4       1 SAM503      0.0000 
      2 CA        -10.9560   -9.6450   59.6060 C.3       1 SAM503      0.0000 
      3 C         -10.8330   -8.1540   59.3030 C.2       1 SAM503      0.0000 
      4 O         -10.0550   -7.7440   58.4430 O.co2     1 SAM503      0.0000 
      5 OXT       -11.5180   -7.3280   59.9080 O.co2     1 SAM503      0.0000 
      6 CB        -11.4040   -9.8380   61.0530 C.3       1 SAM503      0.0000 
      7 CG        -11.0770  -11.1730   61.7170 C.3       1 SAM503      0.0000 
      8 SD        -12.4140  -12.3870   61.5750 S.3       1 SAM503      0.0000 
      9 CE        -13.5910  -11.6860   62.7600 C.3       1 SAM503      0.0000 
     10 C5'       -11.6360  -13.7060   62.5440 C.3       1 SAM503      0.0000 
     11 C4'       -12.4580  -14.9750   62.7230 C.3       1 SAM503      0.0000 
     12 O4'       -13.7780  -14.6800   63.1330 O.3       1 SAM503      0.0000 
     13 C3'       -12.5660  -15.8020   61.4560 C.3       1 SAM503      0.0000 
     14 O3'       -11.5280  -16.7460   61.3770 O.3       1 SAM503      0.0000 
     15 C2'       -13.9140  -16.4720   61.5870 C.3       1 SAM503      0.0000 
     16 O2'       -13.7600  -17.7620   62.1440 O.3       1 SAM503      0.0000 
     17 C1'       -14.7040  -15.5490   62.5140 C.3       1 SAM503      0.0000 
     18 N9        -15.6840  -14.7310   61.7720 N.pl3     1 SAM503      0.0000 
     19 C8        -15.5440  -14.2370   60.4980 C.2       1 SAM503      0.0000 
     20 N7        -16.6540  -13.5380   60.1820 N.2       1 SAM503      0.0000 
     21 C5        -17.4980  -13.5680   61.2370 C.ar      1 SAM503      0.0000 
     22 C6        -18.7550  -13.0160   61.4380 C.ar      1 SAM503      0.0000 
     23 N6        -19.3280  -12.3020   60.4740 N.pl3     1 SAM503      0.0000 
     24 N1        -19.4000  -13.2140   62.6420 N.ar      1 SAM503      0.0000 
     25 C2        -18.7940  -13.9570   63.6370 C.ar      1 SAM503      0.0000 
     26 N3        -17.5420  -14.5030   63.4280 N.ar      1 SAM503      0.0000 
     27 C4        -16.9040  -14.3120   62.2460 C.ar      1 SAM503      0.0000 
     28 HN1        -9.0640   -9.7030   58.9710 H         1 SAM503      0.0000 
     29 HN2        -9.2840  -11.1930   59.4050 H         1 SAM503      0.0000 
     30 HA        -11.6500  -10.0140   59.0220 H         1 SAM503      0.0000 
     31 HB1       -12.4830   -9.6930   61.0900 H         1 SAM503      0.0000 
     32 HB2       -10.9580   -9.0410   61.6490 H         1 SAM503      0.0000 
     33 HG1       -10.8640  -11.0020   62.7730 H         1 SAM503      0.0000 
     34 HG2       -10.1750  -11.5840   61.2640 H         1 SAM503      0.0000 
     35 HE1       -13.7870  -12.4100   63.5500 H         1 SAM503      0.0000 
     36 HE2       -14.5230  -11.4460   62.2480 H         1 SAM503      0.0000 
     37 HE3       -13.1710  -10.7780   63.1950 H         1 SAM503      0.0000 
     38 H5'1      -11.3930  -13.3110   63.5300 H         1 SAM503      0.0000 
     39 H5'2      -10.6920  -13.9720   62.0680 H         1 SAM503      0.0000 
     40 H4'       -11.9740  -15.5860   63.4850 H         1 SAM503      0.0000 
     41 H3'       -12.5640  -15.1450   60.5860 H         1 SAM503      0.0000 
     42 HO3'      -11.9050  -17.6500   61.4250 H         1 SAM503      0.0000 
     43 H2'       -14.3990  -16.5210   60.6120 H         1 SAM503      0.0000 
     44 HO2'      -14.1980  -17.7940   63.0200 H         1 SAM503      0.0000 
     45 H1'       -15.2120  -16.1530   63.2670 H         1 SAM503      0.0000 
     46 H8        -14.6810  -14.3860   59.8490 H         1 SAM503      0.0000 
     47 HN61      -18.8460  -12.1620   59.5910 H         1 SAM503      0.0000 
     48 HN62      -20.2490  -11.9010   60.6180 H         1 SAM503      0.0000 
     49 H2        -19.3030  -14.1130   64.5870 H         1 SAM503      0.0000 
@<TRIPOS>BOND
     1    1    2 1    
     2    1   28 1    
     3    1   29 1    
     4    2    3 1    
     5    2    6 1    
     6    2   30 1    
     7    3    4 ar   
     8    3    5 ar   
     9    6    7 1    
    10    6   31 1    
    11    6   32 1    
    12    7    8 1    
    13    7   33 1    
    14    7   34 1    
    15    8    9 1    
    16    8   10 1    
    17    9   35 1    
    18    9   36 1    
    19    9   37 1    
    20   10   11 1    
    21   10   38 1    
    22   10   39 1    
    23   11   12 1    
    24   11   13 1    
    25   11   40 1    
    26   12   17 1    
    27   13   14 1    
    28   13   15 1    
    29   13   41 1    
    30   14   42 1    
    31   15   16 1    
    32   15   17 1    
    33   15   43 1    
    34   16   44 1    
    35   17   18 1    
    36   17   45 1    
    37   18   19 1    
    38   18   27 1    
    39   19   20 2    
    40   19   46 1    
    41   20   21 1    
    42   21   22 ar   
    43   21   27 ar   
    44   22   23 1    
    45   22   24 ar   
    46   23   47 1    
    47   23   48 1    
    48   24   25 ar   
    49   25   26 ar   
    50   25   49 1    
    51   26   27 ar   
@<TRIPOS>SUBSTRUCTURE
     1 SAM503      1 GROUP   
@<TRIPOS>SET

