#    Name: 6s83_9_ACP
#    Modification time : Fri May 22 19:41:28 2020

@<TRIPOS>MOLECULE
6s83_9_ACP
   45    47     1     0     1
SMALL
NO_CHARGES


@<TRIPOS>ATOM
      1 PG         44.1650  -82.0390   80.9240 P.3       1 ACP504      0.0000 
      2 O1G        44.0020  -81.8550   82.4150 O.co2     1 ACP504      0.0000 
      3 O2G        45.6120  -81.8120   80.5490 O.co2     1 ACP504      0.0000 
      4 O3G        43.2970  -81.0480   80.1910 O.co2     1 ACP504      0.0000 
      5 PB         44.7260  -84.9630   81.3950 P.3       1 ACP504      0.0000 
      6 O1B        44.2160  -86.3730   81.2030 O.co2     1 ACP504      0.0000 
      7 O2B        44.6680  -84.6040   82.8630 O.co2     1 ACP504      0.0000 
      8 C3B        43.6700  -83.7670   80.4450 C.3       1 ACP504      0.0000 
      9 PA         46.9890  -85.8890   79.8130 P.3       1 ACP504      0.0000 
     10 O1A        46.0900  -86.0800   78.6120 O.co2     1 ACP504      0.0000 
     11 O2A        47.2070  -87.2180   80.4950 O.co2     1 ACP504      0.0000 
     12 O3A        46.2840  -84.8390   80.8700 O.3       1 ACP504      0.0000 
     13 O5'        48.4400  -85.2700   79.3260 O.3       1 ACP504      0.0000 
     14 C5'        48.4650  -84.2500   78.3640 C.3       1 ACP504      0.0000 
     15 C4'        48.8470  -82.9070   79.0450 C.3       1 ACP504      0.0000 
     16 O4'        49.7900  -83.1080   79.9310 O.3       1 ACP504      0.0000 
     17 C3'        49.4230  -81.9120   78.0150 C.3       1 ACP504      0.0000 
     18 O3'        48.4960  -80.9780   77.6830 O.3       1 ACP504      0.0000 
     19 C2'        50.6050  -81.2540   78.7520 C.3       1 ACP504      0.0000 
     20 O2'        50.1190  -80.1000   79.5680 O.3       1 ACP504      0.0000 
     21 C1'        51.0660  -82.1890   79.5410 C.3       1 ACP504      0.0000 
     22 N9         52.0770  -83.0110   78.9110 N.pl3     1 ACP504      0.0000 
     23 C8         52.2630  -83.2880   77.6150 C.2       1 ACP504      0.0000 
     24 N7         53.3180  -84.0960   77.5070 N.2       1 ACP504      0.0000 
     25 C5         53.7900  -84.3270   78.7370 C.ar      1 ACP504      0.0000 
     26 C6         54.8480  -85.0810   79.1930 C.ar      1 ACP504      0.0000 
     27 N6         55.8440  -85.9000   78.5270 N.pl3     1 ACP504      0.0000 
     28 N1         55.1040  -85.1430   80.4900 N.ar      1 ACP504      0.0000 
     29 C2         54.3270  -84.4670   81.3700 C.ar      1 ACP504      0.0000 
     30 N3         53.2870  -83.7260   80.9220 N.ar      1 ACP504      0.0000 
     31 C4         53.0240  -83.6600   79.6040 C.ar      1 ACP504      0.0000 
     32 H3B1       42.7350  -83.9110   80.6620 H         1 ACP504      0.0000 
     33 H3B2       43.8070  -83.8940   79.4930 H         1 ACP504      0.0000 
     34 H5'1       47.5890  -84.1690   77.9560 H         1 ACP504      0.0000 
     35 H5'2       49.1200  -84.4650   77.6820 H         1 ACP504      0.0000 
     36 H4'        48.0700  -82.5190   79.4760 H         1 ACP504      0.0000 
     37 H3'        49.7350  -82.3840   77.2270 H         1 ACP504      0.0000 
     38 HO3'       48.8880  -80.2600   77.4510 H         1 ACP504      0.0000 
     39 H2'        51.2860  -80.9720   78.1220 H         1 ACP504      0.0000 
     40 HO2'       50.6520  -79.4440   79.4760 H         1 ACP504      0.0000 
     41 H1'        51.4280  -81.7830   80.3440 H         1 ACP504      0.0000 
     42 H8         51.7470  -82.9680   76.9100 H         1 ACP504      0.0000 
     43 HN61       55.8570  -85.9490   77.6680 H         1 ACP504      0.0000 
     44 HN62       56.4220  -86.3370   78.9910 H         1 ACP504      0.0000 
     45 H2         54.5080  -84.5110   82.2810 H         1 ACP504      0.0000 
@<TRIPOS>BOND
     1    1    2 ar   
     2    1    3 ar   
     3    1    4 ar   
     4    1    8 1    
     5    5    6 ar   
     6    5    7 ar   
     7    5    8 1    
     8    5   12 1    
     9    8   32 1    
    10    8   33 1    
    11    9   10 ar   
    12    9   11 ar   
    13    9   12 1    
    14    9   13 1    
    15   13   14 1    
    16   14   15 1    
    17   14   34 1    
    18   14   35 1    
    19   15   16 1    
    20   15   17 1    
    21   15   36 1    
    22   16   21 1    
    23   17   18 1    
    24   17   19 1    
    25   17   37 1    
    26   18   38 1    
    27   19   20 1    
    28   19   21 1    
    29   19   39 1    
    30   21   41 1    
    31   21   22 1    
    32   20   40 1    
    33   22   23 1    
    34   22   31 1    
    35   23   24 2    
    36   24   25 1    
    37   23   42 1    
    38   25   26 ar   
    39   25   31 ar   
    40   26   27 1    
    41   26   28 ar   
    42   28   29 ar   
    43   27   43 1    
    44   27   44 1    
    45   29   30 ar   
    46   30   31 ar   
    47   29   45 1    
@<TRIPOS>SUBSTRUCTURE
     1 ACP504      1 GROUP   
@<TRIPOS>SET
ATOM$ORANGE STATIC     ATOMS   COLORGROUP SYSTEM 
22 8 8 14 14 15 15 17 17 19 19 21 21 23 23 25 25 26 \
26 29 29 31 31 

