#    Name: 6s83_8_ACP_CAVITY_N1_4
#    Modification time : Fri May 22 19:41:21 2020

@<TRIPOS>MOLECULE
6s83_8_ACP_CAVITY_N1_4
   33     0     6     0     0
SMALL
NO_CHARGES


@<TRIPOS>ATOM
      1 OG         15.3100  -33.3300   18.0600 O.3       1 SER1        0.0000 
      2 OD1        12.1600  -29.2600   19.7200 O.co2     2 ASP3        0.0000 
      3 OD1        12.5400  -28.4700   18.5000 O.co2     2 ASP3        0.0000 
      4 OD1        13.0100  -27.3500   19.3800 O.co2     2 ASP3        0.0000 
      5 OD1        14.3800  -27.9600   19.4100 O.co2     2 ASP3        0.0000 
      6 OD1        13.3900  -26.5600   18.1600 O.co2     2 ASP3        0.0000 
      7 NZ         14.7600  -27.1700   18.1900 N.4       3 LYS4        0.0000 
      8 CZ         13.1800  -34.3000   20.4600 C.ar      4 PHE5        0.0000 
      9 CZ         13.2800  -33.9700   22.5500 C.ar      4 PHE5        0.0000 
     10 CZ         14.6500  -34.5800   22.5800 C.ar      4 PHE5        0.0000 
     11 CZ         12.2900  -32.5700   21.3100 C.ar      4 PHE5        0.0000 
     12 CZ         13.6600  -33.1800   21.3400 C.ar      4 PHE5        0.0000 
     13 CZ         12.3900  -32.2500   23.4000 C.ar      4 PHE5        0.0000 
     14 CA         13.4600  -33.8400   17.1500 C.3       5 GLY6        0.0000 
     15 CA         13.5600  -33.5100   19.2400 C.3       5 GLY6        0.0000 
     16 CA         14.9300  -34.1200   19.2700 C.3       5 GLY6        0.0000 
     17 CA         13.9400  -32.7200   18.0300 C.3       5 GLY6        0.0000 
     18 CA         15.0300  -33.7900   21.3700 C.3       5 GLY6        0.0000 
     19 CA         12.6700  -31.7800   20.0900 C.3       5 GLY6        0.0000 
     20 CA         14.0400  -32.3900   20.1200 C.3       5 GLY6        0.0000 
     21 CA         15.4100  -33.0000   20.1500 C.3       5 GLY6        0.0000 
     22 CA         11.6800  -30.3800   18.8400 C.3       5 GLY6        0.0000 
     23 CA         13.0500  -30.9900   18.8700 C.3       5 GLY6        0.0000 
     24 CA         15.7900  -32.2100   18.9300 C.3       5 GLY6        0.0000 
     25 CA         15.5100  -32.6700   22.2400 C.3       5 GLY6        0.0000 
     26 DU         14.4200  -31.6000   18.9000 H         6 CUB7        0.0000 
     27 DU         12.7700  -31.4600   22.1800 H         6 CUB7        0.0000 
     28 DU         14.1400  -32.0600   22.2100 H         6 CUB7        0.0000 
     29 DU         13.1500  -30.6600   20.9700 H         6 CUB7        0.0000 
     30 DU         14.5200  -31.2700   21.0000 H         6 CUB7        0.0000 
     31 DU         13.5300  -29.8700   19.7500 H         6 CUB7        0.0000 
     32 DU         16.2700  -31.0900   19.8100 H         6 CUB7        0.0000 
     33 DU         13.9100  -29.0800   18.5300 H         6 CUB7        0.0000 
@<TRIPOS>BOND
@<TRIPOS>SUBSTRUCTURE
     1 SER1        1 GROUP   
     2 ASP3        2 GROUP   
     3 LYS4        7 GROUP   
     4 PHE5        8 GROUP   
     5 GLY6       14 GROUP   
     6 CUB7       26 GROUP   
@<TRIPOS>SET

