#    Name: 6agz_1_FMN
#    Modification time : Fri May 22 19:34:33 2020

@<TRIPOS>MOLECULE
6agz_1_FMN
   31    33     1     0     1
SMALL
NO_CHARGES


@<TRIPOS>ATOM
      1 N1         36.7220    6.9750   78.0310 N.2       1 FMN501      0.0000 
      2 C2         37.4440    5.7990   77.9500 C.2       1 FMN501      0.0000 
      3 O2         37.7560    5.1970   78.9770 O.2       1 FMN501      0.0000 
      4 N3         37.8150    5.2940   76.7210 N.am      1 FMN501      0.0000 
      5 C4         37.4660    5.9660   75.5690 C.2       1 FMN501      0.0000 
      6 O4         37.7930    5.5230   74.4690 O.2       1 FMN501      0.0000 
      7 C4A        36.7410    7.1480   75.6490 C.2       1 FMN501      0.0000 
      8 N5         36.3940    7.8150   74.4970 N.2       1 FMN501      0.0000 
      9 C5A        35.6780    8.9900   74.5680 C.ar      1 FMN501      0.0000 
     10 C6         35.3320    9.6570   73.4000 C.ar      1 FMN501      0.0000 
     11 C7         34.6090   10.8410   73.4620 C.ar      1 FMN501      0.0000 
     12 C7M        34.2390   11.5610   72.2010 C.3       1 FMN501      0.0000 
     13 C8         34.2300   11.3590   74.6930 C.ar      1 FMN501      0.0000 
     14 C8M        33.4490   12.6380   74.7620 C.3       1 FMN501      0.0000 
     15 C9         34.5740   10.6900   75.8600 C.ar      1 FMN501      0.0000 
     16 C9A        35.3010    9.5040   75.8030 C.ar      1 FMN501      0.0000 
     17 N10        35.6460    8.8330   76.9630 N.pl3     1 FMN501      0.0000 
     18 C10        36.3660    7.6550   76.8850 C.2       1 FMN501      0.0000 
     19 C1'        35.2520    9.3890   78.3020 C.3       1 FMN501      0.0000 
     20 C2'        36.3170   10.4110   78.7100 C.3       1 FMN501      0.0000 
     21 O2'        37.5610    9.7580   78.8400 O.3       1 FMN501      0.0000 
     22 C3'        35.9810   11.1520   80.0030 C.3       1 FMN501      0.0000 
     23 O3'        35.9370   10.2460   81.0820 O.3       1 FMN501      0.0000 
     24 C4'        34.6510   11.8900   79.8830 C.3       1 FMN501      0.0000 
     25 O4'        34.6150   12.6060   78.6690 O.3       1 FMN501      0.0000 
     26 C5'        34.4410   12.8690   81.0310 C.3       1 FMN501      0.0000 
     27 O5'        35.5360   13.7550   81.1020 O.3       1 FMN501      0.0000 
     28 P          35.3550   15.2980   80.6800 P.3       1 FMN501      0.0000 
     29 O1P        34.1840   15.8810   81.4350 O.co2     1 FMN501      0.0000 
     30 O2P        36.6060   16.0720   81.0190 O.co2     1 FMN501      0.0000 
     31 O3P        35.1020   15.3750   79.1940 O.co2     1 FMN501      0.0000 
@<TRIPOS>BOND
     1    1    2 1    
     2    1   18 2    
     3    2    3 2    
     4    2    4 am   
     5    4    5 am   
     6    5    6 2    
     7    5    7 1    
     8    7    8 2    
     9    7   18 1    
    10    8    9 1    
    11    9   10 ar   
    12    9   16 ar   
    13   10   11 ar   
    14   11   12 1    
    15   11   13 ar   
    16   13   14 1    
    17   13   15 ar   
    18   15   16 ar   
    19   16   17 1    
    20   17   18 1    
    21   17   19 1    
    22   19   20 1    
    23   20   21 1    
    24   20   22 1    
    25   22   23 1    
    26   22   24 1    
    27   24   25 1    
    28   24   26 1    
    29   26   27 1    
    30   27   28 1    
    31   28   29 ar   
    32   28   30 ar   
    33   28   31 ar   
@<TRIPOS>SUBSTRUCTURE
     1 FMN501      1 GROUP   
@<TRIPOS>SET
ATOM$ORANGE STATIC     ATOMS   COLORGROUP SYSTEM 
34 2 2 5 5 7 7 9 9 10 10 11 11 12 12 13 13 14 \
14 15 15 16 16 18 18 19 19 20 20 22 22 24 24 26 26 

