#    Name: 6agz_1_FMN_CAVITY_N1_12
#    Modification time : Fri May 22 19:34:34 2020

@<TRIPOS>MOLECULE
6agz_1_FMN_CAVITY_N1_12
  105     0     6     0     0
SMALL
NO_CHARGES


@<TRIPOS>ATOM
      1 OG         31.3600    6.2100   71.5900 O.3       1 SER1        0.0000 
      2 OG         29.9400    6.6000   71.8700 O.3       1 SER1        0.0000 
      3 OG         32.5100    4.4400   71.8000 O.3       1 SER1        0.0000 
      4 OG         33.1700    6.2500   72.6900 O.3       1 SER1        0.0000 
      5 OG         31.7500    6.6300   72.9800 O.3       1 SER1        0.0000 
      6 OG         32.9000    4.8600   73.1900 O.3       1 SER1        0.0000 
      7 OG         31.4700    5.2400   73.4700 O.3       1 SER1        0.0000 
      8 OG         33.8400    8.0500   73.5800 O.3       1 SER1        0.0000 
      9 OG         34.9800    6.2800   73.7900 O.3       1 SER1        0.0000 
     10 OG         33.5600    6.6600   74.0800 O.3       1 SER1        0.0000 
     11 OG         32.1400    7.0500   74.3600 O.3       1 SER1        0.0000 
     12 OG         30.7200    7.4400   74.6400 O.3       1 SER1        0.0000 
     13 OG         36.1300    4.5100   74.0100 O.3       1 SER1        0.0000 
     14 OG         34.7100    4.8900   74.2900 O.3       1 SER1        0.0000 
     15 OG         33.2900    5.2800   74.5800 O.3       1 SER1        0.0000 
     16 OG         31.8600    5.6600   74.8600 O.3       1 SER1        0.0000 
     17 OG         33.3600   11.6300   74.2500 O.3       1 SER1        0.0000 
     18 OG         34.5100    9.8600   74.4700 O.3       1 SER1        0.0000 
     19 OG         33.0800   10.2500   74.7500 O.3       1 SER1        0.0000 
     20 OG         31.6600   10.6300   75.0300 O.3       1 SER1        0.0000 
     21 OG         34.2300    8.4700   74.9700 O.3       1 SER1        0.0000 
     22 OG         32.8100    8.8600   75.2500 O.3       1 SER1        0.0000 
     23 OG         31.3900    9.2400   75.5300 O.3       1 SER1        0.0000 
     24 OG         36.8000    6.3100   74.9000 O.3       1 SER1        0.0000 
     25 OG         36.5200    4.9300   75.3900 O.3       1 SER1        0.0000 
     26 OG         33.6800    5.7000   75.9600 O.3       1 SER1        0.0000 
     27 OG         32.2500    6.0800   76.2500 O.3       1 SER1        0.0000 
     28 OG         34.8200    3.9200   76.1800 O.3       1 SER1        0.0000 
     29 OG         35.1700   11.6700   75.3600 O.3       1 SER1        0.0000 
     30 OG         35.4900    5.7300   77.0600 O.3       1 SER1        0.0000 
     31 OG         34.0700    6.1200   77.3500 O.3       1 SER1        0.0000 
     32 OG         32.6400    6.5000   77.6300 O.3       1 SER1        0.0000 
     33 OG         34.1400   12.4700   77.0300 O.3       1 SER1        0.0000 
     34 OG         35.2900   10.7000   77.2400 O.3       1 SER1        0.0000 
     35 OG         37.1000   10.7300   78.3400 O.3       1 SER1        0.0000 
     36 OG         35.6800   11.1200   78.6300 O.3       1 SER1        0.0000 
     37 O          35.9300    9.4700   74.1800 O.2       2 ALA2        0.0000 
     38 O          35.6500    8.0900   74.6800 O.2       2 ALA2        0.0000 
     39 N          36.3200    9.8900   75.5700 N.am      2 ALA2        0.0000 
     40 N          37.1900    6.7300   76.2800 N.am      2 ALA2        0.0000 
     41 N          35.7600    7.1200   76.5700 N.am      2 ALA2        0.0000 
     42 N          36.7100   10.3100   76.9600 N.am      2 ALA2        0.0000 
     43 N          36.4300    8.9300   77.4500 N.am      2 ALA2        0.0000 
     44 O          35.5900   15.1200   80.6900 O.2       2 ALA2        0.0000 
     45 OD1        31.9400   12.0200   74.5400 O.co2     3 ASP3        0.0000 
     46 OD1        32.3300   12.4400   75.9200 O.co2     3 ASP3        0.0000 
     47 OD1        32.0500   11.0500   76.4200 O.co2     3 ASP3        0.0000 
     48 OD1        31.3000   13.2400   77.5900 O.co2     3 ASP3        0.0000 
     49 OD1        36.1500    7.5400   77.9500 O.co2     3 ASP3        0.0000 
     50 OD1        33.1100   13.2800   78.6900 O.co2     3 ASP3        0.0000 
     51 OD1        36.8200    9.3500   78.8400 O.co2     3 ASP3        0.0000 
     52 OD1        35.4000    9.7300   79.1200 O.co2     3 ASP3        0.0000 
     53 OD1        33.5000   13.7000   80.0800 O.co2     3 ASP3        0.0000 
     54 OD1        35.7900   10.1500   80.5100 O.co2     3 ASP3        0.0000 
     55 CZ         29.6600    5.2100   72.3700 C.ar      4 PHE5        0.0000 
     56 CZ         34.3200    4.4700   72.9100 C.ar      4 PHE5        0.0000 
     57 CZ         30.0500    5.6300   73.7600 C.ar      4 PHE5        0.0000 
     58 CZ         30.4400    6.0500   75.1400 C.ar      4 PHE5        0.0000 
     59 CZ         33.6400   13.0200   73.7500 C.ar      4 PHE5        0.0000 
     60 CZ         33.4000    4.3100   76.4600 C.ar      4 PHE5        0.0000 
     61 CZ         34.7300    7.9200   78.2400 C.ar      4 PHE5        0.0000 
     62 CZ         33.3100    8.3100   78.5200 C.ar      4 PHE5        0.0000 
     63 CA         34.5900    5.8600   72.4100 C.3       5 GLY6        0.0000 
     64 CA         35.2600    7.6700   73.3000 C.3       5 GLY6        0.0000 
     65 CA         34.7800   11.2500   73.9700 C.3       5 GLY6        0.0000 
     66 CA         31.9800    4.6900   76.7400 C.3       5 GLY6        0.0000 
     67 CA         34.0300   13.4400   75.1400 C.3       5 GLY6        0.0000 
     68 CA         32.6100   13.8300   75.4200 C.3       5 GLY6        0.0000 
     69 CA         32.7200   12.8600   77.3100 C.3       5 GLY6        0.0000 
     70 CA         34.5300   12.8900   78.4100 C.3       5 GLY6        0.0000 
     71 CA         35.2000   14.7000   79.3000 C.3       5 GLY6        0.0000 
     72 CA         34.9200   13.3100   79.8000 C.3       5 GLY6        0.0000 
     73 CA         37.4900   11.1500   79.7300 C.3       5 GLY6        0.0000 
     74 CA         36.0700   11.5400   80.0100 C.3       5 GLY6        0.0000 
     75 CA         36.7300   13.3500   80.9000 C.3       5 GLY6        0.0000 
     76 CA         35.3100   13.7300   81.1800 C.3       5 GLY6        0.0000 
     77 CA         33.8900   14.1200   81.4700 C.3       5 GLY6        0.0000 
     78 CA         36.4600   11.9600   81.4000 C.3       5 GLY6        0.0000 
     79 CA         35.0400   12.3400   81.6800 C.3       5 GLY6        0.0000 
     80 CA         33.6100   12.7300   81.9700 C.3       5 GLY6        0.0000 
     81 CA         32.1900   13.1100   82.2500 C.3       5 GLY6        0.0000 
     82 CA         34.7600   10.9600   82.1800 C.3       5 GLY6        0.0000 
     83 CA         31.9200   11.7300   82.7500 C.3       5 GLY6        0.0000 
     84 DU         29.5500    6.1800   70.4900 H         6 CUB7        0.0000 
     85 DU         35.3700    6.7000   75.1800 H         6 CUB7        0.0000 
     86 DU         33.9500    7.0800   75.4600 H         6 CUB7        0.0000 
     87 DU         32.5300    7.4700   75.7500 H         6 CUB7        0.0000 
     88 DU         31.1100    7.8600   76.0300 H         6 CUB7        0.0000 
     89 DU         35.1000    5.3100   75.6800 H         6 CUB7        0.0000 
     90 DU         33.7500   12.0500   75.6400 H         6 CUB7        0.0000 
     91 DU         34.9000   10.2800   75.8500 H         6 CUB7        0.0000 
     92 DU         33.4700   10.6700   76.1400 H         6 CUB7        0.0000 
     93 DU         34.6200    8.8900   76.3500 H         6 CUB7        0.0000 
     94 DU         33.2000    9.2800   76.6400 H         6 CUB7        0.0000 
     95 DU         31.7800    9.6600   76.9200 H         6 CUB7        0.0000 
     96 DU         34.3400    7.5000   76.8500 H         6 CUB7        0.0000 
     97 DU         32.9200    7.8900   77.1300 H         6 CUB7        0.0000 
     98 DU         33.8600   11.0800   77.5200 H         6 CUB7        0.0000 
     99 DU         32.4400   11.4700   77.8100 H         6 CUB7        0.0000 
    100 DU         35.0100    9.3100   77.7400 H         6 CUB7        0.0000 
    101 DU         33.5900    9.7000   78.0200 H         6 CUB7        0.0000 
    102 DU         34.2500   11.5000   78.9100 H         6 CUB7        0.0000 
    103 DU         32.8300   11.8900   79.1900 H         6 CUB7        0.0000 
    104 DU         34.6400   11.9200   80.3000 H         6 CUB7        0.0000 
    105 DU         33.2200   12.3100   80.5800 H         6 CUB7        0.0000 
@<TRIPOS>BOND
@<TRIPOS>SUBSTRUCTURE
     1 SER1        1 GROUP   
     2 ALA2       37 GROUP   
     3 ASP3       45 GROUP   
     4 PHE5       55 GROUP   
     5 GLY6       63 GROUP   
     6 CUB7       84 GROUP   
@<TRIPOS>SET

