#    Name: 6agz_2_FMN_CAVITY_N1_4
#    Modification time : Fri May 22 19:34:38 2020

@<TRIPOS>MOLECULE
6agz_2_FMN_CAVITY_N1_4
   87     0     6     0     0
SMALL
NO_CHARGES


@<TRIPOS>ATOM
      1 OG         31.5300   -1.4700  122.5600 O.3       1 SER1        0.0000 
      2 OG         26.7200   -3.0900  124.4100 O.3       1 SER1        0.0000 
      3 OG         28.2100    2.8800  123.8000 O.3       1 SER1        0.0000 
      4 OG         27.9400    1.4900  124.3000 O.3       1 SER1        0.0000 
      5 OG         30.2300   -2.0500  124.7300 O.3       1 SER1        0.0000 
      6 OG         29.9500   -3.4400  125.2300 O.3       1 SER1        0.0000 
      7 OG         28.5300   -3.0500  125.5100 O.3       1 SER1        0.0000 
      8 OG         29.6700   -4.8300  125.7300 O.3       1 SER1        0.0000 
      9 OG         28.6000    3.3000  125.1900 O.3       1 SER1        0.0000 
     10 OG         28.3300    1.9100  125.6900 O.3       1 SER1        0.0000 
     11 OG         32.3100   -0.6300  125.3300 O.3       1 SER1        0.0000 
     12 OG         30.8900   -0.2400  125.6200 O.3       1 SER1        0.0000 
     13 OG         29.4700    0.1400  125.9000 O.3       1 SER1        0.0000 
     14 OG         29.2000   -1.2500  126.4000 O.3       1 SER1        0.0000 
     15 OG         28.9200   -2.6300  126.9000 O.3       1 SER1        0.0000 
     16 OG         31.5600    1.5600  126.5100 O.3       1 SER1        0.0000 
     17 OG         28.7200    2.3300  127.0700 O.3       1 SER1        0.0000 
     18 OG         29.8600    0.5600  127.2900 O.3       1 SER1        0.0000 
     19 OG         30.2500    0.9800  128.6700 O.3       1 SER1        0.0000 
     20 O          27.9900    4.8200  120.0300 O.2       2 ALA2        0.0000 
     21 N          26.6000   -2.1200  122.5200 N.am      2 ALA2        0.0000 
     22 O          31.7700    7.2400  119.8600 O.2       2 ALA2        0.0000 
     23 O          27.2300    7.0100  121.2100 O.2       2 ALA2        0.0000 
     24 N          27.5500    1.0800  122.9100 N.am      2 ALA2        0.0000 
     25 N          27.2700   -0.3100  123.4100 N.am      2 ALA2        0.0000 
     26 N          26.9900   -1.7000  123.9100 N.am      2 ALA2        0.0000 
     27 O          27.6200    7.4300  122.5900 O.2       2 ALA2        0.0000 
     28 N          27.6600    0.1100  124.8000 N.am      2 ALA2        0.0000 
     29 N          27.3800   -1.2800  125.3000 N.am      2 ALA2        0.0000 
     30 O          27.1100   -2.6700  125.8000 O.2       2 ALA2        0.0000 
     31 O          27.7700   -0.8600  126.6800 O.2       2 ALA2        0.0000 
     32 N          28.1600   -0.4400  128.0700 N.am      2 ALA2        0.0000 
     33 OD1        27.7100    3.4300  120.5300 O.co2     3 ASP3        0.0000 
     34 OD1        26.2900    3.8200  120.8200 O.co2     3 ASP3        0.0000 
     35 OD1        27.4300    2.0400  121.0300 O.co2     3 ASP3        0.0000 
     36 OD1        29.0400    7.0500  122.3100 O.co2     3 ASP3        0.0000 
     37 OD1        31.6100    4.8900  122.2400 O.co2     3 ASP3        0.0000 
     38 OD1        30.1900    5.2700  122.5200 O.co2     3 ASP3        0.0000 
     39 OD1        28.7700    5.6600  122.8100 O.co2     3 ASP3        0.0000 
     40 OD1        29.9100    3.8800  123.0200 O.co2     3 ASP3        0.0000 
     41 OD1        30.3000    4.3000  124.4100 O.co2     3 ASP3        0.0000 
     42 CZ         28.3000   -1.1200  121.7400 C.ar      4 PHE5        0.0000 
     43 CZ         30.1100   -1.0800  122.8500 C.ar      4 PHE5        0.0000 
     44 CZ         30.8000    3.7600  127.6800 C.ar      4 PHE5        0.0000 
     45 CZ         31.9500    1.9800  127.8900 C.ar      4 PHE5        0.0000 
     46 CZ         30.5300    2.3700  128.1800 C.ar      4 PHE5        0.0000 
     47 CZ         29.1100    2.7500  128.4600 C.ar      4 PHE5        0.0000 
     48 CZ         28.8300    1.3700  128.9600 C.ar      4 PHE5        0.0000 
     49 CA         31.1100    5.4400  118.9700 C.3       5 GLY6        0.0000 
     50 CA         30.8300    4.0500  119.4700 C.3       5 GLY6        0.0000 
     51 CA         29.4100    4.4300  119.7500 C.3       5 GLY6        0.0000 
     52 CA         26.5600    5.2000  120.3200 C.3       5 GLY6        0.0000 
     53 CA         31.5000    5.8600  120.3500 C.3       5 GLY6        0.0000 
     54 CA         30.0700    6.2400  120.6400 C.3       5 GLY6        0.0000 
     55 CA         28.6500    6.6300  120.9200 C.3       5 GLY6        0.0000 
     56 CA         29.8000    4.8500  121.1400 C.3       5 GLY6        0.0000 
     57 CA         28.3800    5.2400  121.4200 C.3       5 GLY6        0.0000 
     58 CA         26.9500    5.6200  121.7000 C.3       5 GLY6        0.0000 
     59 CA         28.1000    3.8500  121.9200 C.3       5 GLY6        0.0000 
     60 CA         26.6800    4.2400  122.2000 C.3       5 GLY6        0.0000 
     61 CA         27.8200    2.4600  122.4200 C.3       5 GLY6        0.0000 
     62 CA         26.4000    2.8500  122.7000 C.3       5 GLY6        0.0000 
     63 CA         27.3400    6.0400  123.0900 C.3       5 GLY6        0.0000 
     64 CA         28.4900    4.2700  123.3000 C.3       5 GLY6        0.0000 
     65 CA         28.8800    4.6900  124.6900 C.3       5 GLY6        0.0000 
     66 CA         30.0200    2.9200  124.9100 C.3       5 GLY6        0.0000 
     67 CA         28.0500    0.5300  126.1900 C.3       5 GLY6        0.0000 
     68 CA         31.8400    2.9500  126.0100 C.3       5 GLY6        0.0000 
     69 CA         30.4100    3.3400  126.2900 C.3       5 GLY6        0.0000 
     70 CA         28.9900    3.7200  126.5700 C.3       5 GLY6        0.0000 
     71 CA         27.2900    2.7200  127.3600 C.3       5 GLY6        0.0000 
     72 CA         28.4400    0.9500  127.5700 C.3       5 GLY6        0.0000 
     73 CA         27.6900    3.1400  128.7400 C.3       5 GLY6        0.0000 
     74 DU         31.2200    4.4700  120.8500 H         6 CUB7        0.0000 
     75 DU         29.5200    3.4700  121.6300 H         6 CUB7        0.0000 
     76 DU         29.2400    2.0800  122.1300 H         6 CUB7        0.0000 
     77 DU         28.9700    0.6900  122.6300 H         6 CUB7        0.0000 
     78 DU         28.6900   -0.7000  123.1300 H         6 CUB7        0.0000 
     79 DU         28.4100   -2.0900  123.6300 H         6 CUB7        0.0000 
     80 DU         29.6300    2.5000  123.5200 H         6 CUB7        0.0000 
     81 DU         29.3600    1.1100  124.0200 H         6 CUB7        0.0000 
     82 DU         30.5000   -0.6600  124.2300 H         6 CUB7        0.0000 
     83 DU         29.0800   -0.2800  124.5200 H         6 CUB7        0.0000 
     84 DU         28.8000   -1.6700  125.0100 H         6 CUB7        0.0000 
     85 DU         31.1700    1.1400  125.1200 H         6 CUB7        0.0000 
     86 DU         29.7500    1.5300  125.4000 H         6 CUB7        0.0000 
     87 DU         30.1400    1.9500  126.7900 H         6 CUB7        0.0000 
@<TRIPOS>BOND
@<TRIPOS>SUBSTRUCTURE
     1 SER1        1 GROUP   
     2 ALA2       20 GROUP   
     3 ASP3       33 GROUP   
     4 PHE5       42 GROUP   
     5 GLY6       49 GROUP   
     6 CUB7       74 GROUP   
@<TRIPOS>SET

