#    Name: 6agz_1_FMN_CAVITY_N1_4
#    Modification time : Fri May 22 19:34:34 2020

@<TRIPOS>MOLECULE
6agz_1_FMN_CAVITY_N1_4
   86     0     6     0     0
SMALL
NO_CHARGES


@<TRIPOS>ATOM
      1 OG         33.8400    8.0500   73.5800 O.3       1 SER1        0.0000 
      2 OG         34.9800    6.2800   73.7900 O.3       1 SER1        0.0000 
      3 OG         33.5600    6.6600   74.0800 O.3       1 SER1        0.0000 
      4 OG         36.1300    4.5100   74.0100 O.3       1 SER1        0.0000 
      5 OG         34.7100    4.8900   74.2900 O.3       1 SER1        0.0000 
      6 OG         33.3600   11.6300   74.2500 O.3       1 SER1        0.0000 
      7 OG         34.5100    9.8600   74.4700 O.3       1 SER1        0.0000 
      8 OG         33.0800   10.2500   74.7500 O.3       1 SER1        0.0000 
      9 OG         31.6600   10.6300   75.0300 O.3       1 SER1        0.0000 
     10 OG         34.2300    8.4700   74.9700 O.3       1 SER1        0.0000 
     11 OG         32.8100    8.8600   75.2500 O.3       1 SER1        0.0000 
     12 OG         31.3900    9.2400   75.5300 O.3       1 SER1        0.0000 
     13 OG         36.8000    6.3100   74.9000 O.3       1 SER1        0.0000 
     14 OG         36.5200    4.9300   75.3900 O.3       1 SER1        0.0000 
     15 OG         33.6800    5.7000   75.9600 O.3       1 SER1        0.0000 
     16 OG         34.8200    3.9200   76.1800 O.3       1 SER1        0.0000 
     17 OG         35.1700   11.6700   75.3600 O.3       1 SER1        0.0000 
     18 OG         35.4900    5.7300   77.0600 O.3       1 SER1        0.0000 
     19 OG         34.0700    6.1200   77.3500 O.3       1 SER1        0.0000 
     20 OG         32.6400    6.5000   77.6300 O.3       1 SER1        0.0000 
     21 OG         34.1400   12.4700   77.0300 O.3       1 SER1        0.0000 
     22 OG         35.2900   10.7000   77.2400 O.3       1 SER1        0.0000 
     23 OG         37.1000   10.7300   78.3400 O.3       1 SER1        0.0000 
     24 OG         35.6800   11.1200   78.6300 O.3       1 SER1        0.0000 
     25 O          35.9300    9.4700   74.1800 O.2       2 ALA2        0.0000 
     26 O          35.6500    8.0900   74.6800 O.2       2 ALA2        0.0000 
     27 N          36.3200    9.8900   75.5700 N.am      2 ALA2        0.0000 
     28 N          37.1900    6.7300   76.2800 N.am      2 ALA2        0.0000 
     29 N          35.7600    7.1200   76.5700 N.am      2 ALA2        0.0000 
     30 N          36.7100   10.3100   76.9600 N.am      2 ALA2        0.0000 
     31 N          36.4300    8.9300   77.4500 N.am      2 ALA2        0.0000 
     32 O          35.5900   15.1200   80.6900 O.2       2 ALA2        0.0000 
     33 OD1        31.9400   12.0200   74.5400 O.co2     3 ASP3        0.0000 
     34 OD1        32.3300   12.4400   75.9200 O.co2     3 ASP3        0.0000 
     35 OD1        32.0500   11.0500   76.4200 O.co2     3 ASP3        0.0000 
     36 OD1        31.3000   13.2400   77.5900 O.co2     3 ASP3        0.0000 
     37 OD1        36.1500    7.5400   77.9500 O.co2     3 ASP3        0.0000 
     38 OD1        33.1100   13.2800   78.6900 O.co2     3 ASP3        0.0000 
     39 OD1        36.8200    9.3500   78.8400 O.co2     3 ASP3        0.0000 
     40 OD1        35.4000    9.7300   79.1200 O.co2     3 ASP3        0.0000 
     41 OD1        33.5000   13.7000   80.0800 O.co2     3 ASP3        0.0000 
     42 OD1        35.7900   10.1500   80.5100 O.co2     3 ASP3        0.0000 
     43 CZ         34.3200    4.4700   72.9100 C.ar      4 PHE5        0.0000 
     44 CZ         33.6400   13.0200   73.7500 C.ar      4 PHE5        0.0000 
     45 CZ         34.7300    7.9200   78.2400 C.ar      4 PHE5        0.0000 
     46 CZ         33.3100    8.3100   78.5200 C.ar      4 PHE5        0.0000 
     47 CA         34.5900    5.8600   72.4100 C.3       5 GLY6        0.0000 
     48 CA         35.2600    7.6700   73.3000 C.3       5 GLY6        0.0000 
     49 CA         34.7800   11.2500   73.9700 C.3       5 GLY6        0.0000 
     50 CA         34.0300   13.4400   75.1400 C.3       5 GLY6        0.0000 
     51 CA         32.6100   13.8300   75.4200 C.3       5 GLY6        0.0000 
     52 CA         32.7200   12.8600   77.3100 C.3       5 GLY6        0.0000 
     53 CA         34.5300   12.8900   78.4100 C.3       5 GLY6        0.0000 
     54 CA         35.2000   14.7000   79.3000 C.3       5 GLY6        0.0000 
     55 CA         34.9200   13.3100   79.8000 C.3       5 GLY6        0.0000 
     56 CA         37.4900   11.1500   79.7300 C.3       5 GLY6        0.0000 
     57 CA         36.0700   11.5400   80.0100 C.3       5 GLY6        0.0000 
     58 CA         36.7300   13.3500   80.9000 C.3       5 GLY6        0.0000 
     59 CA         35.3100   13.7300   81.1800 C.3       5 GLY6        0.0000 
     60 CA         33.8900   14.1200   81.4700 C.3       5 GLY6        0.0000 
     61 CA         36.4600   11.9600   81.4000 C.3       5 GLY6        0.0000 
     62 CA         35.0400   12.3400   81.6800 C.3       5 GLY6        0.0000 
     63 CA         33.6100   12.7300   81.9700 C.3       5 GLY6        0.0000 
     64 CA         32.1900   13.1100   82.2500 C.3       5 GLY6        0.0000 
     65 CA         34.7600   10.9600   82.1800 C.3       5 GLY6        0.0000 
     66 CA         31.9200   11.7300   82.7500 C.3       5 GLY6        0.0000 
     67 DU         35.3700    6.7000   75.1800 H         6 CUB7        0.0000 
     68 DU         33.9500    7.0800   75.4600 H         6 CUB7        0.0000 
     69 DU         32.5300    7.4700   75.7500 H         6 CUB7        0.0000 
     70 DU         35.1000    5.3100   75.6800 H         6 CUB7        0.0000 
     71 DU         33.7500   12.0500   75.6400 H         6 CUB7        0.0000 
     72 DU         34.9000   10.2800   75.8500 H         6 CUB7        0.0000 
     73 DU         33.4700   10.6700   76.1400 H         6 CUB7        0.0000 
     74 DU         34.6200    8.8900   76.3500 H         6 CUB7        0.0000 
     75 DU         33.2000    9.2800   76.6400 H         6 CUB7        0.0000 
     76 DU         31.7800    9.6600   76.9200 H         6 CUB7        0.0000 
     77 DU         34.3400    7.5000   76.8500 H         6 CUB7        0.0000 
     78 DU         32.9200    7.8900   77.1300 H         6 CUB7        0.0000 
     79 DU         33.8600   11.0800   77.5200 H         6 CUB7        0.0000 
     80 DU         32.4400   11.4700   77.8100 H         6 CUB7        0.0000 
     81 DU         35.0100    9.3100   77.7400 H         6 CUB7        0.0000 
     82 DU         33.5900    9.7000   78.0200 H         6 CUB7        0.0000 
     83 DU         34.2500   11.5000   78.9100 H         6 CUB7        0.0000 
     84 DU         32.8300   11.8900   79.1900 H         6 CUB7        0.0000 
     85 DU         34.6400   11.9200   80.3000 H         6 CUB7        0.0000 
     86 DU         33.2200   12.3100   80.5800 H         6 CUB7        0.0000 
@<TRIPOS>BOND
@<TRIPOS>SUBSTRUCTURE
     1 SER1        1 GROUP   
     2 ALA2       25 GROUP   
     3 ASP3       33 GROUP   
     4 PHE5       43 GROUP   
     5 GLY6       47 GROUP   
     6 CUB7       67 GROUP   
@<TRIPOS>SET

