#    Name: 6agz_2_FMN
#    Modification time : Fri May 22 19:34:37 2020

@<TRIPOS>MOLECULE
6agz_2_FMN
   31    33     1     0     1
SMALL
NO_CHARGES


@<TRIPOS>ATOM
      1 N1         26.9600   -1.5270  121.9730 N.2       1 FMN501      0.0000 
      2 C2         26.2670   -2.6690  121.6190 C.2       1 FMN501      0.0000 
      3 O2         25.9770   -2.8690  120.4410 O.2       1 FMN501      0.0000 
      4 N3         25.9010   -3.5870  122.5830 N.am      1 FMN501      0.0000 
      5 C4         26.2270   -3.3610  123.9040 C.2       1 FMN501      0.0000 
      6 O4         25.9070   -4.1700  124.7720 O.2       1 FMN501      0.0000 
      7 C4A        26.9220   -2.2130  124.2600 C.2       1 FMN501      0.0000 
      8 N5         27.2470   -1.9920  125.5780 N.2       1 FMN501      0.0000 
      9 C5A        27.9330   -0.8540  125.9410 C.ar      1 FMN501      0.0000 
     10 C6         28.2530   -0.6430  127.2770 C.ar      1 FMN501      0.0000 
     11 C7         28.9460    0.5000  127.6500 C.ar      1 FMN501      0.0000 
     12 C7M        29.2900    0.7290  129.0910 C.3       1 FMN501      0.0000 
     13 C8         29.3200    1.4310  126.6890 C.ar      1 FMN501      0.0000 
     14 C8M        30.0700    2.6660  127.0920 C.3       1 FMN501      0.0000 
     15 C9         29.0010    1.2170  125.3550 C.ar      1 FMN501      0.0000 
     16 C9A        28.3040    0.0740  124.9750 C.ar      1 FMN501      0.0000 
     17 N10        27.9800   -0.1490  123.6470 N.pl3     1 FMN501      0.0000 
     18 C10        27.2910   -1.2920  123.2910 C.2       1 FMN501      0.0000 
     19 C1'        28.3680    0.8470  122.5920 C.3       1 FMN501      0.0000 
     20 C2'        27.2960    1.9340  122.5340 C.3       1 FMN501      0.0000 
     21 O2'        26.0690    1.3630  122.1360 O.3       1 FMN501      0.0000 
     22 C3'        27.6700    3.0680  121.5840 C.3       1 FMN501      0.0000 
     23 O3'        27.7550    2.5770  120.2650 O.3       1 FMN501      0.0000 
     24 C4'        28.9940    3.7060  121.9900 C.3       1 FMN501      0.0000 
     25 O4'        29.0180    3.9080  123.3850 O.3       1 FMN501      0.0000 
     26 C5'        29.1950    5.0490  121.3030 C.3       1 FMN501      0.0000 
     27 O5'        28.0930    5.8770  121.5950 O.3       1 FMN501      0.0000 
     28 P          28.3020    7.1900  122.5020 P.3       1 FMN501      0.0000 
     29 O1P        29.4500    7.9860  121.9310 O.co2     1 FMN501      0.0000 
     30 O2P        27.0470    8.0290  122.4910 O.co2     1 FMN501      0.0000 
     31 O3P        28.6180    6.7670  123.9160 O.co2     1 FMN501      0.0000 
@<TRIPOS>BOND
     1    1    2 1    
     2    1   18 2    
     3    2    3 2    
     4    2    4 am   
     5    4    5 am   
     6    5    6 2    
     7    5    7 1    
     8    7    8 2    
     9    7   18 1    
    10    8    9 1    
    11    9   10 ar   
    12    9   16 ar   
    13   10   11 ar   
    14   11   12 1    
    15   11   13 ar   
    16   13   14 1    
    17   13   15 ar   
    18   15   16 ar   
    19   16   17 1    
    20   17   18 1    
    21   17   19 1    
    22   19   20 1    
    23   20   21 1    
    24   20   22 1    
    25   22   23 1    
    26   22   24 1    
    27   24   25 1    
    28   24   26 1    
    29   26   27 1    
    30   27   28 1    
    31   28   29 ar   
    32   28   30 ar   
    33   28   31 ar   
@<TRIPOS>SUBSTRUCTURE
     1 FMN501      1 GROUP   
@<TRIPOS>SET
ATOM$ORANGE STATIC     ATOMS   COLORGROUP SYSTEM 
34 2 2 5 5 7 7 9 9 10 10 11 11 12 12 13 13 14 \
14 15 15 16 16 18 18 19 19 20 20 22 22 24 24 26 26 

