#    Name: 6ilh_1_KAA
#    Modification time : Fri May 22 19:24:32 2020

@<TRIPOS>MOLECULE
6ilh_1_KAA
   32    34     1     0     0
SMALL
NO_CHARGES


@<TRIPOS>ATOM
      1 NZ        -56.7900  -22.0770   -2.5460 N.4       1 KAA601      0.0000 
      2 CE        -58.2130  -22.2210   -2.2260 C.3       1 KAA601      0.0000 
      3 CD        -59.0420  -21.6060   -3.3810 C.3       1 KAA601      0.0000 
      4 CG        -58.6400  -20.1170   -3.5140 C.3       1 KAA601      0.0000 
      5 CB        -59.7090  -19.3820   -4.4350 C.3       1 KAA601      0.0000 
      6 CA        -59.5500  -19.9050   -5.8880 C.3       1 KAA601      0.0000 
      7 N         -58.3660  -19.3710   -6.4970 N.4       1 KAA601      0.0000 
      8 C         -60.7980  -19.5250   -6.7020 C.2       1 KAA601      0.0000 
      9 O         -60.6970  -18.9240   -7.7210 O.2       1 KAA601      0.0000 
     10 N8        -62.1450  -19.9050   -6.1830 N.am      1 KAA601      0.0000 
     11 S1        -63.5520  -19.4500   -7.1160 S.o2      1 KAA601      0.0000 
     12 O1S       -64.7550  -20.2780   -6.7450 O.2       1 KAA601      0.0000 
     13 O2S       -63.3800  -19.7790   -8.5740 O.2       1 KAA601      0.0000 
     14 O5'       -63.8320  -17.8380   -6.8910 O.3       1 KAA601      0.0000 
     15 C5'       -63.6980  -17.3950   -5.5680 C.3       1 KAA601      0.0000 
     16 C4'       -65.0000  -16.6000   -5.1950 C.3       1 KAA601      0.0000 
     17 O4'       -65.1780  -15.4480   -6.2110 O.3       1 KAA601      0.0000 
     18 C3'       -66.0290  -17.3350   -5.3620 C.3       1 KAA601      0.0000 
     19 O3'       -66.3690  -17.9930   -4.1190 O.3       1 KAA601      0.0000 
     20 C2'       -67.2600  -16.3080   -5.8190 C.3       1 KAA601      0.0000 
     21 O2'       -67.9540  -15.8680   -4.6250 O.3       1 KAA601      0.0000 
     22 C1'       -66.7260  -15.2960   -6.3730 C.3       1 KAA601      0.0000 
     23 N9        -67.0600  -15.1350   -7.8390 N.pl3     1 KAA601      0.0000 
     24 C8        -66.5810  -16.1680   -8.5370 C.2       1 KAA601      0.0000 
     25 N7        -66.8930  -15.9740   -9.8520 N.2       1 KAA601      0.0000 
     26 C5        -67.5550  -14.8130   -9.9450 C.ar      1 KAA601      0.0000 
     27 C4        -67.6580  -14.2910   -8.7090 C.ar      1 KAA601      0.0000 
     28 N3        -68.2870  -13.1070   -8.5110 N.ar      1 KAA601      0.0000 
     29 C2        -68.8250  -12.4380   -9.5690 C.ar      1 KAA601      0.0000 
     30 N1        -68.7250  -12.9570  -10.8230 N.ar      1 KAA601      0.0000 
     31 C6        -68.1030  -14.1260  -11.0190 C.ar      1 KAA601      0.0000 
     32 N6        -68.1970  -14.3430  -12.4250 N.pl3     1 KAA601      0.0000 
@<TRIPOS>BOND
     1    1    2 1    
     2    2    3 1    
     3    3    4 1    
     4    4    5 1    
     5    5    6 1    
     6    6    7 1    
     7    6    8 1    
     8    8    9 2    
     9    8   10 am   
    10   10   11 1    
    11   11   12 2    
    12   11   13 2    
    13   11   14 1    
    14   14   15 1    
    15   15   16 1    
    16   16   17 1    
    17   16   18 1    
    18   17   22 1    
    19   18   19 1    
    20   18   20 1    
    21   20   21 1    
    22   20   22 1    
    23   22   23 1    
    24   23   24 1    
    25   23   27 1    
    26   24   25 2    
    27   25   26 1    
    28   26   27 ar   
    29   26   31 ar   
    30   27   28 ar   
    31   28   29 ar   
    32   29   30 ar   
    33   30   31 ar   
    34   31   32 1    
@<TRIPOS>SUBSTRUCTURE
     1 KAA601      1 GROUP   
@<TRIPOS>SET

