#    Name: 6ilh_1_KAA_CAVITY_N1_8
#    Modification time : Fri May 22 19:24:33 2020

@<TRIPOS>MOLECULE
6ilh_1_KAA_CAVITY_N1_8
  114     0     7     0     0
SMALL
NO_CHARGES


@<TRIPOS>ATOM
      1 OG        -68.9000  -19.9300  -11.3800 O.3       1 SER1        0.0000 
      2 OG        -69.6100  -20.0000  -10.0600 O.3       1 SER1        0.0000 
      3 OG        -68.1900  -18.6900  -10.9300 O.3       1 SER1        0.0000 
      4 OG        -68.9000  -18.7600   -9.6100 O.3       1 SER1        0.0000 
      5 N         -66.3700  -20.6400  -13.4600 N.am      2 ALA2        0.0000 
      6 N         -67.0800  -20.7100  -12.1400 N.am      2 ALA2        0.0000 
      7 N         -65.9700  -21.5500  -11.5900 N.am      2 ALA2        0.0000 
      8 N         -64.8500  -22.3900  -11.0400 N.am      2 ALA2        0.0000 
      9 O         -64.4500  -22.1300   -7.3900 O.2       2 ALA2        0.0000 
     10 O         -63.7400  -20.8900   -6.9400 O.2       2 ALA2        0.0000 
     11 O         -63.0200  -19.6500   -6.4900 O.2       2 ALA2        0.0000 
     12 O         -61.2000  -20.4200   -7.2600 O.2       2 ALA2        0.0000 
     13 O         -61.9100  -20.4900   -5.9400 O.2       2 ALA2        0.0000 
     14 O         -65.9500  -16.8600   -4.5100 O.2       2 ALA2        0.0000 
     15 N         -64.8400  -17.7000   -3.9600 N.am      2 ALA2        0.0000 
     16 N         -63.7300  -18.5400   -3.4100 N.am      2 ALA2        0.0000 
     17 O         -61.2000  -19.2500   -5.4900 O.2       2 ALA2        0.0000 
     18 O         -60.0900  -20.0900   -4.9300 O.2       2 ALA2        0.0000 
     19 N         -60.8000  -20.1600   -3.6100 N.am      2 ALA2        0.0000 
     20 N         -59.6900  -21.0000   -3.0600 N.am      2 ALA2        0.0000 
     21 N         -58.5700  -21.8400   -2.5100 N.am      2 ALA2        0.0000 
     22 O         -64.1300  -16.4600   -3.5100 O.2       2 ALA2        0.0000 
     23 OD1       -65.1600  -23.3700   -7.8400 O.co2     3 ASP3        0.0000 
     24 OD1       -65.6500  -19.4000  -13.0100 O.co2     3 ASP3        0.0000 
     25 OD1       -66.3600  -19.4700  -11.6900 O.co2     3 ASP3        0.0000 
     26 OD1       -67.0700  -19.5300  -10.3800 O.co2     3 ASP3        0.0000 
     27 OD1       -65.2500  -20.3100  -11.1400 O.co2     3 ASP3        0.0000 
     28 OD1       -65.9600  -20.3800   -9.8200 O.co2     3 ASP3        0.0000 
     29 OD1       -64.8500  -21.2200   -9.2700 O.co2     3 ASP3        0.0000 
     30 OD1       -67.4700  -17.4500  -10.4800 O.co2     3 ASP3        0.0000 
     31 OD1       -68.1800  -17.5200   -9.1600 O.co2     3 ASP3        0.0000 
     32 OD1       -68.8900  -17.5900   -7.8400 O.co2     3 ASP3        0.0000 
     33 OD1       -66.3600  -18.2900   -9.9300 O.co2     3 ASP3        0.0000 
     34 OD1       -67.0700  -18.3600   -8.6100 O.co2     3 ASP3        0.0000 
     35 OD1       -65.9600  -19.2000   -8.0500 O.co2     3 ASP3        0.0000 
     36 OD1       -64.1400  -19.9800   -8.8200 O.co2     3 ASP3        0.0000 
     37 OD1       -68.5800  -15.4400   -9.2700 O.co2     3 ASP3        0.0000 
     38 OD1       -67.4700  -16.2800   -8.7100 O.co2     3 ASP3        0.0000 
     39 OD1       -68.1800  -16.3500   -7.3900 O.co2     3 ASP3        0.0000 
     40 OD1       -65.6500  -17.0500   -9.4800 O.co2     3 ASP3        0.0000 
     41 OD1       -66.3600  -17.1200   -8.1600 O.co2     3 ASP3        0.0000 
     42 OD1       -67.0700  -17.1900   -6.8400 O.co2     3 ASP3        0.0000 
     43 OD1       -67.7800  -17.2600   -5.5200 O.co2     3 ASP3        0.0000 
     44 OD1       -65.2500  -17.9600   -7.6000 O.co2     3 ASP3        0.0000 
     45 OD1       -63.4200  -18.7400   -8.3700 O.co2     3 ASP3        0.0000 
     46 OD1       -64.1400  -18.8000   -7.0500 O.co2     3 ASP3        0.0000 
     47 OD1       -62.3100  -19.5800   -7.8100 O.co2     3 ASP3        0.0000 
     48 OD1       -68.5800  -14.2700   -7.5000 O.co2     3 ASP3        0.0000 
     49 OD1       -67.4700  -15.1100   -6.9400 O.co2     3 ASP3        0.0000 
     50 OD1       -63.8200  -16.6500   -8.4700 O.co2     3 ASP3        0.0000 
     51 OD1       -62.7100  -17.4900   -7.9200 O.co2     3 ASP3        0.0000 
     52 OD1       -61.6000  -18.3400   -7.3600 O.co2     3 ASP3        0.0000 
     53 NZ        -68.1900  -21.0400  -14.4700 N.4       4 LYS4        0.0000 
     54 NZ        -67.0800  -21.8800  -13.9100 N.4       4 LYS4        0.0000 
     55 NZ        -67.4800  -19.8000  -14.0200 N.4       4 LYS4        0.0000 
     56 NZ        -68.1900  -19.8600  -12.7000 N.4       4 LYS4        0.0000 
     57 NZ        -70.3200  -20.0700   -8.7400 N.4       4 LYS4        0.0000 
     58 NZ        -68.5000  -20.8400   -9.5100 N.4       4 LYS4        0.0000 
     59 NZ        -67.3900  -21.6900   -8.9500 N.4       4 LYS4        0.0000 
     60 NZ        -67.4800  -18.6200  -12.2500 N.4       4 LYS4        0.0000 
     61 NZ        -69.6100  -18.8300   -8.2900 N.4       4 LYS4        0.0000 
     62 NZ        -67.7900  -19.6000   -9.0600 N.4       4 LYS4        0.0000 
     63 NZ        -66.6700  -20.4400   -8.5000 N.4       4 LYS4        0.0000 
     64 NZ        -65.5600  -21.2900   -7.9500 N.4       4 LYS4        0.0000 
     65 NZ        -65.1600  -22.2000   -6.0700 N.4       4 LYS4        0.0000 
     66 NZ        -66.7600  -17.3800  -11.8000 N.4       4 LYS4        0.0000 
     67 NZ        -67.7800  -18.4300   -7.2900 N.4       4 LYS4        0.0000 
     68 NZ        -66.6700  -19.2700   -6.7300 N.4       4 LYS4        0.0000 
     69 NZ        -64.8500  -20.0400   -7.5000 N.4       4 LYS4        0.0000 
     70 NZ        -65.5600  -20.1100   -6.1800 N.4       4 LYS4        0.0000 
     71 NZ        -65.9600  -18.0300   -6.2800 N.4       4 LYS4        0.0000 
     72 NZ        -66.6700  -18.1000   -4.9600 N.4       4 LYS4        0.0000 
     73 NZ        -64.8500  -18.8700   -5.7300 N.4       4 LYS4        0.0000 
     74 NZ        -65.5600  -18.9400   -4.4100 N.4       4 LYS4        0.0000 
     75 NZ        -60.4900  -19.1800   -6.8100 N.4       4 LYS4        0.0000 
     76 NZ        -59.3800  -20.0200   -6.2500 N.4       4 LYS4        0.0000 
     77 NZ        -58.9800  -20.9300   -4.3800 N.4       4 LYS4        0.0000 
     78 NZ        -60.8900  -17.1000   -6.9100 N.4       4 LYS4        0.0000 
     79 NZ        -61.6000  -17.1600   -5.5900 N.4       4 LYS4        0.0000 
     80 NZ        -60.4800  -18.0100   -5.0400 N.4       4 LYS4        0.0000 
     81 NZ        -59.3700  -18.8500   -4.4800 N.4       4 LYS4        0.0000 
     82 NZ        -58.2600  -19.6900   -3.9300 N.4       4 LYS4        0.0000 
     83 NZ        -60.8800  -15.9200   -5.1400 N.4       4 LYS4        0.0000 
     84 CZ        -67.8700  -15.3700  -10.5900 C.ar      5 PHE5        0.0000 
     85 CZ        -66.7600  -16.2100  -10.0300 C.ar      5 PHE5        0.0000 
     86 CZ        -67.8700  -14.2000   -8.8200 C.ar      5 PHE5        0.0000 
     87 CZ        -66.7600  -15.0400   -8.2600 C.ar      5 PHE5        0.0000 
     88 CZ        -65.6400  -15.8800   -7.7100 C.ar      5 PHE5        0.0000 
     89 CZ        -64.5300  -16.7200   -7.1500 C.ar      5 PHE5        0.0000 
     90 CA        -64.4500  -20.9600   -5.6200 C.3       6 GLY6        0.0000 
     91 CA        -63.7300  -19.7100   -5.1700 C.3       6 GLY6        0.0000 
     92 CA        -68.1800  -15.1800   -5.6200 C.3       6 GLY6        0.0000 
     93 CA        -67.0700  -16.0200   -5.0700 C.3       6 GLY6        0.0000 
     94 CA        -63.0200  -18.4700   -4.7200 C.3       6 GLY6        0.0000 
     95 CA        -61.9100  -19.3200   -4.1700 C.3       6 GLY6        0.0000 
     96 CA        -66.7500  -13.8700   -6.4900 C.3       6 GLY6        0.0000 
     97 CA        -65.6400  -14.7100   -5.9400 C.3       6 GLY6        0.0000 
     98 CA        -63.8200  -15.4800   -6.7000 C.3       6 GLY6        0.0000 
     99 CA        -64.5300  -15.5500   -5.3800 C.3       6 GLY6        0.0000 
    100 CA        -62.0000  -16.2500   -7.4700 C.3       6 GLY6        0.0000 
    101 CA        -62.7100  -16.3200   -6.1500 C.3       6 GLY6        0.0000 
    102 CA        -63.4200  -16.3900   -4.8300 C.3       6 GLY6        0.0000 
    103 CA        -62.3100  -17.2300   -4.2700 C.3       6 GLY6        0.0000 
    104 CA        -60.0800  -18.9200   -3.1600 C.3       6 GLY6        0.0000 
    105 CA        -58.9700  -19.7600   -2.6100 C.3       6 GLY6        0.0000 
    106 CA        -62.7100  -15.1500   -4.3800 C.3       6 GLY6        0.0000 
    107 DU        -67.7900  -20.7700  -10.8300 H         7 CUB7        0.0000 
    108 DU        -66.6800  -21.6200  -10.2700 H         7 CUB7        0.0000 
    109 DU        -65.5700  -22.4600   -9.7200 H         7 CUB7        0.0000 
    110 DU        -66.3600  -15.9500   -6.3900 H         7 CUB7        0.0000 
    111 DU        -65.2400  -16.7900   -5.8300 H         7 CUB7        0.0000 
    112 DU        -63.4200  -17.5600   -6.6000 H         7 CUB7        0.0000 
    113 DU        -64.1300  -17.6300   -5.2800 H         7 CUB7        0.0000 
    114 DU        -62.3100  -18.4000   -6.0400 H         7 CUB7        0.0000 
@<TRIPOS>BOND
@<TRIPOS>SUBSTRUCTURE
     1 SER1        1 GROUP   
     2 ALA2        5 GROUP   
     3 ASP3       23 GROUP   
     4 LYS4       53 GROUP   
     5 PHE5       84 GROUP   
     6 GLY6       90 GROUP   
     7 CUB7      107 GROUP   
@<TRIPOS>SET

