#    Name: 6ilh_2_KAA_CAVITY_N1_6
#    Modification time : Fri May 22 19:24:40 2020

@<TRIPOS>MOLECULE
6ilh_2_KAA_CAVITY_N1_6
  141     0     7     0     0
SMALL
NO_CHARGES


@<TRIPOS>ATOM
      1 OG        -44.6800    5.8400  -20.8500 O.3       1 SER1        0.0000 
      2 OG        -45.3900    5.7800  -19.5300 O.3       1 SER1        0.0000 
      3 OG        -43.9600    7.0800  -20.4000 O.3       1 SER1        0.0000 
      4 OG        -42.8500    7.4200  -18.0800 O.3       1 SER1        0.0000 
      5 O         -50.5400    9.0700  -20.4300 O.2       2 ALA2        0.0000 
      6 N         -46.9000    7.5300  -21.9600 N.am      2 ALA2        0.0000 
      7 O         -50.9400   11.1500  -20.5400 O.2       2 ALA2        0.0000 
      8 O         -51.2500   10.1700  -17.3400 O.2       2 ALA2        0.0000 
      9 O         -51.9600   10.1000  -16.0300 O.2       2 ALA2        0.0000 
     10 O         -52.6700   10.0300  -14.7100 O.2       2 ALA2        0.0000 
     11 O         -50.1400    9.3300  -16.7900 O.2       2 ALA2        0.0000 
     12 O         -50.8500    9.2600  -15.4700 O.2       2 ALA2        0.0000 
     13 O         -48.2300    6.6700  -12.4900 O.2       2 ALA2        0.0000 
     14 N         -51.3400   13.2300  -20.6400 N.am      2 ALA2        0.0000 
     15 O         -52.0500   13.1600  -19.3200 O.2       2 ALA2        0.0000 
     16 O         -50.9400   12.3200  -18.7700 O.2       2 ALA2        0.0000 
     17 O         -53.0700   12.1100  -14.8100 O.2       2 ALA2        0.0000 
     18 N         -53.7800   12.0400  -13.4900 N.am      2 ALA2        0.0000 
     19 O         -49.8300   11.4800  -18.2100 O.2       2 ALA2        0.0000 
     20 O         -51.9600   11.2700  -14.2600 O.2       2 ALA2        0.0000 
     21 N         -52.6700   11.2000  -12.9400 N.am      2 ALA2        0.0000 
     22 O         -48.7200   10.6400  -17.6600 O.2       2 ALA2        0.0000 
     23 O         -49.4300   10.5700  -16.3400 O.2       2 ALA2        0.0000 
     24 O         -50.1400   10.5000  -15.0200 O.2       2 ALA2        0.0000 
     25 N         -48.6300    8.7500  -12.5900 N.am      2 ALA2        0.0000 
     26 O         -47.5100    7.9100  -12.0400 O.2       2 ALA2        0.0000 
     27 N         -45.6900    7.1400  -12.8000 N.am      2 ALA2        0.0000 
     28 N         -46.0900    9.2200  -12.9100 N.am      2 ALA2        0.0000 
     29 OD1       -48.3200    6.2200  -21.0900 O.co2     3 ASP3        0.0000 
     30 OD1       -49.4300    8.2300  -19.8800 O.co2     3 ASP3        0.0000 
     31 OD1       -50.8500    8.0900  -17.2400 O.co2     3 ASP3        0.0000 
     32 OD1       -47.6100    7.4600  -20.6400 O.co2     3 ASP3        0.0000 
     33 OD1       -50.4500    7.1800  -15.3700 O.co2     3 ASP3        0.0000 
     34 OD1       -46.5000    6.6200  -20.0900 O.co2     3 ASP3        0.0000 
     35 OD1       -47.2100    6.5500  -18.7700 O.co2     3 ASP3        0.0000 
     36 OD1       -48.6300    6.4100  -16.1300 O.co2     3 ASP3        0.0000 
     37 OD1       -46.1000    5.7100  -18.2100 O.co2     3 ASP3        0.0000 
     38 OD1       -46.8100    5.6400  -16.8900 O.co2     3 ASP3        0.0000 
     39 OD1       -45.7000    4.8000  -16.3400 O.co2     3 ASP3        0.0000 
     40 OD1       -44.5900    3.9500  -15.7800 O.co2     3 ASP3        0.0000 
     41 OD1       -45.3000    3.8900  -14.4700 O.co2     3 ASP3        0.0000 
     42 OD1       -44.1900    3.0400  -13.9100 O.co2     3 ASP3        0.0000 
     43 OD1       -48.7200    9.4700  -19.4300 O.co2     3 ASP3        0.0000 
     44 OD1       -49.4300    9.4000  -18.1100 O.co2     3 ASP3        0.0000 
     45 OD1       -47.6100    8.6300  -18.8700 O.co2     3 ASP3        0.0000 
     46 OD1       -48.3200    8.5600  -17.5500 O.co2     3 ASP3        0.0000 
     47 OD1       -49.0300    8.4900  -16.2300 O.co2     3 ASP3        0.0000 
     48 OD1       -46.5000    7.7900  -18.3200 O.co2     3 ASP3        0.0000 
     49 OD1       -47.2100    7.7200  -17.0000 O.co2     3 ASP3        0.0000 
     50 OD1       -47.9200    7.6500  -15.6800 O.co2     3 ASP3        0.0000 
     51 OD1       -45.3800    6.9500  -17.7600 O.co2     3 ASP3        0.0000 
     52 OD1       -44.9800    6.0400  -15.8900 O.co2     3 ASP3        0.0000 
     53 OD1       -45.6900    5.9700  -14.5700 O.co2     3 ASP3        0.0000 
     54 OD1       -50.2300   12.3900  -20.0900 O.co2     3 ASP3        0.0000 
     55 OD1       -49.1200   11.5500  -19.5300 O.co2     3 ASP3        0.0000 
     56 OD1       -44.9800    7.2100  -14.1200 O.co2     3 ASP3        0.0000 
     57 OD1       -47.6900   12.8600  -20.4000 O.co2     3 ASP3        0.0000 
     58 OD1       -42.1400    8.6600  -17.6300 O.co2     3 ASP3        0.0000 
     59 OD1       -46.9800   14.1000  -19.9500 O.co2     3 ASP3        0.0000 
     60 NZ        -46.5000    5.4400  -21.8600 N.4       4 LYS4        0.0000 
     61 NZ        -47.2100    5.3800  -20.5400 N.4       4 LYS4        0.0000 
     62 NZ        -44.6800    4.6700  -22.6200 N.4       4 LYS4        0.0000 
     63 NZ        -46.8100    4.4700  -18.6600 N.4       4 LYS4        0.0000 
     64 NZ        -45.7000    3.6200  -18.1100 N.4       4 LYS4        0.0000 
     65 NZ        -53.3900    8.7900  -15.1600 N.4       4 LYS4        0.0000 
     66 NZ        -52.2800    7.9500  -14.6000 N.4       4 LYS4        0.0000 
     67 NZ        -53.7900   10.8700  -15.2600 N.4       4 LYS4        0.0000 
     68 NZ        -54.5000   10.8000  -13.9400 N.4       4 LYS4        0.0000 
     69 NZ        -55.2100   10.7300  -12.6200 N.4       4 LYS4        0.0000 
     70 NZ        -53.3800    9.9600  -13.3900 N.4       4 LYS4        0.0000 
     71 NZ        -46.1000    6.8800  -16.4400 N.4       4 LYS4        0.0000 
     72 NZ        -54.8900   12.8800  -14.0500 N.4       4 LYS4        0.0000 
     73 NZ        -46.1800    9.9400  -19.7400 N.4       4 LYS4        0.0000 
     74 NZ        -46.8900    9.8700  -18.4200 N.4       4 LYS4        0.0000 
     75 NZ        -47.6000    9.8000  -17.1000 N.4       4 LYS4        0.0000 
     76 NZ        -48.3200    9.7300  -15.7800 N.4       4 LYS4        0.0000 
     77 NZ        -45.0700    9.1000  -19.1900 N.4       4 LYS4        0.0000 
     78 NZ        -47.2000    8.8900  -15.2300 N.4       4 LYS4        0.0000 
     79 NZ        -43.9600    8.2600  -18.6300 N.4       4 LYS4        0.0000 
     80 NZ        -46.0900    8.0500  -14.6800 N.4       4 LYS4        0.0000 
     81 NZ        -46.5800   12.0200  -19.8500 N.4       4 LYS4        0.0000 
     82 NZ        -47.2900   11.9500  -18.5300 N.4       4 LYS4        0.0000 
     83 NZ        -48.0000   11.8800  -17.2100 N.4       4 LYS4        0.0000 
     84 NZ        -45.4700   11.1800  -19.2900 N.4       4 LYS4        0.0000 
     85 NZ        -44.3600   10.3400  -18.7400 N.4       4 LYS4        0.0000 
     86 NZ        -47.2000   10.0600  -13.4600 N.4       4 LYS4        0.0000 
     87 NZ        -43.2500    9.5000  -18.1800 N.4       4 LYS4        0.0000 
     88 NZ        -45.8700   13.2600  -19.4000 N.4       4 LYS4        0.0000 
     89 NZ        -44.7600   12.4200  -18.8400 N.4       4 LYS4        0.0000 
     90 NZ        -43.6400   11.5800  -18.2900 N.4       4 LYS4        0.0000 
     91 CZ        -47.5200    4.4000  -17.3400 C.ar      5 PHE5        0.0000 
     92 CZ        -46.4100    3.5600  -16.7900 C.ar      5 PHE5        0.0000 
     93 CZ        -45.3000    2.7100  -16.2300 C.ar      5 PHE5        0.0000 
     94 CZ        -46.0100    2.6500  -14.9200 C.ar      5 PHE5        0.0000 
     95 CZ        -44.9000    1.8000  -14.3600 C.ar      5 PHE5        0.0000 
     96 CZ        -49.3400    6.3400  -14.8100 C.ar      5 PHE5        0.0000 
     97 CZ        -47.5200    5.5700  -15.5800 C.ar      5 PHE5        0.0000 
     98 CZ        -48.2300    5.5000  -14.2600 C.ar      5 PHE5        0.0000 
     99 CZ        -44.9900    4.8600  -17.6600 C.ar      5 PHE5        0.0000 
    100 CZ        -46.4100    4.7300  -15.0200 C.ar      5 PHE5        0.0000 
    101 CZ        -47.1200    4.6600  -13.7000 C.ar      5 PHE5        0.0000 
    102 CZ        -46.0100    3.8200  -13.1500 C.ar      5 PHE5        0.0000 
    103 CA        -45.6100    1.7400  -13.0400 C.3       6 GLY6        0.0000 
    104 CA        -51.9700    8.9300  -17.7900 C.3       6 GLY6        0.0000 
    105 CA        -52.6800    8.8600  -16.4700 C.3       6 GLY6        0.0000 
    106 CA        -51.1600    7.1100  -14.0500 C.3       6 GLY6        0.0000 
    107 CA        -50.0500    6.2700  -13.4900 C.3       6 GLY6        0.0000 
    108 CA        -44.9000    2.9800  -12.5900 C.3       6 GLY6        0.0000 
    109 CA        -52.0500   11.9900  -21.0900 C.3       6 GLY6        0.0000 
    110 CA        -51.6500   11.0800  -19.2200 C.3       6 GLY6        0.0000 
    111 CA        -49.1200   10.3800  -21.3000 C.3       6 GLY6        0.0000 
    112 CA        -49.8300   10.3100  -19.9800 C.3       6 GLY6        0.0000 
    113 CA        -50.5400   10.2400  -18.6600 C.3       6 GLY6        0.0000 
    114 CA        -47.3000    9.6100  -22.0700 C.3       6 GLY6        0.0000 
    115 CA        -48.0100    9.5400  -20.7500 C.3       6 GLY6        0.0000 
    116 CA        -51.1600    8.2800  -12.2800 C.3       6 GLY6        0.0000 
    117 CA        -49.3400    7.5100  -13.0400 C.3       6 GLY6        0.0000 
    118 CA        -46.4100    5.9000  -13.2500 C.3       6 GLY6        0.0000 
    119 CA        -45.2900    5.0600  -12.7000 C.3       6 GLY6        0.0000 
    120 CA        -49.5200   12.4600  -21.4100 C.3       6 GLY6        0.0000 
    121 CA        -48.4100   11.6200  -20.8500 C.3       6 GLY6        0.0000 
    122 CA        -50.8500   10.4300  -13.7000 C.3       6 GLY6        0.0000 
    123 CA        -51.5600   10.3600  -12.3800 C.3       6 GLY6        0.0000 
    124 CA        -49.0300    9.6600  -14.4700 C.3       6 GLY6        0.0000 
    125 CA        -49.7400    9.5900  -13.1500 C.3       6 GLY6        0.0000 
    126 DU        -45.7900    6.6900  -21.4100 H         7 CUB7        0.0000 
    127 DU        -51.5600    9.1900  -14.1500 H         7 CUB7        0.0000 
    128 DU        -46.1900    8.7700  -21.5100 H         7 CUB7        0.0000 
    129 DU        -46.9000    8.7000  -20.1900 H         7 CUB7        0.0000 
    130 DU        -49.7400    8.4200  -14.9200 H         7 CUB7        0.0000 
    131 DU        -50.4500    8.3500  -13.6000 H         7 CUB7        0.0000 
    132 DU        -45.0700    7.9300  -20.9600 H         7 CUB7        0.0000 
    133 DU        -48.6300    7.5800  -14.3600 H         7 CUB7        0.0000 
    134 DU        -46.8100    6.8100  -15.1300 H         7 CUB7        0.0000 
    135 DU        -47.5200    6.7400  -13.8100 H         7 CUB7        0.0000 
    136 DU        -46.5800   10.8500  -21.6200 H         7 CUB7        0.0000 
    137 DU        -47.2900   10.7800  -20.3000 H         7 CUB7        0.0000 
    138 DU        -48.0100   10.7100  -18.9800 H         7 CUB7        0.0000 
    139 DU        -45.4700   10.0100  -21.0600 H         7 CUB7        0.0000 
    140 DU        -47.9200    8.8200  -13.9100 H         7 CUB7        0.0000 
    141 DU        -46.8000    7.9800  -13.3600 H         7 CUB7        0.0000 
@<TRIPOS>BOND
@<TRIPOS>SUBSTRUCTURE
     1 SER1        1 GROUP   
     2 ALA2        5 GROUP   
     3 ASP3       29 GROUP   
     4 LYS4       60 GROUP   
     5 PHE5       91 GROUP   
     6 GLY6      103 GROUP   
     7 CUB7      126 GROUP   
@<TRIPOS>SET

