#    Name: 6ilh_2_KAA
#    Modification time : Fri May 22 19:24:38 2020

@<TRIPOS>MOLECULE
6ilh_2_KAA
   32    34     1     0     0
SMALL
NO_CHARGES


@<TRIPOS>ATOM
      1 NZ        -56.3070   13.7730  -13.0920 N.4       1 KAA601      0.0000 
      2 CE        -54.8690   14.0570  -13.0310 C.3       1 KAA601      0.0000 
      3 CD        -54.0800   12.8680  -13.6420 C.3       1 KAA601      0.0000 
      4 CG        -54.4130   11.5870  -12.8360 C.3       1 KAA601      0.0000 
      5 CB        -53.5370   10.3680  -13.3730 C.3       1 KAA601      0.0000 
      6 CA        -53.7390   10.2070  -14.9060 C.3       1 KAA601      0.0000 
      7 N         -55.0000    9.5910  -15.1990 N.4       1 KAA601      0.0000 
      8 C         -52.5770    9.3740  -15.4790 C.2       1 KAA601      0.0000 
      9 O         -52.7710    8.3030  -15.9580 O.2       1 KAA601      0.0000 
     10 N8        -51.1920    9.9250  -15.4060 N.am      1 KAA601      0.0000 
     11 S1        -49.8750    8.9700  -16.0450 S.o2      1 KAA601      0.0000 
     12 O1S       -48.6370    9.8050  -16.2490 O.2       1 KAA601      0.0000 
     13 O2S       -50.1600    8.4880  -17.4420 O.2       1 KAA601      0.0000 
     14 O5'       -49.5920    7.7080  -15.0180 O.3       1 KAA601      0.0000 
     15 C5'       -49.5240    8.0600  -13.6630 C.3       1 KAA601      0.0000 
     16 C4'       -48.1490    7.5590  -13.0910 C.3       1 KAA601      0.0000 
     17 O4'       -48.0300    6.0340  -13.3290 O.3       1 KAA601      0.0000 
     18 C3'       -47.1780    8.0520  -13.7540 C.3       1 KAA601      0.0000 
     19 O3'       -46.7420    9.2910  -13.1480 O.3       1 KAA601      0.0000 
     20 C2'       -45.9540    6.9210  -13.6850 C.3       1 KAA601      0.0000 
     21 O2'       -45.0720    7.2430  -12.5810 O.3       1 KAA601      0.0000 
     22 C1'       -46.4920    5.7860  -13.4790 C.3       1 KAA601      0.0000 
     23 N9        -46.2660    4.8170  -14.6140 N.pl3     1 KAA601      0.0000 
     24 C8        -46.7760    5.3370  -15.7330 C.2       1 KAA601      0.0000 
     25 N7        -46.5730    4.4510  -16.7460 N.2       1 KAA601      0.0000 
     26 C5        -45.9440    3.3870  -16.2310 C.ar      1 KAA601      0.0000 
     27 C4        -45.7520    3.6040  -14.9170 C.ar      1 KAA601      0.0000 
     28 N3        -45.1320    2.6730  -14.1530 N.ar      1 KAA601      0.0000 
     29 C2        -44.6970    1.5120  -14.7210 C.ar      1 KAA601      0.0000 
     30 N1        -44.8890    1.2860  -16.0510 N.ar      1 KAA601      0.0000 
     31 C6        -45.5040    2.2070  -16.8030 C.ar      1 KAA601      0.0000 
     32 N6        -45.5290    1.6510  -18.1140 N.pl3     1 KAA601      0.0000 
@<TRIPOS>BOND
     1    3    4 1    
     2    4    5 1    
     3    5    6 1    
     4    6    7 1    
     5    6    8 1    
     6    8    9 2    
     7    8   10 am   
     8   10   11 1    
     9   11   12 2    
    10   11   13 2    
    11   11   14 1    
    12   14   15 1    
    13   15   16 1    
    14   16   17 1    
    15   16   18 1    
    16   17   22 1    
    17   18   19 1    
    18   18   20 1    
    19   20   21 1    
    20   20   22 1    
    21   22   23 1    
    22   23   24 1    
    23   23   27 1    
    24   24   25 2    
    25   25   26 1    
    26   26   27 ar   
    27   26   31 ar   
    28   27   28 ar   
    29   28   29 ar   
    30   29   30 ar   
    31   30   31 ar   
    32   31   32 1    
    33    1    2 1    
    34    2    3 1    
@<TRIPOS>SUBSTRUCTURE
     1 KAA601      1 GROUP   
@<TRIPOS>SET

