#    Name: 6gi8_1_FMN
#    Modification time : Fri May 22 19:31:16 2020

@<TRIPOS>MOLECULE
6gi8_1_FMN
   50    52     1     0     1
SMALL
NO_CHARGES


@<TRIPOS>ATOM
      1 N1         -6.7570   -7.5960   20.0060 N.2       1 FMN1401     0.0000 
      2 C2         -7.5560   -6.5050   20.3080 C.2       1 FMN1401     0.0000 
      3 O2         -8.4690   -6.1420   19.5260 O.2       1 FMN1401     0.0000 
      4 N3         -7.2640   -5.7370   21.3930 N.am      1 FMN1401     0.0000 
      5 C4         -6.2970   -6.0960   22.2890 C.2       1 FMN1401     0.0000 
      6 O4         -6.1150   -5.3370   23.2710 O.2       1 FMN1401     0.0000 
      7 C4A        -5.5780   -7.2370   22.0600 C.2       1 FMN1401     0.0000 
      8 N5         -4.5780   -7.6640   22.9500 N.2       1 FMN1401     0.0000 
      9 C5A        -3.7310   -8.6850   22.5830 C.ar      1 FMN1401     0.0000 
     10 C6         -2.6580   -8.9640   23.4310 C.ar      1 FMN1401     0.0000 
     11 C7         -1.7290   -9.9420   23.1090 C.ar      1 FMN1401     0.0000 
     12 C7M        -0.6200  -10.2570   24.1190 C.3       1 FMN1401     0.0000 
     13 C8         -1.8810  -10.6430   21.9190 C.ar      1 FMN1401     0.0000 
     14 C8M        -0.9210  -11.7530   21.5530 C.3       1 FMN1401     0.0000 
     15 C9         -2.9460  -10.3440   21.0430 C.ar      1 FMN1401     0.0000 
     16 C9A        -3.8420   -9.3170   21.3390 C.ar      1 FMN1401     0.0000 
     17 N10        -4.8990   -8.9580   20.4930 N.pl3     1 FMN1401     0.0000 
     18 C10        -5.7430   -7.9300   20.8570 C.2       1 FMN1401     0.0000 
     19 C1'        -5.0850   -9.5830   19.1610 C.3       1 FMN1401     0.0000 
     20 C2'        -4.0690   -8.8670   18.2580 C.3       1 FMN1401     0.0000 
     21 O2'        -4.4640   -7.5640   17.9280 O.3       1 FMN1401     0.0000 
     22 C3'        -3.9220   -9.5840   16.9300 C.3       1 FMN1401     0.0000 
     23 O3'        -5.1590   -9.6370   16.2300 O.3       1 FMN1401     0.0000 
     24 C4'        -3.4420  -11.0230   17.0950 C.3       1 FMN1401     0.0000 
     25 O4'        -2.2520  -10.9950   17.8440 O.3       1 FMN1401     0.0000 
     26 C5'        -3.2050  -11.8730   15.8350 C.3       1 FMN1401     0.0000 
     27 O5'        -2.2460  -11.3060   15.0060 O.3       1 FMN1401     0.0000 
     28 P          -0.6810  -11.7160   14.9660 P.3       1 FMN1401     0.0000 
     29 O1P        -0.5830  -13.1220   14.4380 O.co2     1 FMN1401     0.0000 
     30 O2P        -0.1150  -11.6050   16.3620 O.co2     1 FMN1401     0.0000 
     31 O3P        -0.0630  -10.7130   14.0300 O.co2     1 FMN1401     0.0000 
     32 HN3        -7.7900   -4.8530   21.5440 H         1 FMN1401     0.0000 
     33 H6         -2.5480   -8.4040   24.3600 H         1 FMN1401     0.0000 
     34 HM71       -0.6560  -11.3150   24.3810 H         1 FMN1401     0.0000 
     35 HM72        0.3490  -10.0240   23.6790 H         1 FMN1401     0.0000 
     36 HM73       -0.7650   -9.6560   25.0170 H         1 FMN1401     0.0000 
     37 HM81       -1.1290  -12.0930   20.5380 H         1 FMN1401     0.0000 
     38 HM82        0.1020  -11.3830   21.6090 H         1 FMN1401     0.0000 
     39 HM83       -1.0450  -12.5850   22.2460 H         1 FMN1401     0.0000 
     40 H9         -3.0700  -10.9210   20.1270 H         1 FMN1401     0.0000 
     41 H1'1       -6.1030   -9.4390   18.7980 H         1 FMN1401     0.0000 
     42 H1'2       -4.8910  -10.6540   19.1990 H         1 FMN1401     0.0000 
     43 H2'        -3.1420   -8.8520   18.8320 H         1 FMN1401     0.0000 
     44 HO2'       -4.6810   -7.5200   16.9730 H         1 FMN1401     0.0000 
     45 H3'        -3.1860   -9.0080   16.3680 H         1 FMN1401     0.0000 
     46 HO3'       -5.3870  -10.5710   16.0390 H         1 FMN1401     0.0000 
     47 H4'        -4.2770  -11.5270   17.5820 H         1 FMN1401     0.0000 
     48 HO4'       -1.6240  -11.6540   17.4830 H         1 FMN1401     0.0000 
     49 H5'1       -4.1420  -11.9720   15.2860 H         1 FMN1401     0.0000 
     50 H5'2       -2.8820  -12.8710   16.1290 H         1 FMN1401     0.0000 
@<TRIPOS>BOND
     1    1    2 1    
     2    1   18 2    
     3    2    3 2    
     4    2    4 am   
     5    4    5 am   
     6    4   32 1    
     7    5    6 2    
     8    5    7 1    
     9    7    8 2    
    10    7   18 1    
    11    8    9 1    
    12    9   10 ar   
    13    9   16 ar   
    14   10   11 ar   
    15   10   33 1    
    16   11   12 1    
    17   11   13 ar   
    18   12   34 1    
    19   12   35 1    
    20   12   36 1    
    21   13   14 1    
    22   13   15 ar   
    23   14   37 1    
    24   14   38 1    
    25   14   39 1    
    26   15   16 ar   
    27   15   40 1    
    28   16   17 1    
    29   17   18 1    
    30   17   19 1    
    31   19   20 1    
    32   19   41 1    
    33   19   42 1    
    34   20   21 1    
    35   20   22 1    
    36   20   43 1    
    37   21   44 1    
    38   22   23 1    
    39   22   24 1    
    40   22   45 1    
    41   23   46 1    
    42   24   25 1    
    43   24   26 1    
    44   24   47 1    
    45   25   48 1    
    46   26   27 1    
    47   26   49 1    
    48   26   50 1    
    49   27   28 1    
    50   28   29 ar   
    51   28   30 ar   
    52   28   31 ar   
@<TRIPOS>SUBSTRUCTURE
     1 FMN1401     1 GROUP   
@<TRIPOS>SET
ATOM$ORANGE STATIC     ATOMS   COLORGROUP SYSTEM 
34 2 2 5 5 7 7 9 9 10 10 11 11 12 12 13 13 14 \
14 15 15 16 16 18 18 19 19 20 20 22 22 24 24 26 26 

