#    Name: 6gi8_1_FMN_CAVITY_N1_ALL
#    Modification time : Fri May 22 19:31:18 2020

@<TRIPOS>MOLECULE
6gi8_1_FMN_CAVITY_N1_ALL
   72     0     6     0     0
SMALL
NO_CHARGES


@<TRIPOS>ATOM
      1 OG         -6.7900   -8.1300   20.7400 O.3       1 SER1        0.0000 
      2 OG         -7.7700   -8.1400   21.8800 O.3       1 SER1        0.0000 
      3 OG         -8.1800   -6.7400   21.5400 O.3       1 SER1        0.0000 
      4 OG         -4.9000  -10.4000   22.3300 O.3       1 SER1        0.0000 
      5 OG         -6.7000   -7.6100   22.7900 O.3       1 SER1        0.0000 
      6 OG         -7.6800   -7.6200   23.9300 O.3       1 SER1        0.0000 
      7 OG         -2.4500  -11.2600   22.4400 O.3       1 SER1        0.0000 
      8 OG         -2.8700   -9.8600   22.1000 O.3       1 SER1        0.0000 
      9 OG         -3.8400   -9.8700   23.2400 O.3       1 SER1        0.0000 
     10 OG         -5.6400   -7.0700   23.7000 O.3       1 SER1        0.0000 
     11 OG         -0.9800  -12.1200   23.6900 O.3       1 SER1        0.0000 
     12 OG         -1.3900  -10.7200   23.3500 O.3       1 SER1        0.0000 
     13 OG         -2.7800   -9.3300   24.1500 O.3       1 SER1        0.0000 
     14 O          -2.1600  -11.4100   14.8000 O.2       2 ALA2        0.0000 
     15 O          -2.5800  -10.0100   14.4600 O.2       2 ALA2        0.0000 
     16 O          -1.1000  -10.8800   15.7100 O.2       2 ALA2        0.0000 
     17 N          -4.4300   -9.5100   18.7900 N.am      2 ALA2        0.0000 
     18 N          -4.8500   -8.1100   18.4600 N.am      2 ALA2        0.0000 
     19 N          -3.3700   -8.9800   19.7100 N.am      2 ALA2        0.0000 
     20 N          -4.3400   -8.9900   20.8500 N.am      2 ALA2        0.0000 
     21 N          -5.7300   -7.6000   21.6500 N.am      2 ALA2        0.0000 
     22 N          -6.1400   -6.2000   21.3100 N.am      2 ALA2        0.0000 
     23 N          -7.1200   -6.2100   22.4500 N.am      2 ALA2        0.0000 
     24 O          -0.9200   -9.8300   19.8200 O.2       2 ALA2        0.0000 
     25 N          -2.3100   -8.4400   20.6200 N.am      2 ALA2        0.0000 
     26 O          -4.2500   -8.4600   22.9000 O.2       2 ALA2        0.0000 
     27 O          -4.6700   -7.0600   22.5600 O.2       2 ALA2        0.0000 
     28 N          -0.7400   -8.7900   23.9300 N.am      2 ALA2        0.0000 
     29 OD1        -1.7500  -12.8100   15.1400 O.co2     3 ASP3        0.0000 
     30 OD1        -4.5200  -10.0300   16.7400 O.co2     3 ASP3        0.0000 
     31 OD1        -5.5000  -10.0400   17.8800 O.co2     3 ASP3        0.0000 
     32 OD1        -0.6900  -12.2800   16.0500 O.co2     3 ASP3        0.0000 
     33 OD1        -1.6600  -12.2900   17.1900 O.co2     3 ASP3        0.0000 
     34 OD1        -5.8200   -8.1200   19.6000 O.co2     3 ASP3        0.0000 
     35 OD1        -7.2100   -6.7300   20.4000 O.co2     3 ASP3        0.0000 
     36 OD1        -0.6000  -11.7600   18.1000 O.co2     3 ASP3        0.0000 
     37 CZ         -5.4100   -9.5200   19.9300 C.ar      4 PHE5        0.0000 
     38 CZ          0.0000  -12.1100   22.5500 C.ar      4 PHE5        0.0000 
     39 CA         -2.7200  -12.8200   16.2800 C.3       5 GLY6        0.0000 
     40 CA         -4.1100  -11.4300   17.0800 C.3       5 GLY6        0.0000 
     41 CA         -5.0800  -11.4500   18.2200 C.3       5 GLY6        0.0000 
     42 CA         -2.0700  -10.8900   16.8500 C.3       5 GLY6        0.0000 
     43 CA         -2.4900   -9.4900   16.5100 C.3       5 GLY6        0.0000 
     44 CA         -3.0500  -10.9000   17.9900 C.3       5 GLY6        0.0000 
     45 CA         -3.8700   -8.1000   17.3100 C.3       5 GLY6        0.0000 
     46 CA         -4.0200  -10.9100   19.1300 C.3       5 GLY6        0.0000 
     47 CA         -1.0100  -10.3500   17.7600 C.3       5 GLY6        0.0000 
     48 CA         -1.5700  -11.7700   19.2400 C.3       5 GLY6        0.0000 
     49 CA         -1.9800  -10.3700   18.9000 C.3       5 GLY6        0.0000 
     50 CA         -2.4000   -8.9600   18.5700 C.3       5 GLY6        0.0000 
     51 CA         -2.5400  -11.7800   20.3800 C.3       5 GLY6        0.0000 
     52 CA         -3.5200  -11.7900   21.5300 C.3       5 GLY6        0.0000 
     53 CA         -0.5100  -11.2300   20.1600 C.3       5 GLY6        0.0000 
     54 CA         -1.3300   -8.4300   19.4800 C.3       5 GLY6        0.0000 
     55 CA         -1.0700  -12.6500   21.6400 C.3       5 GLY6        0.0000 
     56 CA         -2.0400  -12.6600   22.7800 C.3       5 GLY6        0.0000 
     57 CA         -3.2800   -8.4500   21.7600 C.3       5 GLY6        0.0000 
     58 CA          0.5600  -10.7000   21.0700 C.3       5 GLY6        0.0000 
     59 CA          0.1400   -9.3000   20.7300 C.3       5 GLY6        0.0000 
     60 CA         -0.4200  -10.7100   22.2100 C.3       5 GLY6        0.0000 
     61 CA         -0.8300   -9.3100   21.8700 C.3       5 GLY6        0.0000 
     62 CA         -1.8000   -9.3200   23.0100 C.3       5 GLY6        0.0000 
     63 CA          0.6500  -10.1800   23.1200 C.3       5 GLY6        0.0000 
     64 CA         -0.3300  -10.1900   24.2600 C.3       5 GLY6        0.0000 
     65 DU         -3.1400  -11.4200   15.9400 H         6 CUB7        0.0000 
     66 DU         -3.5500  -10.0200   15.6000 H         6 CUB7        0.0000 
     67 DU         -3.4600   -9.5000   17.6500 H         6 CUB7        0.0000 
     68 DU         -2.9600  -10.3800   20.0500 H         6 CUB7        0.0000 
     69 DU         -3.9300  -10.3900   21.1900 H         6 CUB7        0.0000 
     70 DU         -5.3200   -9.0000   21.9900 H         6 CUB7        0.0000 
     71 DU         -1.4800  -11.2500   21.3000 H         6 CUB7        0.0000 
     72 DU         -1.8900   -9.8400   20.9600 H         6 CUB7        0.0000 
@<TRIPOS>BOND
@<TRIPOS>SUBSTRUCTURE
     1 SER1        1 GROUP   
     2 ALA2       14 GROUP   
     3 ASP3       29 GROUP   
     4 PHE5       37 GROUP   
     5 GLY6       39 GROUP   
     6 CUB7       65 GROUP   
@<TRIPOS>SET

