#    Name: 6fp4_1_FAD
#    Modification time : Fri May 22 19:29:20 2020

@<TRIPOS>MOLECULE
6fp4_1_FAD
   84    89     1     0     1
SMALL
NO_CHARGES


@<TRIPOS>ATOM
      1 PA        141.5190    6.2070   69.1690 P.3       1 FAD601      0.0000 
      2 O1A       141.1940    5.3210   70.3710 O.co2     1 FAD601      0.0000 
      3 O2A       140.8130    5.7260   67.9420 O.co2     1 FAD601      0.0000 
      4 O5B       143.1910    6.2500   68.8260 O.3       1 FAD601      0.0000 
      5 C5B       144.0510    6.4420   69.9440 C.3       1 FAD601      0.0000 
      6 C4B       145.3790    5.6230   69.6160 C.3       1 FAD601      0.0000 
      7 O4B       146.3700    6.0880   70.3140 O.3       1 FAD601      0.0000 
      8 C3B       145.1540    4.1980   70.0730 C.3       1 FAD601      0.0000 
      9 O3B       145.7880    3.3180   69.2070 O.3       1 FAD601      0.0000 
     10 C2B       145.8010    4.1890   71.4640 C.3       1 FAD601      0.0000 
     11 O2B       146.1300    2.7600   71.8850 O.3       1 FAD601      0.0000 
     12 C1B       146.8670    4.8660   71.2320 C.3       1 FAD601      0.0000 
     13 N9A       147.5480    5.4230   72.4280 N.pl3     1 FAD601      0.0000 
     14 C8A       147.0720    5.6920   73.6760 C.2       1 FAD601      0.0000 
     15 N7A       148.0810    6.2020   74.3930 N.2       1 FAD601      0.0000 
     16 C5A       149.1820    6.2500   73.5970 C.ar      1 FAD601      0.0000 
     17 C6A       150.4720    6.6650   73.8090 C.ar      1 FAD601      0.0000 
     18 N6A       151.1680    7.2200   74.9670 N.pl3     1 FAD601      0.0000 
     19 N1A       151.3580    6.5940   72.8330 N.ar      1 FAD601      0.0000 
     20 C2A       150.9970    6.1090   71.6150 C.ar      1 FAD601      0.0000 
     21 N3A       149.7310    5.6960   71.4050 N.ar      1 FAD601      0.0000 
     22 C4A       148.8360    5.7660   72.3870 C.ar      1 FAD601      0.0000 
     23 N1        132.3080    6.2300   66.6940 N.2       1 FAD601      0.0000 
     24 C2        131.4420    6.5250   65.5380 C.2       1 FAD601      0.0000 
     25 O2        131.4840    7.6050   65.0140 O.2       1 FAD601      0.0000 
     26 N3        130.5220    5.4700   65.0340 N.am      1 FAD601      0.0000 
     27 C4        130.4750    4.1810   65.6730 C.2       1 FAD601      0.0000 
     28 O4        129.7420    3.3240   65.2810 O.2       1 FAD601      0.0000 
     29 C4X       131.3530    3.9150   66.8520 C.2       1 FAD601      0.0000 
     30 N5        131.3090    2.6270   67.4800 N.2       1 FAD601      0.0000 
     31 C5X       132.1980    2.3590   68.6590 C.ar      1 FAD601      0.0000 
     32 C6        132.1520    1.0990   69.2830 C.ar      1 FAD601      0.0000 
     33 C7        132.9690    0.8390   70.3750 C.ar      1 FAD601      0.0000 
     34 C7M       132.7500   -0.5720   70.8750 C.3       1 FAD601      0.0000 
     35 C8        133.8550    1.8500   70.8550 C.ar      1 FAD601      0.0000 
     36 C8M       134.8150    1.5700   72.1160 C.3       1 FAD601      0.0000 
     37 C9        133.8980    3.0900   70.2420 C.ar      1 FAD601      0.0000 
     38 C9A       133.0680    3.3600   69.1360 C.ar      1 FAD601      0.0000 
     39 N10       133.1100    4.6830   68.4780 N.pl3     1 FAD601      0.0000 
     40 C10       132.2520    4.9390   67.3380 C.2       1 FAD601      0.0000 
     41 C1'       133.9920    5.7580   68.9370 C.3       1 FAD601      0.0000 
     42 C2'       135.2650    5.8230   68.0590 C.3       1 FAD601      0.0000 
     43 O2'       135.9320    4.5930   68.0900 O.3       1 FAD601      0.0000 
     44 C3'       136.1280    6.9100   68.6540 C.3       1 FAD601      0.0000 
     45 O3'       135.3960    8.1180   68.6680 O.3       1 FAD601      0.0000 
     46 C4'       137.3740    7.0920   67.7980 C.3       1 FAD601      0.0000 
     47 O4'       138.1250    5.8990   67.7880 O.3       1 FAD601      0.0000 
     48 C5'       138.2020    8.2100   68.3990 C.3       1 FAD601      0.0000 
     49 O5'       139.4400    8.3830   67.6200 O.3       1 FAD601      0.0000 
     50 P         140.7110    8.9400   68.4880 P.3       1 FAD601      0.0000 
     51 O1P       141.8680    9.2030   67.6320 O.co2     1 FAD601      0.0000 
     52 O2P       140.2930   10.1160   69.2430 O.co2     1 FAD601      0.0000 
     53 O3P       141.0730    7.7410   69.5940 O.3       1 FAD601      0.0000 
     54 H51A      144.2520    7.3840   70.0580 H         1 FAD601      0.0000 
     55 H52A      143.6350    6.0900   70.7470 H         1 FAD601      0.0000 
     56 H4B       145.5820    5.6520   68.6680 H         1 FAD601      0.0000 
     57 H3B       144.2050    4.0060   70.1350 H         1 FAD601      0.0000 
     58 HO3A      145.2070    2.8320   68.8210 H         1 FAD601      0.0000 
     59 H2B       145.2360    4.6360   72.1140 H         1 FAD601      0.0000 
     60 HO2A      145.5200    2.4690   72.4010 H         1 FAD601      0.0000 
     61 H1B       147.4900    4.3180   70.7290 H         1 FAD601      0.0000 
     62 H8A       146.2020    5.5540   73.9740 H         1 FAD601      0.0000 
     63 H61A      151.2230    8.0730   75.0680 H         1 FAD601      0.0000 
     64 H62A      151.5220    6.6950   75.5480 H         1 FAD601      0.0000 
     65 H2A       151.6230    6.0610   70.9280 H         1 FAD601      0.0000 
     66 HN3       130.0140    5.6330   64.3590 H         1 FAD601      0.0000 
     67 H6        131.5390    0.5350   68.8690 H         1 FAD601      0.0000 
     68 HM71      133.4000   -1.1650   70.4640 H         1 FAD601      0.0000 
     69 HM72      132.8560   -0.5940   71.8390 H         1 FAD601      0.0000 
     70 HM73      131.8550   -0.8630   70.6410 H         1 FAD601      0.0000 
     71 HM81      134.4810    2.0480   72.8910 H         1 FAD601      0.0000 
     72 HM82      135.7140    1.8730   71.9120 H         1 FAD601      0.0000 
     73 HM83      134.8310    0.6190   72.3060 H         1 FAD601      0.0000 
     74 H9        134.5330    3.5620   70.7300 H         1 FAD601      0.0000 
     75 H1'1      133.5190    6.6040   68.9010 H         1 FAD601      0.0000 
     76 H1'2      134.2580    5.5790   69.8530 H         1 FAD601      0.0000 
     77 H2'       135.0270    6.0500   67.1460 H         1 FAD601      0.0000 
     78 HO2'      135.9060    4.2370   67.3190 H         1 FAD601      0.0000 
     79 H3'       136.3810    6.6710   69.5590 H         1 FAD601      0.0000 
     80 HO3'      135.3720    8.4260   69.4600 H         1 FAD601      0.0000 
     81 H4'       137.1190    7.3250   66.8920 H         1 FAD601      0.0000 
     82 HO4'      138.3480    5.7100   66.9900 H         1 FAD601      0.0000 
     83 H5'1      138.4270    7.9850   69.3150 H         1 FAD601      0.0000 
     84 H5'2      137.6920    9.0350   68.3850 H         1 FAD601      0.0000 
@<TRIPOS>BOND
     1    1    2 ar   
     2    1    3 ar   
     3    1    4 1    
     4    1   53 1    
     5    4    5 1    
     6    5    6 1    
     7    5   54 1    
     8    5   55 1    
     9    6    7 1    
    10    6    8 1    
    11    6   56 1    
    12    7   12 1    
    13    8    9 1    
    14    8   10 1    
    15    8   57 1    
    16    9   58 1    
    17   10   11 1    
    18   10   12 1    
    19   10   59 1    
    20   12   61 1    
    21   12   13 1    
    22   11   60 1    
    23   13   14 1    
    24   13   22 1    
    25   14   15 2    
    26   15   16 1    
    27   14   62 1    
    28   16   17 ar   
    29   16   22 ar   
    30   17   18 1    
    31   17   19 ar   
    32   19   20 ar   
    33   18   63 1    
    34   18   64 1    
    35   20   21 ar   
    36   21   22 ar   
    37   20   65 1    
    38   23   24 1    
    39   23   40 2    
    40   24   25 2    
    41   24   26 am   
    42   26   27 am   
    43   27   28 2    
    44   26   66 1    
    45   27   29 1    
    46   29   30 2    
    47   29   40 1    
    48   30   31 1    
    49   31   32 ar   
    50   31   38 ar   
    51   32   33 ar   
    52   33   34 1    
    53   32   67 1    
    54   33   35 ar   
    55   34   68 1    
    56   34   69 1    
    57   34   70 1    
    58   35   36 1    
    59   35   37 ar   
    60   37   74 1    
    61   36   71 1    
    62   36   72 1    
    63   36   73 1    
    64   37   38 ar   
    65   38   39 1    
    66   39   40 1    
    67   39   41 1    
    68   41   42 1    
    69   41   75 1    
    70   41   76 1    
    71   42   43 1    
    72   42   44 1    
    73   42   77 1    
    74   43   78 1    
    75   44   45 1    
    76   44   46 1    
    77   44   79 1    
    78   45   80 1    
    79   46   47 1    
    80   46   48 1    
    81   46   81 1    
    82   47   82 1    
    83   48   49 1    
    84   48   83 1    
    85   48   84 1    
    86   49   50 1    
    87   50   51 ar   
    88   50   52 ar   
    89   50   53 1    
@<TRIPOS>SUBSTRUCTURE
     1 FAD601      1 GROUP   
@<TRIPOS>SET
ATOM$ORANGE STATIC     ATOMS   COLORGROUP SYSTEM 
54 5 5 6 6 8 8 10 10 12 12 14 14 16 16 17 17 20 \
20 22 22 24 24 27 27 29 29 31 31 32 32 33 33 34 34 35 \
35 36 36 37 37 38 38 40 40 41 41 42 42 44 44 46 46 48 \
48 

