#    Name: 6vpo_1_GTP
#    Modification time : Fri May 22 19:26:02 2020

@<TRIPOS>MOLECULE
6vpo_1_GTP
   32    34     1     0     1
SMALL
NO_CHARGES


@<TRIPOS>ATOM
      1 PG        229.2400  376.8260  206.0180 P.3       1 GTP501      0.0000 
      2 O1G       228.9850  376.0460  207.2840 O.co2     1 GTP501      0.0000 
      3 O2G       229.8840  378.1490  206.3430 O.co2     1 GTP501      0.0000 
      4 O3G       227.9380  377.0530  205.2880 O.co2     1 GTP501      0.0000 
      5 O3B       230.2310  375.9590  205.1000 O.3       1 GTP501      0.0000 
      6 PB        229.8610  374.4470  204.7060 P.3       1 GTP501      0.0000 
      7 O1B       229.8020  373.5940  205.9470 O.co2     1 GTP501      0.0000 
      8 O2B       230.8690  373.9330  203.7120 O.co2     1 GTP501      0.0000 
      9 O3A       228.4030  374.5770  204.0460 O.3       1 GTP501      0.0000 
     10 PA        228.3430  375.2700  202.6020 P.3       1 GTP501      0.0000 
     11 O1A       229.1420  374.4130  201.6490 O.co2     1 GTP501      0.0000 
     12 O2A       228.9170  376.6640  202.6750 O.co2     1 GTP501      0.0000 
     13 O5'       226.8050  375.2660  202.1180 O.3       1 GTP501      0.0000 
     14 C5'       225.6980  375.1080  202.9750 C.3       1 GTP501      0.0000 
     15 C4'       224.5020  374.7650  202.0890 C.3       1 GTP501      0.0000 
     16 O4'       224.9180  373.9320  201.0280 O.3       1 GTP501      0.0000 
     17 C3'       223.3920  374.0080  202.7950 C.3       1 GTP501      0.0000 
     18 O3'       222.3840  374.8870  203.2280 O.3       1 GTP501      0.0000 
     19 C2'       222.8330  373.0940  201.7240 C.3       1 GTP501      0.0000 
     20 O2'       221.5980  373.5820  201.2600 O.3       1 GTP501      0.0000 
     21 C1'       223.8530  373.1110  200.5980 C.3       1 GTP501      0.0000 
     22 N9        224.3440  371.7440  200.3710 N.pl3     1 GTP501      0.0000 
     23 C8        225.4890  371.1980  200.8840 C.2       1 GTP501      0.0000 
     24 N7        225.5990  369.9260  200.4410 N.2       1 GTP501      0.0000 
     25 C5        224.5470  369.6560  199.6440 C.2       1 GTP501      0.0000 
     26 C6        224.1820  368.5190  198.9440 C.2       1 GTP501      0.0000 
     27 O6        224.8860  367.5140  198.9960 O.2       1 GTP501      0.0000 
     28 N1        223.0290  368.5270  198.1960 N.am      1 GTP501      0.0000 
     29 C2        222.2510  369.6640  198.1480 C.2       1 GTP501      0.0000 
     30 N2        221.1360  369.6700  197.4260 N.pl3     1 GTP501      0.0000 
     31 N3        222.6180  370.7910  198.8510 N.2       1 GTP501      0.0000 
     32 C4        223.7500  370.7890  199.5890 C.2       1 GTP501      0.0000 
@<TRIPOS>BOND
     1    1    2 ar   
     2    1    3 ar   
     3    1    4 ar   
     4    1    5 1    
     5    5    6 1    
     6    6    7 ar   
     7    6    8 ar   
     8    6    9 1    
     9    9   10 1    
    10   10   11 ar   
    11   10   12 ar   
    12   10   13 1    
    13   13   14 1    
    14   14   15 1    
    15   15   16 1    
    16   15   17 1    
    17   16   21 1    
    18   17   18 1    
    19   17   19 1    
    20   19   20 1    
    21   19   21 1    
    22   21   22 1    
    23   22   23 1    
    24   22   32 1    
    25   23   24 2    
    26   24   25 1    
    27   25   26 1    
    28   25   32 2    
    29   26   27 2    
    30   26   28 am   
    31   28   29 1    
    32   29   30 1    
    33   29   31 2    
    34   31   32 1    
@<TRIPOS>SUBSTRUCTURE
     1 GTP501      1 GROUP   
@<TRIPOS>SET
ATOM$ORANGE STATIC     ATOMS   COLORGROUP SYSTEM 
20 14 14 15 15 17 17 19 19 21 21 23 23 25 25 26 26 29 \
29 32 32 

