#    Name: 6vpo_2_GDP
#    Modification time : Fri May 22 19:26:07 2020

@<TRIPOS>MOLECULE
6vpo_2_GDP
   28    30     1     0     1
SMALL
NO_CHARGES


@<TRIPOS>ATOM
      1 PB        227.9190  375.3700  245.0570 P.3       1 GDP502      0.0000 
      2 O1B       227.9350  376.8280  244.6690 O.co2     1 GDP502      0.0000 
      3 O2B       229.2730  374.7830  244.7640 O.co2     1 GDP502      0.0000 
      4 O3B       227.6280  375.2390  246.5300 O.co2     1 GDP502      0.0000 
      5 O3A       226.7920  374.6020  244.2090 O.3       1 GDP502      0.0000 
      6 PA        225.3650  374.3670  244.9020 P.3       1 GDP502      0.0000 
      7 O1A       225.3740  373.0550  245.6470 O.co2     1 GDP502      0.0000 
      8 O2A       225.0240  375.5100  245.8270 O.co2     1 GDP502      0.0000 
      9 O5'       224.3020  374.3110  243.7010 O.3       1 GDP502      0.0000 
     10 C5'       222.9470  374.5700  244.0460 C.3       1 GDP502      0.0000 
     11 C4'       222.0130  373.8870  243.0680 C.3       1 GDP502      0.0000 
     12 O4'       222.6750  372.7940  242.4410 O.3       1 GDP502      0.0000 
     13 C3'       220.8250  373.2900  243.8000 C.3       1 GDP502      0.0000 
     14 O3'       219.6710  374.1150  243.6200 O.3       1 GDP502      0.0000 
     15 C2'       220.6070  371.9360  243.1600 C.3       1 GDP502      0.0000 
     16 O2'       219.3440  371.9050  242.4970 O.3       1 GDP502      0.0000 
     17 C1'       221.7120  371.7910  242.1310 C.3       1 GDP502      0.0000 
     18 N9        222.3070  370.4400  242.2090 N.pl3     1 GDP502      0.0000 
     19 C8        222.9910  369.9370  243.2490 C.2       1 GDP502      0.0000 
     20 N7        223.4040  368.6700  242.9910 N.2       1 GDP502      0.0000 
     21 C5        222.9810  368.3530  241.7580 C.2       1 GDP502      0.0000 
     22 C6        223.0730  367.1740  240.8730 C.2       1 GDP502      0.0000 
     23 O6        223.6690  366.1420  241.2390 O.2       1 GDP502      0.0000 
     24 N1        222.4970  367.2500  239.6720 N.am      1 GDP502      0.0000 
     25 C2        221.8480  368.3490  239.2530 C.2       1 GDP502      0.0000 
     26 N2        221.2930  368.3410  238.0180 N.pl3     1 GDP502      0.0000 
     27 N3        221.7230  369.4660  240.0110 N.2       1 GDP502      0.0000 
     28 C4        222.2630  369.5230  241.2450 C.2       1 GDP502      0.0000 
@<TRIPOS>BOND
     1    1    2 ar   
     2    1    3 ar   
     3    1    4 ar   
     4    1    5 1    
     5    5    6 1    
     6    6    7 ar   
     7    6    8 ar   
     8    6    9 1    
     9    9   10 1    
    10   10   11 1    
    11   11   12 1    
    12   11   13 1    
    13   12   17 1    
    14   13   14 1    
    15   13   15 1    
    16   15   16 1    
    17   15   17 1    
    18   17   18 1    
    19   18   19 1    
    20   18   28 1    
    21   19   20 2    
    22   20   21 1    
    23   21   22 1    
    24   21   28 2    
    25   22   23 2    
    26   22   24 am   
    27   24   25 1    
    28   25   26 1    
    29   25   27 2    
    30   27   28 1    
@<TRIPOS>SUBSTRUCTURE
     1 GDP502      1 GROUP   
@<TRIPOS>SET
ATOM$ORANGE STATIC     ATOMS   COLORGROUP SYSTEM 
20 10 10 11 11 13 13 15 15 17 17 19 19 21 21 22 22 25 \
25 28 28 

