#    Name: 5tjz_3_NAP
#    Modification time : Fri May 22 19:13:27 2020

@<TRIPOS>MOLECULE
5tjz_3_NAP
   48    52     1     0     1
SMALL
NO_CHARGES


@<TRIPOS>ATOM
      1 PA         10.6240   10.5980   18.5310 P.3       1 NAP304      0.0000 
      2 O1A        12.0810   10.6720   18.6600 O.co2     1 NAP304      0.0000 
      3 O2A         9.9430    9.2890   18.1860 O.co2     1 NAP304      0.0000 
      4 O5B        10.0710   11.6080   17.4340 O.3       1 NAP304      0.0000 
      5 C5B        10.6270   12.9310   17.2550 C.3       1 NAP304      0.0000 
      6 C4B        10.7600   13.0550   15.7220 C.3       1 NAP304      0.0000 
      7 O4B        11.2050   14.4110   15.4690 O.3       1 NAP304      0.0000 
      8 C3B        11.8310   12.1380   15.1370 C.3       1 NAP304      0.0000 
      9 O3B        11.3030   11.4590   13.9690 O.3       1 NAP304      0.0000 
     10 C2B        12.9670   13.0850   14.7750 C.3       1 NAP304      0.0000 
     11 O2B        13.8210   12.6580   13.6970 O.3       1 NAP304      0.0000 
     12 C1B        12.1950   14.3120   14.4280 C.3       1 NAP304      0.0000 
     13 N9A        12.9720   15.5550   14.3820 N.pl3     1 NAP304      0.0000 
     14 C8A        14.1010   15.8560   15.0510 C.2       1 NAP304      0.0000 
     15 N7A        14.5110   17.1130   14.7330 N.2       1 NAP304      0.0000 
     16 C5A        13.6080   17.6080   13.8740 C.ar      1 NAP304      0.0000 
     17 C6A        13.4030   18.8580   13.1290 C.ar      1 NAP304      0.0000 
     18 N6A        14.3110   19.8560   13.2940 N.pl3     1 NAP304      0.0000 
     19 N1A        12.3150   18.9530   12.2910 N.ar      1 NAP304      0.0000 
     20 C2A        11.4200   17.9400   12.1480 C.ar      1 NAP304      0.0000 
     21 N3A        11.5550   16.7680   12.8010 N.ar      1 NAP304      0.0000 
     22 C4A        12.5940   16.5870   13.6500 C.ar      1 NAP304      0.0000 
     23 O3          9.9890   11.2250   19.9090 O.3       1 NAP304      0.0000 
     24 PN          8.5080   11.1280   20.4770 P.3       1 NAP304      0.0000 
     25 O1N         7.5110   11.1900   19.4110 O.co2     1 NAP304      0.0000 
     26 O2N         8.4930    9.9690   21.4660 O.co2     1 NAP304      0.0000 
     27 O5D         8.4660   12.4400   21.3770 O.3       1 NAP304      0.0000 
     28 C5D         8.6580   13.7260   20.7330 C.3       1 NAP304      0.0000 
     29 C4D         8.5810   14.7880   21.8360 C.3       1 NAP304      0.0000 
     30 O4D         7.2460   14.8990   22.3390 O.3       1 NAP304      0.0000 
     31 C3D         9.5040   14.5380   23.0250 C.3       1 NAP304      0.0000 
     32 O3D        10.0140   15.8100   23.5200 O.3       1 NAP304      0.0000 
     33 C2D         8.4940   13.9980   24.0730 C.3       1 NAP304      0.0000 
     34 O2D         8.9170   14.1820   25.4250 O.3       1 NAP304      0.0000 
     35 C1D         7.2560   14.7770   23.8150 C.3       1 NAP304      0.0000 
     36 N1N         5.9740   14.1710   24.1290 N.pl3     1 NAP304      0.0000 
     37 C2N         5.0050   14.9750   24.5190 C.ar      1 NAP304      0.0000 
     38 C3N         3.7030   14.5430   24.7240 C.ar      1 NAP304      0.0000 
     39 C7N         2.6250   15.4610   25.1320 C.2       1 NAP304      0.0000 
     40 O7N         1.4460   15.0510   25.3090 O.2       1 NAP304      0.0000 
     41 N7N         2.8650   16.7820   25.1950 N.am      1 NAP304      0.0000 
     42 C4N         3.3630   13.1280   24.3910 C.ar      1 NAP304      0.0000 
     43 C5N         4.4480   12.3420   23.9370 C.ar      1 NAP304      0.0000 
     44 C6N         5.7380   12.8550   23.7680 C.ar      1 NAP304      0.0000 
     45 P2B        15.1150   11.7930   14.1650 P.3       1 NAP304      0.0000 
     46 O1X        14.6830   10.5840   14.9840 O.co2     1 NAP304      0.0000 
     47 O2X        15.7000   11.3730   12.8130 O.co2     1 NAP304      0.0000 
     48 O3X        16.0470   12.7730   14.8240 O.co2     1 NAP304      0.0000 
@<TRIPOS>BOND
     1    1    2 ar   
     2    1    3 ar   
     3    1    4 1    
     4    1   23 1    
     5    4    5 1    
     6    5    6 1    
     7    6    7 1    
     8    6    8 1    
     9    7   12 1    
    10    8    9 1    
    11    8   10 1    
    12   10   11 1    
    13   10   12 1    
    14   11   45 1    
    15   12   13 1    
    16   13   14 1    
    17   13   22 1    
    18   14   15 2    
    19   15   16 1    
    20   16   17 ar   
    21   16   22 ar   
    22   17   18 1    
    23   17   19 ar   
    24   19   20 ar   
    25   20   21 ar   
    26   21   22 ar   
    27   23   24 1    
    28   24   25 ar   
    29   24   26 ar   
    30   24   27 1    
    31   27   28 1    
    32   28   29 1    
    33   29   30 1    
    34   29   31 1    
    35   30   35 1    
    36   31   32 1    
    37   31   33 1    
    38   33   34 1    
    39   33   35 1    
    40   35   36 1    
    41   36   37 ar   
    42   36   44 ar   
    43   37   38 ar   
    44   38   39 1    
    45   38   42 ar   
    46   39   40 2    
    47   39   41 am   
    48   42   43 ar   
    49   43   44 ar   
    50   45   46 ar   
    51   45   47 ar   
    52   45   48 ar   
@<TRIPOS>SUBSTRUCTURE
     1 NAP304      1 GROUP   
@<TRIPOS>SET
ATOM$ORANGE STATIC     ATOMS   COLORGROUP SYSTEM 
42 5 5 6 6 8 8 10 10 12 12 14 14 16 16 17 17 20 \
20 22 22 28 28 29 29 31 31 33 33 35 35 37 37 38 38 39 \
39 42 42 43 43 44 44 

