#    Name: 5tjz_3_NAP_CAVITY_N1_4
#    Modification time : Fri May 22 19:13:30 2020

@<TRIPOS>MOLECULE
5tjz_3_NAP_CAVITY_N1_4
   85     0     6     0     0
SMALL
NO_CHARGES


@<TRIPOS>ATOM
      1 OG          7.2400   10.7900   24.9100 O.3       1 SER1        0.0000 
      2 OG          6.3200    9.7900   25.5500 O.3       1 SER1        0.0000 
      3 OG          9.2500   15.3000   24.3100 O.3       1 SER1        0.0000 
      4 OG          8.3400   14.3000   24.9500 O.3       1 SER1        0.0000 
      5 O          10.6500    9.7900   17.6600 O.2       2 ALA2        0.0000 
      6 N           9.7200   13.2900   18.2900 N.am      2 ALA2        0.0000 
      7 N           8.8000   12.2900   18.9300 N.am      2 ALA2        0.0000 
      8 O           7.8900   11.2900   19.5700 O.2       2 ALA2        0.0000 
      9 N          11.7500   13.3000   17.7000 N.am      2 ALA2        0.0000 
     10 N          10.8400   12.3000   18.3400 N.am      2 ALA2        0.0000 
     11 N           9.2000   12.7900   20.2900 N.am      2 ALA2        0.0000 
     12 N          11.2300   12.8000   19.6900 N.am      2 ALA2        0.0000 
     13 N          10.3200   11.8000   20.3300 N.am      2 ALA2        0.0000 
     14 N          13.2700   12.8100   19.1000 N.am      2 ALA2        0.0000 
     15 N          12.3500   11.8100   19.7400 N.am      2 ALA2        0.0000 
     16 N           8.4700   14.2900   21.6000 N.am      2 ALA2        0.0000 
     17 N           9.5900   13.3000   21.6400 N.am      2 ALA2        0.0000 
     18 N          11.6300   13.3000   21.0500 N.am      2 ALA2        0.0000 
     19 N          10.7100   12.3000   21.6900 N.am      2 ALA2        0.0000 
     20 N          12.7500   12.3100   21.0900 N.am      2 ALA2        0.0000 
     21 N           4.7900   14.7800   24.1400 N.am      2 ALA2        0.0000 
     22 N           6.8200   14.7900   23.5500 N.am      2 ALA2        0.0000 
     23 N          10.9000   14.8000   22.3600 N.am      2 ALA2        0.0000 
     24 N           5.1800   15.2900   25.5000 N.am      2 ALA2        0.0000 
     25 N           4.2700   14.2800   26.1300 N.am      2 ALA2        0.0000 
     26 N           3.3500   13.2800   26.7700 N.am      2 ALA2        0.0000 
     27 N           3.7400   13.7900   28.1300 N.am      2 ALA2        0.0000 
     28 N           5.7800   13.7900   27.5400 N.am      2 ALA2        0.0000 
     29 OD1         9.0100   10.2900   19.6100 O.co2     3 ASP3        0.0000 
     30 OD1        11.0500   10.3000   19.0200 O.co2     3 ASP3        0.0000 
     31 OD1         7.4200   13.3000   25.5900 O.co2     3 ASP3        0.0000 
     32 OD1         6.5100   12.2900   26.2200 O.co2     3 ASP3        0.0000 
     33 OD1         9.4600   13.3000   24.9900 O.co2     3 ASP3        0.0000 
     34 OD1         8.5500   12.3000   25.6300 O.co2     3 ASP3        0.0000 
     35 OD1         7.6300   11.3000   26.2700 O.co2     3 ASP3        0.0000 
     36 OD1         6.9000   12.8000   27.5800 O.co2     3 ASP3        0.0000 
     37 OD1         7.2900   13.3000   28.9400 O.co2     3 ASP3        0.0000 
     38 CZ          2.3600   14.2700   23.3800 C.ar      4 PHE5        0.0000 
     39 CZ          3.4800   13.2800   23.4200 C.ar      4 PHE5        0.0000 
     40 CZ          2.5600   12.2700   24.0600 C.ar      4 PHE5        0.0000 
     41 CZ          6.4300   14.2900   22.1900 C.ar      4 PHE5        0.0000 
     42 CZ          5.5200   13.2800   22.8300 C.ar      4 PHE5        0.0000 
     43 CZ          3.6900   11.2800   24.1000 C.ar      4 PHE5        0.0000 
     44 CZ          3.8900    9.2800   24.7900 C.ar      4 PHE5        0.0000 
     45 CZ         13.6600   13.3100   20.4600 C.ar      4 PHE5        0.0000 
     46 CZ          2.7500   14.7700   24.7300 C.ar      4 PHE5        0.0000 
     47 CZ          1.8400   13.7700   25.3700 C.ar      4 PHE5        0.0000 
     48 CZ          3.8700   13.7800   24.7800 C.ar      4 PHE5        0.0000 
     49 CZ          2.9600   12.7800   25.4200 C.ar      4 PHE5        0.0000 
     50 CZ          4.0800   11.7800   25.4600 C.ar      4 PHE5        0.0000 
     51 CZ          2.4400   12.2800   27.4100 C.ar      4 PHE5        0.0000 
     52 CZ          4.4700   12.2900   26.8200 C.ar      4 PHE5        0.0000 
     53 CZ          3.5600   11.2800   27.4600 C.ar      4 PHE5        0.0000 
     54 CZ          5.5900   11.2900   26.8600 C.ar      4 PHE5        0.0000 
     55 CA         11.1700   10.2900   15.6700 C.3       5 GLY6        0.0000 
     56 CA         10.4500   11.7900   16.9800 C.3       5 GLY6        0.0000 
     57 CA          9.5300   10.7900   17.6200 C.3       5 GLY6        0.0000 
     58 CA         11.5700   10.8000   17.0200 C.3       5 GLY6        0.0000 
     59 CA          8.0700   13.7900   20.2400 C.3       5 GLY6        0.0000 
     60 CA          7.1600   12.7900   20.8800 C.3       5 GLY6        0.0000 
     61 CA          4.6000   12.2800   23.4700 C.3       5 GLY6        0.0000 
     62 CA          6.6400   12.2900   22.8700 C.3       5 GLY6        0.0000 
     63 CA          5.7200   11.2800   23.5100 C.3       5 GLY6        0.0000 
     64 CA          4.8100   10.2800   24.1500 C.3       5 GLY6        0.0000 
     65 CA          7.7400   15.7900   22.9100 C.3       5 GLY6        0.0000 
     66 CA          8.8600   14.8000   22.9500 C.3       5 GLY6        0.0000 
     67 CA          4.2800    9.7800   26.1400 C.3       5 GLY6        0.0000 
     68 CA          7.2200   15.2900   24.9000 C.3       5 GLY6        0.0000 
     69 CA          6.3000   14.2900   25.5400 C.3       5 GLY6        0.0000 
     70 CA          6.7000   14.8000   26.9000 C.3       5 GLY6        0.0000 
     71 DU          9.9200   11.2900   18.9700 H         6 CUB7        0.0000 
     72 DU         11.9600   11.3000   18.3800 H         6 CUB7        0.0000 
     73 DU          8.2800   11.7900   20.9200 H         6 CUB7        0.0000 
     74 DU          7.5500   13.2900   22.2300 H         6 CUB7        0.0000 
     75 DU          8.6700   12.2900   22.2800 H         6 CUB7        0.0000 
     76 DU          7.7600   11.2900   22.9200 H         6 CUB7        0.0000 
     77 DU          5.9100   13.7900   24.1800 H         6 CUB7        0.0000 
     78 DU          4.9900   12.7800   24.8200 H         6 CUB7        0.0000 
     79 DU          7.9500   13.7900   23.5900 H         6 CUB7        0.0000 
     80 DU          7.0300   12.7900   24.2300 H         6 CUB7        0.0000 
     81 DU          6.1200   11.7900   24.8700 H         6 CUB7        0.0000 
     82 DU          5.2000   10.7900   25.5100 H         6 CUB7        0.0000 
     83 DU          9.9800   13.8000   23.0000 H         6 CUB7        0.0000 
     84 DU         11.1000   12.8100   23.0400 H         6 CUB7        0.0000 
     85 DU          5.3900   13.2900   26.1800 H         6 CUB7        0.0000 
@<TRIPOS>BOND
@<TRIPOS>SUBSTRUCTURE
     1 SER1        1 GROUP   
     2 ALA2        5 GROUP   
     3 ASP3       29 GROUP   
     4 PHE5       38 GROUP   
     5 GLY6       55 GROUP   
     6 CUB7       71 GROUP   
@<TRIPOS>SET

