#    Name: 6ghl_3_NAD
#    Modification time : Fri May 22 19:30:06 2020

@<TRIPOS>MOLECULE
6ghl_3_NAD
   44    48     1     0     1
SMALL
NO_CHARGES


@<TRIPOS>ATOM
      1 PA        -14.6940   13.0370   20.7460 P.3       1 NAD1001     0.0000 
      2 O1A       -13.3230   12.9150   20.1280 O.co2     1 NAD1001     0.0000 
      3 O2A       -15.5350   11.8070   20.9910 O.co2     1 NAD1001     0.0000 
      4 O5B       -15.5510   14.0480   19.8320 O.3       1 NAD1001     0.0000 
      5 C5B       -14.8930   14.9600   18.9650 C.3       1 NAD1001     0.0000 
      6 C4B       -15.5670   14.9080   17.6080 C.3       1 NAD1001     0.0000 
      7 O4B       -15.3010   16.1250   16.9220 O.3       1 NAD1001     0.0000 
      8 C3B       -15.0020   13.7780   16.7590 C.3       1 NAD1001     0.0000 
      9 O3B       -16.0890   13.1130   16.1090 O.3       1 NAD1001     0.0000 
     10 C2B       -14.1100   14.4650   15.7430 C.3       1 NAD1001     0.0000 
     11 O2B       -14.1160   13.7750   14.4950 O.3       1 NAD1001     0.0000 
     12 C1B       -14.7440   15.8410   15.6320 C.3       1 NAD1001     0.0000 
     13 N9A       -13.7910   16.9210   15.2670 N.pl3     1 NAD1001     0.0000 
     14 C8A       -12.5560   17.1250   15.7670 C.2       1 NAD1001     0.0000 
     15 N7A       -11.9780   18.2200   15.2090 N.2       1 NAD1001     0.0000 
     16 C5A       -12.8630   18.7380   14.3300 C.ar      1 NAD1001     0.0000 
     17 C6A       -12.9060   19.8890   13.3950 C.ar      1 NAD1001     0.0000 
     18 N6A       -11.8580   20.7420   13.2820 N.pl3     1 NAD1001     0.0000 
     19 N1A       -14.0270   20.0650   12.6620 N.ar      1 NAD1001     0.0000 
     20 C2A       -15.0830   19.2370   12.7590 C.ar      1 NAD1001     0.0000 
     21 N3A       -15.1180   18.1710   13.5800 N.ar      1 NAD1001     0.0000 
     22 C4A       -14.0560   17.8750   14.3730 C.ar      1 NAD1001     0.0000 
     23 O3        -14.5540   13.8610   22.1270 O.3       1 NAD1001     0.0000 
     24 PN        -15.8000   14.2640   23.0750 P.3       1 NAD1001     0.0000 
     25 O1N       -17.0980   14.1830   22.3010 O.co2     1 NAD1001     0.0000 
     26 O2N       -15.6580   13.4740   24.3580 O.co2     1 NAD1001     0.0000 
     27 O5D       -15.4370   15.8110   23.3910 O.3       1 NAD1001     0.0000 
     28 C5D       -16.2800   16.9010   23.0130 C.3       1 NAD1001     0.0000 
     29 C4D       -16.1240   18.0750   23.9800 C.3       1 NAD1001     0.0000 
     30 O4D       -16.9960   17.9140   25.1080 O.3       1 NAD1001     0.0000 
     31 C3D       -14.7060   18.1930   24.5200 C.3       1 NAD1001     0.0000 
     32 O3D       -14.3010   19.5670   24.4400 O.3       1 NAD1001     0.0000 
     33 C2D       -14.8120   17.7580   25.9710 C.3       1 NAD1001     0.0000 
     34 O2D       -13.8780   18.4600   26.8030 O.3       1 NAD1001     0.0000 
     35 C1D       -16.2600   18.0790   26.3270 C.3       1 NAD1001     0.0000 
     36 N1N       -16.8220   17.1980   27.3590 N.pl3     1 NAD1001     0.0000 
     37 C2N       -16.6760   15.8680   27.2720 C.ar      1 NAD1001     0.0000 
     38 C3N       -17.2180   15.0340   28.2450 C.ar      1 NAD1001     0.0000 
     39 C7N       -17.0470   13.5460   28.1400 C.2       1 NAD1001     0.0000 
     40 O7N       -17.3360   12.8410   29.0950 O.2       1 NAD1001     0.0000 
     41 N7N       -16.5830   13.0350   26.9990 N.am      1 NAD1001     0.0000 
     42 C4N       -17.9230   15.5800   29.3110 C.ar      1 NAD1001     0.0000 
     43 C5N       -18.0650   16.9580   29.3750 C.ar      1 NAD1001     0.0000 
     44 C6N       -17.5070   17.7470   28.3740 C.ar      1 NAD1001     0.0000 
@<TRIPOS>BOND
     1    1    2 ar   
     2    1    3 ar   
     3    1    4 1    
     4    1   23 1    
     5    4    5 1    
     6    5    6 1    
     7    6    7 1    
     8    6    8 1    
     9    7   12 1    
    10    8    9 1    
    11    8   10 1    
    12   10   11 1    
    13   10   12 1    
    14   12   13 1    
    15   13   14 1    
    16   13   22 1    
    17   14   15 2    
    18   15   16 1    
    19   16   17 ar   
    20   16   22 ar   
    21   17   18 1    
    22   17   19 ar   
    23   19   20 ar   
    24   20   21 ar   
    25   21   22 ar   
    26   23   24 1    
    27   24   25 ar   
    28   24   26 ar   
    29   24   27 1    
    30   27   28 1    
    31   28   29 1    
    32   29   30 1    
    33   29   31 1    
    34   30   35 1    
    35   31   32 1    
    36   31   33 1    
    37   33   34 1    
    38   33   35 1    
    39   35   36 1    
    40   36   37 ar   
    41   36   44 ar   
    42   37   38 ar   
    43   38   39 1    
    44   38   42 ar   
    45   39   40 2    
    46   39   41 am   
    47   42   43 ar   
    48   43   44 ar   
@<TRIPOS>SUBSTRUCTURE
     1 NAD1001     1 GROUP   
@<TRIPOS>SET
ATOM$ORANGE STATIC     ATOMS   COLORGROUP SYSTEM 
42 5 5 6 6 8 8 10 10 12 12 14 14 16 16 17 17 20 \
20 22 22 28 28 29 29 31 31 33 33 35 35 37 37 38 38 39 \
39 42 42 43 43 44 44 

