#    Name: 6ghl_4_NAD_CAVITY_N1_4
#    Modification time : Fri May 22 19:30:18 2020

@<TRIPOS>MOLECULE
6ghl_4_NAD_CAVITY_N1_4
   80     0     7     0     0
SMALL
NO_CHARGES


@<TRIPOS>ATOM
      1 OG        -22.4800  -19.8500   38.5500 O.3       1 SER1        0.0000 
      2 OG        -21.2800  -21.4500   39.2400 O.3       1 SER1        0.0000 
      3 OG        -20.3500  -18.4800   38.0000 O.3       1 SER1        0.0000 
      4 OG        -21.7900  -18.9200   39.5000 O.3       1 SER1        0.0000 
      5 OG        -21.9100  -19.9400   40.5900 O.3       1 SER1        0.0000 
      6 OG        -20.0100  -20.6100   42.2300 O.3       1 SER1        0.0000 
      7 OG        -22.7700  -20.4700   44.1200 O.3       1 SER1        0.0000 
      8 OG        -21.9600  -18.5200   43.9700 O.3       1 SER1        0.0000 
      9 OG        -20.7500  -20.1200   44.6600 O.3       1 SER1        0.0000 
     10 OG        -22.0700  -19.5400   45.0700 O.3       1 SER1        0.0000 
     11 OG        -21.2600  -17.5900   44.9200 O.3       1 SER1        0.0000 
     12 OG        -20.0500  -19.1900   45.6100 O.3       1 SER1        0.0000 
     13 O         -26.5400  -25.7500   44.9500 O.2       2 ALA2        0.0000 
     14 N         -25.3300  -27.3600   45.6400 N.am      2 ALA2        0.0000 
     15 N         -22.6000  -20.8700   39.6400 N.am      2 ALA2        0.0000 
     16 N         -23.9300  -20.2900   40.0400 N.am      2 ALA2        0.0000 
     17 N         -22.7200  -21.9000   40.7300 N.am      2 ALA2        0.0000 
     18 N         -22.8400  -22.9200   41.8200 N.am      2 ALA2        0.0000 
     19 O         -25.8400  -24.8200   45.9000 O.2       2 ALA2        0.0000 
     20 N         -24.6400  -26.4200   46.5900 N.am      2 ALA2        0.0000 
     21 N         -25.9600  -25.8400   46.9900 N.am      2 ALA2        0.0000 
     22 O         -21.6700  -17.9000   38.4000 O.2       2 ALA2        0.0000 
     23 O         -24.5500  -18.7800   41.3900 O.2       2 ALA2        0.0000 
     24 N         -20.7000  -21.5500   41.2800 N.am      2 ALA2        0.0000 
     25 N         -22.0200  -20.9600   41.6800 N.am      2 ALA2        0.0000 
     26 N         -20.8200  -22.5700   42.3700 N.am      2 ALA2        0.0000 
     27 N         -22.1400  -21.9900   42.7700 N.am      2 ALA2        0.0000 
     28 N         -20.1200  -21.6400   43.3200 N.am      2 ALA2        0.0000 
     29 N         -19.4300  -20.7000   44.2600 N.am      2 ALA2        0.0000 
     30 OD1       -19.6500  -17.5500   38.9500 O.co2     3 ASP3        0.0000 
     31 OD1       -19.7700  -18.5700   40.0400 O.co2     3 ASP3        0.0000 
     32 OD1       -19.8900  -19.5900   41.1300 O.co2     3 ASP3        0.0000 
     33 OD1       -19.1900  -18.6600   42.0800 O.co2     3 ASP3        0.0000 
     34 OD1       -20.5100  -18.0800   42.4800 O.co2     3 ASP3        0.0000 
     35 OD1       -19.3100  -19.6800   43.1700 O.co2     3 ASP3        0.0000 
     36 NZ        -24.9100  -21.8500   44.6600 N.4       4 LYS4        0.0000 
     37 NZ        -22.3800  -24.0300   44.9500 N.4       4 LYS4        0.0000 
     38 NZ        -23.9800  -18.8700   43.4300 N.4       4 LYS4        0.0000 
     39 NZ        -24.0900  -19.8900   44.5200 N.4       4 LYS4        0.0000 
     40 NZ        -21.5700  -22.0800   44.8100 N.4       4 LYS4        0.0000 
     41 CZ        -25.2100  -26.3300   44.5500 C.ar      5 PHE5        0.0000 
     42 CA        -24.0400  -21.3100   41.1300 C.3       6 GLY6        0.0000 
     43 CA        -24.1600  -22.3400   42.2200 C.3       6 GLY6        0.0000 
     44 CA        -22.9600  -23.9400   42.9100 C.3       6 GLY6        0.0000 
     45 CA        -24.2800  -23.3600   43.3100 C.3       6 GLY6        0.0000 
     46 CA        -25.6000  -22.7800   43.7100 C.3       6 GLY6        0.0000 
     47 CA        -23.0800  -24.9600   44.0000 C.3       6 GLY6        0.0000 
     48 CA        -24.4000  -24.3800   44.4100 C.3       6 GLY6        0.0000 
     49 CA        -25.7200  -23.8000   44.8100 C.3       6 GLY6        0.0000 
     50 CA        -23.2000  -25.9800   45.1000 C.3       6 GLY6        0.0000 
     51 CA        -23.1100  -18.3400   39.9000 C.3       6 GLY6        0.0000 
     52 CA        -23.2300  -19.3600   40.9900 C.3       6 GLY6        0.0000 
     53 CA        -22.2600  -23.0100   43.8600 C.3       6 GLY6        0.0000 
     54 CA        -23.5900  -22.4300   44.2600 C.3       6 GLY6        0.0000 
     55 CA        -23.7000  -23.4500   45.3500 C.3       6 GLY6        0.0000 
     56 CA        -25.0300  -22.8700   45.7500 C.3       6 GLY6        0.0000 
     57 CA        -23.8200  -24.4700   46.4400 C.3       6 GLY6        0.0000 
     58 CA        -25.1500  -23.8900   46.8500 C.3       6 GLY6        0.0000 
     59 CA        -19.5300  -16.5300   37.8600 C.3       6 GLY6        0.0000 
     60 CA        -22.4100  -17.4100   40.8400 C.3       6 GLY6        0.0000 
     61 CA        -23.8600  -17.8500   42.3400 C.3       6 GLY6        0.0000 
     62 CA        -22.8900  -21.5000   45.2100 C.3       6 GLY6        0.0000 
     63 CA        -20.2800  -16.0300   40.3000 C.3       6 GLY6        0.0000 
     64 CA        -20.4000  -17.0600   41.3900 C.3       6 GLY6        0.0000 
     65 CA        -21.7200  -16.4800   41.7900 C.3       6 GLY6        0.0000 
     66 CA        -20.8700  -21.1500   45.7600 C.3       6 GLY6        0.0000 
     67 CA        -21.1400  -16.5700   43.8300 C.3       6 GLY6        0.0000 
     68 DU        -24.5200  -25.4000   45.5000 H         7 CUB7        0.0000 
     69 DU        -23.3500  -20.3800   42.0800 H         7 CUB7        0.0000 
     70 DU        -23.4700  -21.4000   43.1700 H         7 CUB7        0.0000 
     71 DU        -20.9700  -16.9700   39.3500 H         7 CUB7        0.0000 
     72 DU        -21.0900  -17.9900   40.4400 H         7 CUB7        0.0000 
     73 DU        -21.2100  -19.0100   41.5300 H         7 CUB7        0.0000 
     74 DU        -22.5300  -18.4300   41.9300 H         7 CUB7        0.0000 
     75 DU        -21.3300  -20.0300   42.6300 H         7 CUB7        0.0000 
     76 DU        -22.6500  -19.4500   43.0300 H         7 CUB7        0.0000 
     77 DU        -21.4500  -21.0500   43.7200 H         7 CUB7        0.0000 
     78 DU        -21.8400  -17.5000   42.8800 H         7 CUB7        0.0000 
     79 DU        -20.6300  -19.1000   43.5700 H         7 CUB7        0.0000 
     80 DU        -19.9400  -18.1700   44.5200 H         7 CUB7        0.0000 
@<TRIPOS>BOND
@<TRIPOS>SUBSTRUCTURE
     1 SER1        1 GROUP   
     2 ALA2       13 GROUP   
     3 ASP3       30 GROUP   
     4 LYS4       36 GROUP   
     5 PHE5       41 GROUP   
     6 GLY6       42 GROUP   
     7 CUB7       68 GROUP   
@<TRIPOS>SET

