#    Name: 6ghl_2_NAD
#    Modification time : Fri May 22 19:29:53 2020

@<TRIPOS>MOLECULE
6ghl_2_NAD
   44    48     1     0     1
SMALL
NO_CHARGES


@<TRIPOS>ATOM
      1 PA          1.7560    4.3790   16.6880 P.3       1 NAD1001     0.0000 
      2 O1A         0.4880    5.0840   16.2620 O.co2     1 NAD1001     0.0000 
      3 O2A         1.9350    3.8950   18.1110 O.co2     1 NAD1001     0.0000 
      4 O5B         3.0070    5.3200   16.3220 O.3       1 NAD1001     0.0000 
      5 C5B         2.9820    6.1120   15.1420 C.3       1 NAD1001     0.0000 
      6 C4B         3.9610    7.2570   15.3260 C.3       1 NAD1001     0.0000 
      7 O4B         4.2620    7.8490   14.0610 O.3       1 NAD1001     0.0000 
      8 C3B         3.3680    8.3430   16.2130 C.3       1 NAD1001     0.0000 
      9 O3B         4.2780    8.6380   17.2750 O.3       1 NAD1001     0.0000 
     10 C2B         3.2220    9.5500   15.3080 C.3       1 NAD1001     0.0000 
     11 O2B         3.5510   10.7490   16.0130 O.3       1 NAD1001     0.0000 
     12 C1B         4.2170    9.2710   14.1940 C.3       1 NAD1001     0.0000 
     13 N9A         3.8220    9.8880   12.9090 N.pl3     1 NAD1001     0.0000 
     14 C8A         2.6140    9.8000   12.3210 C.2       1 NAD1001     0.0000 
     15 N7A         2.5970   10.4830   11.1460 N.2       1 NAD1001     0.0000 
     16 C5A         3.8210   11.0240   10.9700 C.ar      1 NAD1001     0.0000 
     17 C6A         4.4850   11.8650    9.9410 C.ar      1 NAD1001     0.0000 
     18 N6A         3.8110   12.2720    8.8360 N.pl3     1 NAD1001     0.0000 
     19 N1A         5.7800   12.2070   10.1470 N.ar      1 NAD1001     0.0000 
     20 C2A         6.4550   11.8050   11.2460 C.ar      1 NAD1001     0.0000 
     21 N3A         5.9170   11.0430   12.2190 N.ar      1 NAD1001     0.0000 
     22 C4A         4.6250   10.6300   12.1410 C.ar      1 NAD1001     0.0000 
     23 O3          1.9920    3.1730   15.6410 O.3       1 NAD1001     0.0000 
     24 PN          2.6300    1.7280   15.9520 P.3       1 NAD1001     0.0000 
     25 O1N         4.0410    1.8900   16.4730 O.co2     1 NAD1001     0.0000 
     26 O2N         1.6020    0.9170   16.7100 O.co2     1 NAD1001     0.0000 
     27 O5D         2.6980    1.1510   14.4450 O.3       1 NAD1001     0.0000 
     28 C5D         3.7400    1.5150   13.5340 C.3       1 NAD1001     0.0000 
     29 C4D         3.6730    0.6240   12.2950 C.3       1 NAD1001     0.0000 
     30 O4D         4.1340   -0.6910   12.6260 O.3       1 NAD1001     0.0000 
     31 C3D         2.2460    0.4860   11.7850 C.3       1 NAD1001     0.0000 
     32 O3D         2.2310    0.7600   10.3830 O.3       1 NAD1001     0.0000 
     33 C2D         1.8560   -0.9590   12.0380 C.3       1 NAD1001     0.0000 
     34 O2D         1.1370   -1.4810   10.9180 O.3       1 NAD1001     0.0000 
     35 C1D         3.1850   -1.6840   12.2210 C.3       1 NAD1001     0.0000 
     36 N1N         3.1750   -2.7620   13.2220 N.pl3     1 NAD1001     0.0000 
     37 C2N         2.6610   -2.5810   14.4500 C.ar      1 NAD1001     0.0000 
     38 C3N         2.6800   -3.6240   15.3820 C.ar      1 NAD1001     0.0000 
     39 C7N         2.1110   -3.4470   16.7640 C.2       1 NAD1001     0.0000 
     40 O7N         0.9800   -3.8280   17.0100 O.2       1 NAD1001     0.0000 
     41 N7N         2.8590   -2.8660   17.6980 N.am      1 NAD1001     0.0000 
     42 C4N         3.2590   -4.8420   15.0410 C.ar      1 NAD1001     0.0000 
     43 C5N         3.7890   -5.0020   13.7710 C.ar      1 NAD1001     0.0000 
     44 C6N         3.7380   -3.9340   12.8860 C.ar      1 NAD1001     0.0000 
@<TRIPOS>BOND
     1    1    2 ar   
     2    1    3 ar   
     3    1    4 1    
     4    1   23 1    
     5    4    5 1    
     6    5    6 1    
     7    6    7 1    
     8    6    8 1    
     9    7   12 1    
    10    8    9 1    
    11    8   10 1    
    12   10   11 1    
    13   10   12 1    
    14   12   13 1    
    15   13   14 1    
    16   13   22 1    
    17   14   15 2    
    18   15   16 1    
    19   16   17 ar   
    20   16   22 ar   
    21   17   18 1    
    22   17   19 ar   
    23   19   20 ar   
    24   20   21 ar   
    25   21   22 ar   
    26   23   24 1    
    27   24   25 ar   
    28   24   26 ar   
    29   24   27 1    
    30   27   28 1    
    31   28   29 1    
    32   29   30 1    
    33   29   31 1    
    34   30   35 1    
    35   31   32 1    
    36   31   33 1    
    37   33   34 1    
    38   33   35 1    
    39   35   36 1    
    40   36   37 ar   
    41   36   44 ar   
    42   37   38 ar   
    43   38   39 1    
    44   38   42 ar   
    45   39   40 2    
    46   39   41 am   
    47   42   43 ar   
    48   43   44 ar   
@<TRIPOS>SUBSTRUCTURE
     1 NAD1001     1 GROUP   
@<TRIPOS>SET
ATOM$ORANGE STATIC     ATOMS   COLORGROUP SYSTEM 
42 5 5 6 6 8 8 10 10 12 12 14 14 16 16 17 17 20 \
20 22 22 28 28 29 29 31 31 33 33 35 35 37 37 38 38 39 \
39 42 42 43 43 44 44 

