#    Name: 6ghl_4_NAD
#    Modification time : Fri May 22 19:30:15 2020

@<TRIPOS>MOLECULE
6ghl_4_NAD
   44    48     1     0     1
SMALL
NO_CHARGES


@<TRIPOS>ATOM
      1 PA        -21.7290  -18.5370   38.5100 P.3       1 NAD1001     0.0000 
      2 O1A       -20.5130  -18.7590   39.3710 O.co2     1 NAD1001     0.0000 
      3 O2A       -22.1720  -17.1290   38.1780 O.co2     1 NAD1001     0.0000 
      4 O5B       -22.9730  -19.3160   39.1730 O.3       1 NAD1001     0.0000 
      5 C5B       -22.7810  -20.1500   40.3120 C.3       1 NAD1001     0.0000 
      6 C4B       -23.8780  -19.8800   41.3280 C.3       1 NAD1001     0.0000 
      7 O4B       -24.2560  -21.1000   41.9660 O.3       1 NAD1001     0.0000 
      8 C3B       -23.3690  -18.9400   42.4030 C.3       1 NAD1001     0.0000 
      9 O3B       -24.3290  -17.9010   42.6220 O.3       1 NAD1001     0.0000 
     10 C2B       -23.2370  -19.7930   43.6480 C.3       1 NAD1001     0.0000 
     11 O2B       -23.6410  -19.0320   44.7910 O.3       1 NAD1001     0.0000 
     12 C1B       -24.1710  -20.9680   43.3890 C.3       1 NAD1001     0.0000 
     13 N9A       -23.6880  -22.2440   43.9880 N.pl3     1 NAD1001     0.0000 
     14 C8A       -22.4230  -22.7080   43.9530 C.2       1 NAD1001     0.0000 
     15 N7A       -22.3190  -23.9060   44.5890 N.2       1 NAD1001     0.0000 
     16 C5A       -23.5440  -24.2310   45.0500 C.ar      1 NAD1001     0.0000 
     17 C6A       -24.1410  -25.3610   45.8090 C.ar      1 NAD1001     0.0000 
     18 N6A       -23.3830  -26.4110   46.2120 N.pl3     1 NAD1001     0.0000 
     19 N1A       -25.4670  -25.3080   46.0810 N.ar      1 NAD1001     0.0000 
     20 C2A       -26.2300  -24.2700   45.6860 C.ar      1 NAD1001     0.0000 
     21 N3A       -25.7540  -23.2160   44.9980 N.ar      1 NAD1001     0.0000 
     22 C4A       -24.4420  -23.1310   44.6540 C.ar      1 NAD1001     0.0000 
     23 O3        -21.4950  -19.4000   37.1620 O.3       1 NAD1001     0.0000 
     24 PN        -22.4150  -19.3350   35.8370 P.3       1 NAD1001     0.0000 
     25 O1N       -23.8500  -19.0450   36.2170 O.co2     1 NAD1001     0.0000 
     26 O2N       -21.6940  -18.4740   34.8290 O.co2     1 NAD1001     0.0000 
     27 O5D       -22.3060  -20.8620   35.3370 O.3       1 NAD1001     0.0000 
     28 C5D       -23.2590  -21.8490   35.7390 C.3       1 NAD1001     0.0000 
     29 C4D       -23.2300  -23.0080   34.7490 C.3       1 NAD1001     0.0000 
     30 O4D       -23.6950  -22.5620   33.4670 O.3       1 NAD1001     0.0000 
     31 C3D       -21.8200  -23.5410   34.5470 C.3       1 NAD1001     0.0000 
     32 O3D       -21.8380  -24.9530   34.7690 O.3       1 NAD1001     0.0000 
     33 C2D       -21.4770  -23.2390   33.0960 C.3       1 NAD1001     0.0000 
     34 O2D       -20.7530  -24.3040   32.4720 O.3       1 NAD1001     0.0000 
     35 C1D       -22.8310  -23.0520   32.4340 C.3       1 NAD1001     0.0000 
     36 N1N       -22.7730  -22.1010   31.3230 N.pl3     1 NAD1001     0.0000 
     37 C2N       -22.2710  -20.8710   31.5090 C.ar      1 NAD1001     0.0000 
     38 C3N       -22.2240  -19.9610   30.4540 C.ar      1 NAD1001     0.0000 
     39 C7N       -21.6580  -18.5860   30.6560 C.2       1 NAD1001     0.0000 
     40 O7N       -20.8820  -18.1410   29.8260 O.2       1 NAD1001     0.0000 
     41 N7N       -22.0000  -17.8950   31.7430 N.am      1 NAD1001     0.0000 
     42 C4N       -22.7120  -20.3300   29.2050 C.ar      1 NAD1001     0.0000 
     43 C5N       -23.2260  -21.6080   29.0390 C.ar      1 NAD1001     0.0000 
     44 C6N       -23.2500  -22.4760   30.1260 C.ar      1 NAD1001     0.0000 
@<TRIPOS>BOND
     1    1    2 ar   
     2    1    3 ar   
     3    1    4 1    
     4    1   23 1    
     5    4    5 1    
     6    5    6 1    
     7    6    7 1    
     8    6    8 1    
     9    7   12 1    
    10    8    9 1    
    11    8   10 1    
    12   10   11 1    
    13   10   12 1    
    14   12   13 1    
    15   13   14 1    
    16   13   22 1    
    17   14   15 2    
    18   15   16 1    
    19   16   17 ar   
    20   16   22 ar   
    21   17   18 1    
    22   17   19 ar   
    23   19   20 ar   
    24   20   21 ar   
    25   21   22 ar   
    26   23   24 1    
    27   24   25 ar   
    28   24   26 ar   
    29   24   27 1    
    30   27   28 1    
    31   28   29 1    
    32   29   30 1    
    33   29   31 1    
    34   30   35 1    
    35   31   32 1    
    36   31   33 1    
    37   33   34 1    
    38   33   35 1    
    39   35   36 1    
    40   36   37 ar   
    41   36   44 ar   
    42   37   38 ar   
    43   38   39 1    
    44   38   42 ar   
    45   39   40 2    
    46   39   41 am   
    47   42   43 ar   
    48   43   44 ar   
@<TRIPOS>SUBSTRUCTURE
     1 NAD1001     1 GROUP   
@<TRIPOS>SET
ATOM$ORANGE STATIC     ATOMS   COLORGROUP SYSTEM 
42 5 5 6 6 8 8 10 10 12 12 14 14 16 16 17 17 20 \
20 22 22 28 28 29 29 31 31 33 33 35 35 37 37 38 38 39 \
39 42 42 43 43 44 44 

