#    Name: 6ghl_1_NAD
#    Modification time : Fri May 22 19:29:42 2020

@<TRIPOS>MOLECULE
6ghl_1_NAD
   44    48     1     0     1
SMALL
NO_CHARGES


@<TRIPOS>ATOM
      1 PA         -5.6130  -14.2400   47.7680 P.3       1 NAD1001     0.0000 
      2 O1A        -7.0070  -14.7730   47.5380 O.co2     1 NAD1001     0.0000 
      3 O2A        -4.6910  -14.0220   46.5910 O.co2     1 NAD1001     0.0000 
      4 O5B        -4.8660  -15.2000   48.8260 O.3       1 NAD1001     0.0000 
      5 C5B        -5.5800  -16.1190   49.6510 C.3       1 NAD1001     0.0000 
      6 C4B        -4.8380  -17.4500   49.6830 C.3       1 NAD1001     0.0000 
      7 O4B        -5.0850  -18.1370   50.9130 O.3       1 NAD1001     0.0000 
      8 C3B        -5.3170  -18.3520   48.5590 C.3       1 NAD1001     0.0000 
      9 O3B        -4.1790  -18.9440   47.9330 O.3       1 NAD1001     0.0000 
     10 C2B        -6.1380  -19.4250   49.2400 C.3       1 NAD1001     0.0000 
     11 O2B        -5.9870  -20.6620   48.5390 O.3       1 NAD1001     0.0000 
     12 C1B        -5.5630  -19.4630   50.6530 C.3       1 NAD1001     0.0000 
     13 N9A        -6.5490  -19.8330   51.7070 N.pl3     1 NAD1001     0.0000 
     14 C8A        -7.7640  -19.2750   51.8900 C.2       1 NAD1001     0.0000 
     15 N7A        -8.4130  -19.8310   52.9480 N.2       1 NAD1001     0.0000 
     16 C5A        -7.5990  -20.7710   53.4710 C.ar      1 NAD1001     0.0000 
     17 C6A        -7.6630  -21.7320   54.6040 C.ar      1 NAD1001     0.0000 
     18 N6A        -8.7570  -21.7930   55.4050 N.pl3     1 NAD1001     0.0000 
     19 N1A        -6.5950  -22.5390   54.8060 N.ar      1 NAD1001     0.0000 
     20 C2A        -5.5030  -22.4860   54.0200 C.ar      1 NAD1001     0.0000 
     21 N3A        -5.3770  -21.6390   52.9790 N.ar      1 NAD1001     0.0000 
     22 C4A        -6.3720  -20.7700   52.6510 C.ar      1 NAD1001     0.0000 
     23 O3         -5.7660  -12.8660   48.6010 O.3       1 NAD1001     0.0000 
     24 PN         -4.5400  -11.9090   49.0300 P.3       1 NAD1001     0.0000 
     25 O1N        -3.2600  -12.7150   49.0820 O.co2     1 NAD1001     0.0000 
     26 O2N        -4.6140  -10.6720   48.1660 O.co2     1 NAD1001     0.0000 
     27 O5D        -4.9980  -11.4690   50.5210 O.3       1 NAD1001     0.0000 
     28 C5D        -4.2810  -11.8300   51.7060 C.3       1 NAD1001     0.0000 
     29 C4D        -4.5670  -10.8440   52.8430 C.3       1 NAD1001     0.0000 
     30 O4D        -3.6710   -9.7310   52.7610 O.3       1 NAD1001     0.0000 
     31 C3D        -5.9820  -10.2800   52.7950 C.3       1 NAD1001     0.0000 
     32 O3D        -6.6210  -10.4980   54.0590 O.3       1 NAD1001     0.0000 
     33 C2D        -5.8290   -8.7900   52.5490 C.3       1 NAD1001     0.0000 
     34 O2D        -6.7270   -8.0450   53.3800 O.3       1 NAD1001     0.0000 
     35 C1D        -4.3790   -8.4930   52.9060 C.3       1 NAD1001     0.0000 
     36 N1N        -3.7650   -7.4620   52.0560 N.pl3     1 NAD1001     0.0000 
     37 C2N        -3.8940   -7.5080   50.7190 C.ar      1 NAD1001     0.0000 
     38 C3N        -3.3070   -6.5330   49.9150 C.ar      1 NAD1001     0.0000 
     39 C7N        -3.4470   -6.5800   48.4180 C.2       1 NAD1001     0.0000 
     40 O7N        -3.5420   -5.5360   47.7910 O.2       1 NAD1001     0.0000 
     41 N7N        -3.4680   -7.7660   47.8120 N.am      1 NAD1001     0.0000 
     42 C4N        -2.5680   -5.5170   50.5070 C.ar      1 NAD1001     0.0000 
     43 C5N        -2.4460   -5.4910   51.8870 C.ar      1 NAD1001     0.0000 
     44 C6N        -3.0520   -6.4880   52.6410 C.ar      1 NAD1001     0.0000 
@<TRIPOS>BOND
     1    1    2 ar   
     2    1    3 ar   
     3    1    4 1    
     4    1   23 1    
     5    4    5 1    
     6    5    6 1    
     7    6    7 1    
     8    6    8 1    
     9    7   12 1    
    10    8    9 1    
    11    8   10 1    
    12   10   11 1    
    13   10   12 1    
    14   12   13 1    
    15   13   14 1    
    16   13   22 1    
    17   14   15 2    
    18   15   16 1    
    19   16   17 ar   
    20   16   22 ar   
    21   17   18 1    
    22   17   19 ar   
    23   19   20 ar   
    24   20   21 ar   
    25   21   22 ar   
    26   23   24 1    
    27   24   25 ar   
    28   24   26 ar   
    29   24   27 1    
    30   27   28 1    
    31   28   29 1    
    32   29   30 1    
    33   29   31 1    
    34   30   35 1    
    35   31   32 1    
    36   31   33 1    
    37   33   34 1    
    38   33   35 1    
    39   35   36 1    
    40   36   37 ar   
    41   36   44 ar   
    42   37   38 ar   
    43   38   39 1    
    44   38   42 ar   
    45   39   40 2    
    46   39   41 am   
    47   42   43 ar   
    48   43   44 ar   
@<TRIPOS>SUBSTRUCTURE
     1 NAD1001     1 GROUP   
@<TRIPOS>SET
ATOM$ORANGE STATIC     ATOMS   COLORGROUP SYSTEM 
42 5 5 6 6 8 8 10 10 12 12 14 14 16 16 17 17 20 \
20 22 22 28 28 29 29 31 31 33 33 35 35 37 37 38 38 39 \
39 42 42 43 43 44 44 

