#    Name: 5xiw_3_GTP
#    Modification time : Fri May 22 19:18:38 2020

@<TRIPOS>MOLECULE
5xiw_3_GTP
   32    34     1     0     1
SMALL
NO_CHARGES


@<TRIPOS>ATOM
      1 PG        -26.9430   74.0360  -46.2390 P.3       1 GTP501      0.0000 
      2 O1G       -26.7450   72.5830  -46.6080 O.co2     1 GTP501      0.0000 
      3 O2G       -25.7120   74.6400  -45.6180 O.co2     1 GTP501      0.0000 
      4 O3G       -28.2230   74.3350  -45.5030 O.co2     1 GTP501      0.0000 
      5 O3B       -27.1530   74.8230  -47.6410 O.3       1 GTP501      0.0000 
      6 PB        -26.3000   76.0960  -48.1820 P.3       1 GTP501      0.0000 
      7 O1B       -26.9990   76.5370  -49.4420 O.co2     1 GTP501      0.0000 
      8 O2B       -26.0920   77.1280  -47.1050 O.co2     1 GTP501      0.0000 
      9 O3A       -24.8570   75.4570  -48.5590 O.3       1 GTP501      0.0000 
     10 PA        -23.7150   76.2000  -49.4400 P.3       1 GTP501      0.0000 
     11 O1A       -24.2910   77.4800  -49.9990 O.co2     1 GTP501      0.0000 
     12 O2A       -22.4510   76.2970  -48.6160 O.co2     1 GTP501      0.0000 
     13 O5'       -23.4500   75.1600  -50.6420 O.3       1 GTP501      0.0000 
     14 C5'       -22.2960   74.3210  -50.7160 C.3       1 GTP501      0.0000 
     15 C4'       -21.6750   74.4880  -52.1030 C.3       1 GTP501      0.0000 
     16 O4'       -21.6230   75.8760  -52.4250 O.3       1 GTP501      0.0000 
     17 C3'       -20.2440   73.9790  -52.2120 C.3       1 GTP501      0.0000 
     18 O3'       -20.0770   73.3590  -53.4920 O.3       1 GTP501      0.0000 
     19 C2'       -19.3620   75.2090  -52.1140 C.3       1 GTP501      0.0000 
     20 O2'       -18.1800   75.0950  -52.9150 O.3       1 GTP501      0.0000 
     21 C1'       -20.2750   76.3070  -52.6280 C.3       1 GTP501      0.0000 
     22 N9        -20.0980   77.5990  -51.9310 N.pl3     1 GTP501      0.0000 
     23 C8        -20.3980   77.8920  -50.6520 C.2       1 GTP501      0.0000 
     24 N7        -20.1170   79.1910  -50.3780 N.2       1 GTP501      0.0000 
     25 C5        -19.6350   79.7500  -51.5050 C.2       1 GTP501      0.0000 
     26 C6        -19.1430   81.0880  -51.9310 C.2       1 GTP501      0.0000 
     27 O6        -19.1080   82.0470  -51.1270 O.2       1 GTP501      0.0000 
     28 N1        -18.7250   81.2300  -53.2060 N.am      1 GTP501      0.0000 
     29 C2        -18.7450   80.2140  -54.1000 C.2       1 GTP501      0.0000 
     30 N2        -18.3160   80.4210  -55.3630 N.pl3     1 GTP501      0.0000 
     31 N3        -19.1850   78.9710  -53.7790 N.2       1 GTP501      0.0000 
     32 C4        -19.6290   78.6890  -52.5260 C.2       1 GTP501      0.0000 
@<TRIPOS>BOND
     1    1    2 ar   
     2    1    3 ar   
     3    1    4 ar   
     4    1    5 1    
     5    5    6 1    
     6    6    7 ar   
     7    6    8 ar   
     8    6    9 1    
     9    9   10 1    
    10   10   11 ar   
    11   10   12 ar   
    12   10   13 1    
    13   13   14 1    
    14   14   15 1    
    15   15   16 1    
    16   15   17 1    
    17   16   21 1    
    18   17   18 1    
    19   17   19 1    
    20   19   20 1    
    21   19   21 1    
    22   21   22 1    
    23   22   23 1    
    24   22   32 1    
    25   23   24 2    
    26   24   25 1    
    27   25   26 1    
    28   25   32 2    
    29   26   27 2    
    30   26   28 am   
    31   28   29 1    
    32   29   30 1    
    33   29   31 2    
    34   31   32 1    
@<TRIPOS>SUBSTRUCTURE
     1 GTP501      1 GROUP   
@<TRIPOS>SET
ATOM$ORANGE STATIC     ATOMS   COLORGROUP SYSTEM 
20 14 14 15 15 17 17 19 19 21 21 23 23 25 25 26 26 29 \
29 32 32 

