#    Name: 5xiw_2_LOC
#    Modification time : Fri May 22 19:18:26 2020

@<TRIPOS>MOLECULE
5xiw_2_LOC
   29    31     1     0     0
SMALL
NO_CHARGES


@<TRIPOS>ATOM
      1 O4        -11.0250   11.6480   18.4720 O.2       1 LOC503      0.0000 
      2 C12       -11.8290   12.2730   17.9120 C.2       1 LOC503      0.0000 
      3 C13       -11.4020   13.2710   16.8620 C.3       1 LOC503      0.0000 
      4 N1        -13.2820   12.1340   18.1780 N.am      1 LOC503      0.0000 
      5 C11       -13.7980   11.2540   19.1160 C.3       1 LOC503      0.0000 
      6 C14       -13.5250    9.7690   18.7260 C.2       1 LOC503      0.0000 
      7 C15       -13.7820    9.5070   17.2830 C.2       1 LOC503      0.0000 
      8 C10       -15.2840   11.5840   19.3660 C.3       1 LOC503      0.0000 
      9 C9        -15.9330   10.7640   20.5320 C.3       1 LOC503      0.0000 
     10 C8        -14.9230   10.1510   21.5340 C.ar      1 LOC503      0.0000 
     11 C7        -15.0650   10.4450   22.9840 C.ar      1 LOC503      0.0000 
     12 C5        -14.1380    9.8850   23.9060 C.ar      1 LOC503      0.0000 
     13 C3        -13.1010    9.0820   23.4540 C.ar      1 LOC503      0.0000 
     14 C1        -12.9290    8.7900   22.0270 C.ar      1 LOC503      0.0000 
     15 O1        -11.8180    7.9280   21.6310 O.3       1 LOC503      0.0000 
     16 C2        -10.5340    8.5360   21.5790 C.3       1 LOC503      0.0000 
     17 O2        -12.1800    8.5430   24.4220 O.3       1 LOC503      0.0000 
     18 C4        -12.5060    7.2160   24.8910 C.3       1 LOC503      0.0000 
     19 O3        -14.2570   10.1600   25.3160 O.3       1 LOC503      0.0000 
     20 C6        -15.2440    9.4840   25.9980 C.3       1 LOC503      0.0000 
     21 C22       -13.9220    9.3470   21.0840 C.ar      1 LOC503      0.0000 
     22 C21       -13.5600    8.9600   19.7360 C.2       1 LOC503      0.0000 
     23 C20       -14.0580    7.6720   19.7020 C.2       1 LOC503      0.0000 
     24 C19       -13.9670    6.7440   18.6780 C.2       1 LOC503      0.0000 
     25 C17       -13.8770    6.9560   17.2700 C.2       1 LOC503      0.0000 
     26 C16       -13.9410    8.2350   16.5550 C.2       1 LOC503      0.0000 
     27 O5        -14.1420    8.2630   15.3290 O.2       1 LOC503      0.0000 
     28 O6        -13.2230    5.9010   16.5380 O.3       1 LOC503      0.0000 
     29 C18       -14.0490    5.0290   15.8820 C.3       1 LOC503      0.0000 
@<TRIPOS>BOND
     1    1    2 2    
     2    2    3 1    
     3    2    4 am   
     4    4    5 1    
     5    5    6 1    
     6    5    8 1    
     7    6    7 2    
     8    6   22 1    
     9    7   26 1    
    10    8    9 1    
    11    9   10 1    
    12   10   11 ar   
    13   10   21 ar   
    14   11   12 ar   
    15   12   13 ar   
    16   12   19 1    
    17   13   14 ar   
    18   13   17 1    
    19   14   15 1    
    20   14   21 ar   
    21   15   16 1    
    22   17   18 1    
    23   19   20 1    
    24   21   22 1    
    25   22   23 2    
    26   23   24 1    
    27   24   25 2    
    28   25   26 1    
    29   25   28 1    
    30   26   27 2    
    31   28   29 1    
@<TRIPOS>SUBSTRUCTURE
     1 LOC503      1 GROUP   
@<TRIPOS>SET

