#    Name: 5xiw_3_GTP_CAVITY_N1_4
#    Modification time : Fri May 22 19:18:39 2020

@<TRIPOS>MOLECULE
5xiw_3_GTP_CAVITY_N1_4
   53     0     7     0     0
SMALL
NO_CHARGES


@<TRIPOS>ATOM
      1 OG        -18.8500   76.3600  -51.9200 O.3       1 SER1        0.0000 
      2 OG        -20.3100   76.1100  -51.6400 O.3       1 SER1        0.0000 
      3 OG        -21.7600   75.8500  -51.3700 O.3       1 SER1        0.0000 
      4 OG        -23.2100   75.6000  -51.1000 O.3       1 SER1        0.0000 
      5 OG        -20.1700   76.7800  -50.3100 O.3       1 SER1        0.0000 
      6 OG        -23.0800   76.2700  -49.7600 O.3       1 SER1        0.0000 
      7 OG        -19.8200   75.4700  -49.6800 O.3       1 SER1        0.0000 
      8 OG        -19.3400   74.8300  -47.7200 O.3       1 SER1        0.0000 
      9 O         -20.5700   74.7600  -54.3100 O.2       2 ALA2        0.0000 
     10 O         -18.9900   75.6900  -53.2500 O.2       2 ALA2        0.0000 
     11 O         -20.4400   75.4300  -52.9800 O.2       2 ALA2        0.0000 
     12 N         -18.6400   74.3700  -52.6200 N.am      2 ALA2        0.0000 
     13 O         -19.2000   77.6800  -52.5500 O.2       2 ALA2        0.0000 
     14 N         -18.5000   75.0500  -51.2900 N.am      2 ALA2        0.0000 
     15 N         -19.9600   74.7900  -51.0100 N.am      2 ALA2        0.0000 
     16 O         -22.8600   74.2800  -50.4600 O.2       2 ALA2        0.0000 
     17 O         -23.4300   77.5900  -50.3900 O.2       2 ALA2        0.0000 
     18 N         -19.4700   74.1500  -49.0500 N.am      2 ALA2        0.0000 
     19 O         -22.3800   73.6400  -48.5000 O.2       2 ALA2        0.0000 
     20 O         -23.8300   73.3900  -48.2300 O.2       2 ALA2        0.0000 
     21 O         -22.0300   72.3300  -47.8700 O.2       2 ALA2        0.0000 
     22 O         -20.3900   78.7700  -49.6100 O.2       2 ALA2        0.0000 
     23 O         -20.0400   77.4600  -48.9800 O.2       2 ALA2        0.0000 
     24 O         -21.4900   77.2000  -48.7000 O.2       2 ALA2        0.0000 
     25 O         -19.6900   76.1400  -48.3500 O.2       2 ALA2        0.0000 
     26 O         -21.1400   75.8900  -48.0700 O.2       2 ALA2        0.0000 
     27 O         -21.0100   76.5600  -46.7400 O.2       2 ALA2        0.0000 
     28 N         -20.6600   75.2500  -46.1100 N.am      2 ALA2        0.0000 
     29 OD1       -22.2400   74.3200  -47.1700 O.co2     3 ASP3        0.0000 
     30 NZ        -20.0900   74.1200  -52.3500 N.4       4 LYS4        0.0000 
     31 NZ        -21.5400   73.8600  -52.0700 N.4       4 LYS4        0.0000 
     32 NZ        -21.4100   74.5400  -50.7400 N.4       4 LYS4        0.0000 
     33 NZ        -21.0600   73.2200  -50.1100 N.4       4 LYS4        0.0000 
     34 NZ        -22.5100   72.9700  -49.8300 N.4       4 LYS4        0.0000 
     35 NZ        -20.9200   73.9000  -48.7800 N.4       4 LYS4        0.0000 
     36 NZ        -20.5700   72.5800  -48.1400 N.4       4 LYS4        0.0000 
     37 CZ        -19.4200   79.6700  -51.8500 C.ar      5 PHE5        0.0000 
     38 CZ        -19.0700   78.3500  -51.2200 C.ar      5 PHE5        0.0000 
     39 CA        -20.7900   76.7500  -53.6100 C.3       6 GLY6        0.0000 
     40 CA        -21.8900   75.1800  -52.7000 C.3       6 GLY6        0.0000 
     41 CA        -19.5500   78.9900  -53.1800 C.3       6 GLY6        0.0000 
     42 CA        -20.6600   77.4200  -52.2700 C.3       6 GLY6        0.0000 
     43 CA        -22.1100   77.1700  -52.0000 C.3       6 GLY6        0.0000 
     44 CA        -20.5200   78.1000  -50.9400 C.3       6 GLY6        0.0000 
     45 CA        -21.9700   77.8400  -50.6700 C.3       6 GLY6        0.0000 
     46 CA        -24.5300   76.0200  -49.4900 C.3       6 GLY6        0.0000 
     47 CA        -22.7300   74.9600  -49.1300 C.3       6 GLY6        0.0000 
     48 CA        -24.1800   74.7000  -48.8600 C.3       6 GLY6        0.0000 
     49 CA        -21.8400   78.5200  -49.3300 C.3       6 GLY6        0.0000 
     50 CA        -22.9400   76.9500  -48.4300 C.3       6 GLY6        0.0000 
     51 DU        -21.6200   76.5300  -50.0400 H         7 CUB7        0.0000 
     52 DU        -21.2700   75.2100  -49.4100 H         7 CUB7        0.0000 
     53 DU        -20.7900   74.5700  -47.4400 H         7 CUB7        0.0000 
@<TRIPOS>BOND
@<TRIPOS>SUBSTRUCTURE
     1 SER1        1 GROUP   
     2 ALA2        9 GROUP   
     3 ASP3       29 GROUP   
     4 LYS4       30 GROUP   
     5 PHE5       37 GROUP   
     6 GLY6       39 GROUP   
     7 CUB7       51 GROUP   
@<TRIPOS>SET

