#    Name: 5xiw_6_GTP_CAVITY_N1_4
#    Modification time : Fri May 22 19:18:45 2020

@<TRIPOS>MOLECULE
5xiw_6_GTP_CAVITY_N1_4
   77     0     6     0     0
SMALL
NO_CHARGES


@<TRIPOS>ATOM
      1 OG        -20.1100  -11.6400   39.9900 O.3       1 SER1        0.0000 
      2 OG        -21.5600  -11.9000   40.2600 O.3       1 SER1        0.0000 
      3 OG        -19.9800  -10.9700   41.3200 O.3       1 SER1        0.0000 
      4 OG        -21.4300  -11.2200   41.6000 O.3       1 SER1        0.0000 
      5 OG        -18.1700  -12.0300   41.6800 O.3       1 SER1        0.0000 
      6 OG        -19.6300  -12.2800   41.9500 O.3       1 SER1        0.0000 
      7 OG        -19.2800  -13.6000   42.5800 O.3       1 SER1        0.0000 
      8 OG        -20.7300  -13.8500   42.8600 O.3       1 SER1        0.0000 
      9 OG        -18.9300  -14.9100   43.2100 O.3       1 SER1        0.0000 
     10 OG        -20.3800  -15.1700   43.4900 O.3       1 SER1        0.0000 
     11 OG        -23.1000   -9.4900   42.5700 O.3       1 SER1        0.0000 
     12 OG        -21.3000  -10.5500   42.9300 O.3       1 SER1        0.0000 
     13 OG        -18.0400  -11.3500   43.0100 O.3       1 SER1        0.0000 
     14 OG        -19.1400  -12.9200   43.9200 O.3       1 SER1        0.0000 
     15 OG        -20.2500  -14.4900   44.8200 O.3       1 SER1        0.0000 
     16 OG        -25.8700   -9.3200   44.4600 O.3       1 SER1        0.0000 
     17 OG        -27.3200   -9.5800   44.7300 O.3       1 SER1        0.0000 
     18 OG        -26.9700  -10.8900   45.3600 O.3       1 SER1        0.0000 
     19 OG        -27.1900   -8.9000   46.0600 O.3       1 SER1        0.0000 
     20 O         -18.7900  -12.0600   38.3800 O.2       2 ALA2        0.0000 
     21 O         -18.4400  -13.3700   39.0100 O.2       2 ALA2        0.0000 
     22 O         -18.6600  -11.3800   39.7200 O.2       2 ALA2        0.0000 
     23 O         -18.3100  -12.7000   40.3500 O.2       2 ALA2        0.0000 
     24 O         -17.0700  -10.4500   40.7700 O.2       2 ALA2        0.0000 
     25 O         -22.1800  -14.1100   43.1300 O.2       2 ALA2        0.0000 
     26 O         -26.0000  -10.0000   43.1200 O.2       2 ALA2        0.0000 
     27 O         -25.6500  -11.3100   43.7500 O.2       2 ALA2        0.0000 
     28 O         -27.1100  -11.5700   44.0300 O.2       2 ALA2        0.0000 
     29 N         -19.4900  -11.6100   43.2900 N.am      2 ALA2        0.0000 
     30 N         -20.9500  -11.8600   43.5600 N.am      2 ALA2        0.0000 
     31 N         -23.8500  -12.3700   44.1100 N.am      2 ALA2        0.0000 
     32 N         -20.6000  -13.1800   44.1900 N.am      2 ALA2        0.0000 
     33 N         -22.0500  -13.4300   44.4700 N.am      2 ALA2        0.0000 
     34 O         -22.9700   -8.8100   43.9100 O.2       2 ALA2        0.0000 
     35 O         -24.4200   -9.0700   44.1800 O.2       2 ALA2        0.0000 
     36 N         -18.2600   -9.3600   43.7200 N.am      2 ALA2        0.0000 
     37 N         -19.7100   -9.6200   43.9900 N.am      2 ALA2        0.0000 
     38 N         -21.1600   -9.8700   44.2600 N.am      2 ALA2        0.0000 
     39 O         -28.4300  -11.1500   45.6400 O.2       2 ALA2        0.0000 
     40 N         -17.9100  -10.6800   44.3500 N.am      2 ALA2        0.0000 
     41 N         -25.1700  -11.9500   45.7200 N.am      2 ALA2        0.0000 
     42 N         -26.6200  -12.2100   45.9900 N.am      2 ALA2        0.0000 
     43 N         -20.4600  -12.5000   45.5200 N.am      2 ALA2        0.0000 
     44 O         -28.2900  -10.4700   46.9700 O.2       2 ALA2        0.0000 
     45 O         -27.9400  -11.7900   47.6000 O.2       2 ALA2        0.0000 
     46 OD1       -26.8400  -10.2200   46.6900 O.co2     3 ASP3        0.0000 
     47 OD1       -26.4900  -11.5300   47.3200 O.co2     3 ASP3        0.0000 
     48 OD1       -26.1400  -12.8500   47.9600 O.co2     3 ASP3        0.0000 
     49 OD1       -26.3600  -10.8600   48.6600 O.co2     3 ASP3        0.0000 
     50 OD1       -26.0100  -12.1700   49.2900 O.co2     3 ASP3        0.0000 
     51 NZ        -20.0300  -14.3000   37.9500 N.4       4 LYS4        0.0000 
     52 NZ        -19.8900  -13.6300   39.2900 N.4       4 LYS4        0.0000 
     53 NZ        -19.5400  -14.9500   39.9200 N.4       4 LYS4        0.0000 
     54 NZ        -19.7600  -12.9600   40.6200 N.4       4 LYS4        0.0000 
     55 NZ        -21.2100  -13.2100   40.9000 N.4       4 LYS4        0.0000 
     56 NZ        -22.6700  -13.4700   41.1700 N.4       4 LYS4        0.0000 
     57 NZ        -27.8100  -11.1100   48.9300 N.4       4 LYS4        0.0000 
     58 CA        -18.5700  -14.0500   37.6800 C.3       5 GLY6        0.0000 
     59 CA        -20.2400  -12.3100   38.6600 C.3       5 GLY6        0.0000 
     60 CA        -18.0900  -14.6900   39.6400 C.3       5 GLY6        0.0000 
     61 CA        -17.9600  -14.0200   40.9800 C.3       5 GLY6        0.0000 
     62 CA        -19.4100  -14.2700   41.2500 C.3       5 GLY6        0.0000 
     63 CA        -18.5200  -10.7100   41.0500 C.3       5 GLY6        0.0000 
     64 CA        -22.8800  -11.4800   41.8700 C.3       5 GLY6        0.0000 
     65 CA        -22.5300  -12.7900   42.5000 C.3       5 GLY6        0.0000 
     66 CA        -23.9800  -13.0500   42.7800 C.3       5 GLY6        0.0000 
     67 CA        -21.6500   -9.2300   42.3000 C.3       5 GLY6        0.0000 
     68 CA        -24.5500   -9.7400   42.8500 C.3       5 GLY6        0.0000 
     69 CA        -18.3900  -10.0400   42.3800 C.3       5 GLY6        0.0000 
     70 CA        -19.8400  -10.2900   42.6600 C.3       5 GLY6        0.0000 
     71 CA        -24.2000  -11.0600   43.4800 C.3       5 GLY6        0.0000 
     72 CA        -22.6200  -10.1300   44.5400 C.3       5 GLY6        0.0000 
     73 CA        -27.5900  -13.1000   48.2300 C.3       5 GLY6        0.0000 
     74 DU        -21.0800  -12.5400   42.2300 H         6 CUB7        0.0000 
     75 DU        -22.7500  -10.8000   43.2100 H         6 CUB7        0.0000 
     76 DU        -22.4000  -12.1200   43.8400 H         6 CUB7        0.0000 
     77 DU        -25.5200  -10.6400   45.0900 H         6 CUB7        0.0000 
@<TRIPOS>BOND
@<TRIPOS>SUBSTRUCTURE
     1 SER1        1 GROUP   
     2 ALA2       20 GROUP   
     3 ASP3       46 GROUP   
     4 LYS4       51 GROUP   
     5 GLY6       58 GROUP   
     6 CUB7       74 GROUP   
@<TRIPOS>SET

