#    Name: 5xiw_1_LOC
#    Modification time : Fri May 22 19:18:14 2020

@<TRIPOS>MOLECULE
5xiw_1_LOC
   29    31     1     0     0
SMALL
NO_CHARGES


@<TRIPOS>ATOM
      1 O4        -15.5730   69.6110  -45.8450 O.2       1 LOC504      0.0000 
      2 C12       -16.5890   69.9790  -46.2650 C.2       1 LOC504      0.0000 
      3 C13       -16.6050   70.9010  -47.4610 C.3       1 LOC504      0.0000 
      4 N1        -17.8840   69.5870  -45.6590 N.am      1 LOC504      0.0000 
      5 C11       -17.9640   68.7460  -44.5630 C.3       1 LOC504      0.0000 
      6 C14       -17.4460   67.3110  -44.9080 C.2       1 LOC504      0.0000 
      7 C15       -18.0110   66.7640  -46.1730 C.2       1 LOC504      0.0000 
      8 C10       -19.3910   68.7740  -43.9860 C.3       1 LOC504      0.0000 
      9 C9        -19.5630   67.8580  -42.7290 C.3       1 LOC504      0.0000 
     10 C8        -18.2580   67.6390  -41.9160 C.ar      1 LOC504      0.0000 
     11 C7        -18.2100   68.0250  -40.4870 C.ar      1 LOC504      0.0000 
     12 C5        -17.0120   67.8470  -39.7450 C.ar      1 LOC504      0.0000 
     13 C3        -15.9010   67.3010  -40.3600 C.ar      1 LOC504      0.0000 
     14 C1        -15.9210   66.9130  -41.7690 C.ar      1 LOC504      0.0000 
     15 O1        -14.7020   66.3520  -42.3360 O.3       1 LOC504      0.0000 
     16 C2        -13.7330   67.3220  -42.7430 C.3       1 LOC504      0.0000 
     17 O2        -14.7030   67.1210  -39.5890 O.3       1 LOC504      0.0000 
     18 C4        -14.6430   65.8430  -38.9270 C.3       1 LOC504      0.0000 
     19 O3        -16.9350   68.2100  -38.3520 O.3       1 LOC504      0.0000 
     20 C6        -17.7480   69.2500  -37.9520 C.3       1 LOC504      0.0000 
     21 C22       -17.1750   67.0880  -42.5150 C.ar      1 LOC504      0.0000 
     22 C21       -16.9770   66.6750  -43.8830 C.2       1 LOC504      0.0000 
     23 C20       -16.9720   65.3030  -43.7290 C.2       1 LOC504      0.0000 
     24 C19       -16.7310   64.3470  -44.6990 C.2       1 LOC504      0.0000 
     25 C17       -17.0780   64.3790  -46.0860 C.2       1 LOC504      0.0000 
     26 C16       -17.7600   65.4600  -46.8150 C.2       1 LOC504      0.0000 
     27 O5        -18.1360   65.2850  -47.9860 O.2       1 LOC504      0.0000 
     28 O6        -16.3160   63.4860  -46.9200 O.3       1 LOC504      0.0000 
     29 C18       -16.9190   62.2930  -47.1910 C.3       1 LOC504      0.0000 
@<TRIPOS>BOND
     1    1    2 2    
     2    2    3 1    
     3    2    4 am   
     4    4    5 1    
     5    5    6 1    
     6    5    8 1    
     7    6    7 2    
     8    6   22 1    
     9    7   26 1    
    10    8    9 1    
    11    9   10 1    
    12   10   11 ar   
    13   10   21 ar   
    14   11   12 ar   
    15   12   13 ar   
    16   12   19 1    
    17   13   14 ar   
    18   13   17 1    
    19   14   15 1    
    20   14   21 ar   
    21   15   16 1    
    22   17   18 1    
    23   19   20 1    
    24   21   22 1    
    25   22   23 2    
    26   23   24 1    
    27   24   25 2    
    28   25   26 1    
    29   25   28 1    
    30   26   27 2    
    31   28   29 1    
@<TRIPOS>SUBSTRUCTURE
     1 LOC504      1 GROUP   
@<TRIPOS>SET

