#    Name: 5xiw_6_GTP
#    Modification time : Fri May 22 19:18:44 2020

@<TRIPOS>MOLECULE
5xiw_6_GTP
   32    34     1     0     1
SMALL
NO_CHARGES


@<TRIPOS>ATOM
      1 PG        -27.0310  -10.7710   45.2900 P.3       1 GTP501      0.0000 
      2 O1G       -28.1880  -11.6920   44.9880 O.co2     1 GTP501      0.0000 
      3 O2G       -25.7750  -11.5010   45.7070 O.co2     1 GTP501      0.0000 
      4 O3G       -27.3840   -9.5900   46.1670 O.co2     1 GTP501      0.0000 
      5 O3B       -26.6960  -10.1110   43.8530 O.3       1 GTP501      0.0000 
      6 PB        -25.3220   -9.3180   43.5590 P.3       1 GTP501      0.0000 
      7 O1B       -25.5070   -8.5120   42.2940 O.co2     1 GTP501      0.0000 
      8 O2B       -24.8680   -8.6270   44.8210 O.co2     1 GTP501      0.0000 
      9 O3A       -24.3140  -10.5360   43.2450 O.3       1 GTP501      0.0000 
     10 PA        -22.7360  -10.3330   42.9820 P.3       1 GTP501      0.0000 
     11 O1A       -22.4800   -8.8770   42.6710 O.co2     1 GTP501      0.0000 
     12 O2A       -21.9710  -10.9790   44.1150 O.co2     1 GTP501      0.0000 
     13 O5'       -22.5370  -11.1880   41.6260 O.3       1 GTP501      0.0000 
     14 C5'       -21.9070  -12.4730   41.5780 C.3       1 GTP501      0.0000 
     15 C4'       -20.9080  -12.5090   40.4210 C.3       1 GTP501      0.0000 
     16 O4'       -20.1350  -11.3100   40.4050 O.3       1 GTP501      0.0000 
     17 C3'       -19.9160  -13.6560   40.5220 C.3       1 GTP501      0.0000 
     18 O3'       -19.8070  -14.2890   39.2410 O.3       1 GTP501      0.0000 
     19 C2'       -18.5870  -13.0430   40.9230 C.3       1 GTP501      0.0000 
     20 O2'       -17.4890  -13.6260   40.2080 O.3       1 GTP501      0.0000 
     21 C1'       -18.7400  -11.5750   40.5640 C.3       1 GTP501      0.0000 
     22 N9        -18.2160  -10.6650   41.6090 N.pl3     1 GTP501      0.0000 
     23 C8        -18.7060  -10.4950   42.8530 C.2       1 GTP501      0.0000 
     24 N7        -17.9870   -9.5670   43.5370 N.2       1 GTP501      0.0000 
     25 C5        -17.0200   -9.1200   42.7190 C.2       1 GTP501      0.0000 
     26 C6        -15.9160   -8.1300   42.8030 C.2       1 GTP501      0.0000 
     27 O6        -15.7120   -7.4730   43.8470 O.2       1 GTP501      0.0000 
     28 N1        -15.1370   -7.9700   41.7180 N.am      1 GTP501      0.0000 
     29 C2        -15.3250   -8.6630   40.5690 C.2       1 GTP501      0.0000 
     30 N2        -14.4900   -8.4380   39.5260 N.pl3     1 GTP501      0.0000 
     31 N3        -16.3200   -9.5820   40.4220 N.2       1 GTP501      0.0000 
     32 C4        -17.1780   -9.8460   41.4440 C.2       1 GTP501      0.0000 
@<TRIPOS>BOND
     1    1    2 ar   
     2    1    3 ar   
     3    1    4 ar   
     4    1    5 1    
     5    5    6 1    
     6    6    7 ar   
     7    6    8 ar   
     8    6    9 1    
     9    9   10 1    
    10   10   11 ar   
    11   10   12 ar   
    12   10   13 1    
    13   13   14 1    
    14   14   15 1    
    15   15   16 1    
    16   15   17 1    
    17   16   21 1    
    18   17   18 1    
    19   17   19 1    
    20   19   20 1    
    21   19   21 1    
    22   21   22 1    
    23   22   23 1    
    24   22   32 1    
    25   23   24 2    
    26   24   25 1    
    27   25   26 1    
    28   25   32 2    
    29   26   27 2    
    30   26   28 am   
    31   28   29 1    
    32   29   30 1    
    33   29   31 2    
    34   31   32 1    
@<TRIPOS>SUBSTRUCTURE
     1 GTP501      1 GROUP   
@<TRIPOS>SET
ATOM$ORANGE STATIC     ATOMS   COLORGROUP SYSTEM 
20 14 14 15 15 17 17 19 19 21 21 23 23 25 25 26 26 29 \
29 32 32 

