#    Name: 6a37_1_FAD
#    Modification time : Fri May 22 19:29:15 2020

@<TRIPOS>MOLECULE
6a37_1_FAD
   53    59     1     0     1
SMALL
NO_CHARGES


@<TRIPOS>ATOM
      1 PA          4.8590    0.1210   24.2690 P.3       1 FAD601      0.0000 
      2 O1A         5.6730    1.1750   23.5570 O.co2     1 FAD601      0.0000 
      3 O2A         3.5840   -0.2090   23.5520 O.co2     1 FAD601      0.0000 
      4 O5B         5.7570   -1.1940   24.3680 O.3       1 FAD601      0.0000 
      5 C5B         5.1890   -2.2900   25.0630 C.3       1 FAD601      0.0000 
      6 C4B         6.0290   -3.4660   24.6800 C.3       1 FAD601      0.0000 
      7 O4B         5.7810   -4.5510   25.6680 O.3       1 FAD601      0.0000 
      8 C3B         5.6810   -3.9620   23.3380 C.3       1 FAD601      0.0000 
      9 O3B         6.8840   -3.9930   22.5410 O.3       1 FAD601      0.0000 
     10 C2B         5.2150   -5.3430   23.5250 C.3       1 FAD601      0.0000 
     11 O2B         5.6880   -6.2340   22.4640 O.3       1 FAD601      0.0000 
     12 C1B         5.8400   -5.7340   24.7800 C.3       1 FAD601      0.0000 
     13 N9A         5.1490   -6.7850   25.3890 N.pl3     1 FAD601      0.0000 
     14 C8A         4.0280   -6.8210   25.9020 Du        1 FAD601      0.0000 
     15 N7A         3.6620   -7.7420   26.3200 N.2       1 FAD601      0.0000 
     16 C5A         4.3120   -8.7260   26.3100 C.ar      1 FAD601      0.0000 
     17 C6A         4.4880  -10.2470   26.6700 C.ar      1 FAD601      0.0000 
     18 N6A         3.4280  -10.9640   27.3470 N.pl3     1 FAD601      0.0000 
     19 N1A         5.7220  -10.8670   26.2940 N.ar      1 FAD601      0.0000 
     20 C2A         6.5930  -10.1630   25.7100 C.ar      1 FAD601      0.0000 
     21 N3A         6.5650   -9.0370   25.4020 N.ar      1 FAD601      0.0000 
     22 C4A         5.6890   -8.2260   25.5590 C.ar      1 FAD601      0.0000 
     23 N1          1.3370    8.8900   23.7800 N.2       1 FAD601      0.0000 
     24 C2          1.6420   10.2490   24.3160 C.2       1 FAD601      0.0000 
     25 O2          1.6280   10.5010   25.5190 O.2       1 FAD601      0.0000 
     26 N3          1.9630   11.3310   23.4290 N.am      1 FAD601      0.0000 
     27 C4          1.9880   11.0860   22.0600 C.2       1 FAD601      0.0000 
     28 O4          2.2690   11.9770   21.2940 O.2       1 FAD601      0.0000 
     29 C4X         1.6960    9.7570   21.5040 C.2       1 FAD601      0.0000 
     30 N5          1.7340    9.5880   20.1830 N.2       1 FAD601      0.0000 
     31 C5X         1.4380    8.2700   19.6370 C.ar      1 FAD601      0.0000 
     32 C6          1.4770    8.1090   18.2400 C.ar      1 FAD601      0.0000 
     33 C7          1.2050    6.8490   17.6520 C.ar      1 FAD601      0.0000 
     34 C7M         1.2720    6.7130   16.1390 C.3       1 FAD601      0.0000 
     35 C8          0.8920    5.7670   18.4780 C.ar      1 FAD601      0.0000 
     36 C8M         0.5850    4.3540   17.8340 C.3       1 FAD601      0.0000 
     37 C9          0.8440    5.9220   19.8670 C.ar      1 FAD601      0.0000 
     38 C9A         1.1190    7.1840   20.4780 C.ar      1 FAD601      0.0000 
     39 N10         1.0870    7.3560   21.9110 N.pl3     1 FAD601      0.0000 
     40 C10         1.3620    8.6350   22.4430 C.2       1 FAD601      0.0000 
     41 C1'         0.7690    6.2560   22.8090 C.3       1 FAD601      0.0000 
     42 C2'         1.9640    5.3170   23.0970 C.3       1 FAD601      0.0000 
     43 O2'         1.4780    4.0260   23.2910 O.3       1 FAD601      0.0000 
     44 C3'         2.7730    5.6980   24.3360 C.3       1 FAD601      0.0000 
     45 O3'         3.2550    6.9960   24.1040 O.3       1 FAD601      0.0000 
     46 C4'         4.0140    4.8150   24.5340 C.3       1 FAD601      0.0000 
     47 O4'         4.3840    4.2100   23.3200 O.3       1 FAD601      0.0000 
     48 C5'         3.8740    3.6990   25.5640 C.3       1 FAD601      0.0000 
     49 O5'         5.1700    3.0970   25.7640 O.3       1 FAD601      0.0000 
     50 P           5.2980    1.7080   26.5770 P.3       1 FAD601      0.0000 
     51 O1P         6.7580    1.3110   26.7120 O.co2     1 FAD601      0.0000 
     52 O2P         4.6990    1.8520   27.9590 O.co2     1 FAD601      0.0000 
     53 O3P         4.5070    0.5800   25.7700 O.3       1 FAD601      0.0000 
@<TRIPOS>BOND
     1    1    2 ar   
     2    1    3 ar   
     3    1    4 1    
     4    1   53 1    
     5    4    5 1    
     6    5    6 1    
     7    6    7 1    
     8    6    8 1    
     9    7   12 1    
    10    8    9 1    
    11    8   10 1    
    12   10   11 1    
    13   10   12 1    
    14   12   13 1    
    15   13   14 du   
    16   13   22 1    
    17   14   15 du   
    18   14   16 du   
    19   15   16 1    
    20   16   17 ar   
    21   16   22 ar   
    22   17   18 1    
    23   17   19 ar   
    24   19   20 ar   
    25   20   21 ar   
    26   21   22 ar   
    27   23   24 1    
    28   23   40 2    
    29   24   25 2    
    30   24   26 am   
    31   26   27 am   
    32   27   28 2    
    33   27   29 1    
    34   29   30 2    
    35   29   40 1    
    36   30   31 1    
    37   31   32 ar   
    38   31   38 ar   
    39   32   33 ar   
    40   33   34 1    
    41   33   35 ar   
    42   35   36 1    
    43   35   37 ar   
    44   37   38 ar   
    45   38   39 1    
    46   39   40 1    
    47   39   41 1    
    48   41   42 1    
    49   42   43 1    
    50   42   44 1    
    51   44   45 1    
    52   44   46 1    
    53   46   47 1    
    54   46   48 1    
    55   48   49 1    
    56   49   50 1    
    57   50   51 ar   
    58   50   52 ar   
    59   50   53 1    
@<TRIPOS>SUBSTRUCTURE
     1 FAD601      1 GROUP   
@<TRIPOS>SET
ATOM$ORANGE STATIC     ATOMS   COLORGROUP SYSTEM 
52 5 5 6 6 8 8 10 10 12 12 16 16 17 17 20 20 22 \
22 24 24 27 27 29 29 31 31 32 32 33 33 34 34 35 35 36 \
36 37 37 38 38 40 40 41 41 42 42 44 44 46 46 48 48 

