#    Name: 6a37_1_FAD_CAVITY_N1_ALL
#    Modification time : Fri May 22 19:29:18 2020

@<TRIPOS>MOLECULE
6a37_1_FAD_CAVITY_N1_ALL
  114     0     7     0     0
SMALL
NO_CHARGES


@<TRIPOS>ATOM
      1 OG         -3.8400    2.1400   16.6000 O.3       1 SER1        0.0000 
      2 OG         -3.1500    2.9400   17.6700 O.3       1 SER1        0.0000 
      3 OG         -1.9400    3.0700   16.7900 O.3       1 SER1        0.0000 
      4 OG         -4.9200    4.0700   17.9500 O.3       1 SER1        0.0000 
      5 OG         -3.0300    5.0000   18.1500 O.3       1 SER1        0.0000 
      6 OG         -1.8200    5.1300   17.2700 O.3       1 SER1        0.0000 
      7 OG         -3.5800    6.2700   17.5600 O.3       1 SER1        0.0000 
      8 OG         -2.3700    6.3900   16.6800 O.3       1 SER1        0.0000 
      9 OG         -0.0100    3.4100   19.5100 O.3       1 SER1        0.0000 
     10 OG          1.2000    3.5400   18.6400 O.3       1 SER1        0.0000 
     11 OG          0.0800    6.0600   17.4600 O.3       1 SER1        0.0000 
     12 OG          1.2900    6.1900   16.5900 O.3       1 SER1        0.0000 
     13 OG         -2.9000    7.0700   18.6200 O.3       1 SER1        0.0000 
     14 OG         -1.6900    7.1900   17.7500 O.3       1 SER1        0.0000 
     15 OG         -0.4800    7.3200   16.8800 O.3       1 SER1        0.0000 
     16 OG          0.7400    7.4500   16.0000 O.3       1 SER1        0.0000 
     17 OG         -2.2500    8.4600   17.1600 O.3       1 SER1        0.0000 
     18 OG          1.2300    2.9500   21.1700 O.3       1 SER1        0.0000 
     19 OG         -3.9800    9.0000   19.9800 O.3       1 SER1        0.0000 
     20 OG         -2.7700    9.1300   19.1000 O.3       1 SER1        0.0000 
     21 OG          1.4900    7.0700   22.1300 O.3       1 SER1        0.0000 
     22 OG          2.1400    8.4600   20.6700 O.3       1 SER1        0.0000 
     23 OG          0.9600    7.7400   24.0700 O.3       1 SER1        0.0000 
     24 OG          2.1700    7.8700   23.2000 O.3       1 SER1        0.0000 
     25 OG         -0.8100    8.8800   24.3600 O.3       1 SER1        0.0000 
     26 OG          0.4000    9.0000   23.4800 O.3       1 SER1        0.0000 
     27 OG          2.8300    9.2600   21.7300 O.3       1 SER1        0.0000 
     28 OG         -1.3700   10.1400   23.7700 O.3       1 SER1        0.0000 
     29 OG         -1.9300   11.4000   23.1800 O.3       1 SER1        0.0000 
     30 OG          2.8600    8.6700   24.2600 O.3       1 SER1        0.0000 
     31 OG          1.0900    9.8100   24.5500 O.3       1 SER1        0.0000 
     32 OG         -0.6800   10.9400   24.8400 O.3       1 SER1        0.0000 
     33 OG          0.5300   11.0700   23.9600 O.3       1 SER1        0.0000 
     34 OG         -2.4500   12.0700   25.1200 O.3       1 SER1        0.0000 
     35 N          -1.3800    1.8100   17.3800 N.am      2 ALA2        0.0000 
     36 N          -6.7900    2.5600   20.2900 N.am      2 ALA2        0.0000 
     37 N          -5.5800    2.6800   19.4200 N.am      2 ALA2        0.0000 
     38 N          -4.3700    2.8100   18.5400 N.am      2 ALA2        0.0000 
     39 N          -6.1400    3.9500   18.8300 N.am      2 ALA2        0.0000 
     40 N          -0.7000    2.6100   18.4500 N.am      2 ALA2        0.0000 
     41 N          -1.2600    3.8700   17.8600 N.am      2 ALA2        0.0000 
     42 N          -0.0500    4.0000   16.9800 N.am      2 ALA2        0.0000 
     43 N           1.1700    4.1300   16.1100 N.am      2 ALA2        0.0000 
     44 N           2.4100    3.6600   17.7700 N.am      2 ALA2        0.0000 
     45 N           0.6400    4.8000   18.0500 N.am      2 ALA2        0.0000 
     46 N           1.8500    4.9300   17.1800 N.am      2 ALA2        0.0000 
     47 O          -1.0300    8.5800   16.2900 O.2       2 ALA2        0.0000 
     48 N           0.2100    8.1200   17.9400 N.am      2 ALA2        0.0000 
     49 N           1.4200    8.2500   17.0700 N.am      2 ALA2        0.0000 
     50 N          -0.3500    9.3800   17.3500 N.am      2 ALA2        0.0000 
     51 N           0.9000    8.9200   19.0100 N.am      2 ALA2        0.0000 
     52 N           0.3400   10.1800   18.4200 N.am      2 ALA2        0.0000 
     53 O           1.5800    9.7200   20.0800 O.2       2 ALA2        0.0000 
     54 O           2.2700   10.5200   21.1400 O.2       2 ALA2        0.0000 
     55 OD1        -2.6100   10.6000   22.1100 O.co2     3 ASP3        0.0000 
     56 NZ         -3.7800    0.9600   21.6600 N.4       4 LYS4        0.0000 
     57 NZ         -4.3400    2.2200   21.0700 N.4       4 LYS4        0.0000 
     58 CZ          3.0600    5.0500   16.3000 C.ar      5 PHE5        0.0000 
     59 CZ          2.5100    6.3200   15.7100 C.ar      5 PHE5        0.0000 
     60 CZ          2.5400    5.7300   18.2400 C.ar      5 PHE5        0.0000 
     61 CZ          1.9800    6.9900   17.6600 C.ar      5 PHE5        0.0000 
     62 CZ          1.4500    7.6600   19.6000 C.ar      5 PHE5        0.0000 
     63 CZ          1.6100    9.1300   22.6100 C.ar      5 PHE5        0.0000 
     64 CZ          2.3000    9.9300   23.6700 C.ar      5 PHE5        0.0000 
     65 CZ          1.7400   11.2000   23.0900 C.ar      5 PHE5        0.0000 
     66 CA         -4.4900    0.7500   18.0600 C.3       6 GLY6        0.0000 
     67 CA         -3.2800    0.8800   17.1900 C.3       6 GLY6        0.0000 
     68 CA         -5.0500    2.0100   17.4700 C.3       6 GLY6        0.0000 
     69 CA         -3.2500    0.2900   19.7200 C.3       6 GLY6        0.0000 
     70 CA         -3.8100    1.5500   19.1300 C.3       6 GLY6        0.0000 
     71 CA         -2.6000    1.6800   18.2500 C.3       6 GLY6        0.0000 
     72 CA         -2.5700    1.0900   20.7800 C.3       6 GLY6        0.0000 
     73 CA         -3.1200    2.3500   20.2000 C.3       6 GLY6        0.0000 
     74 CA         -1.9100    2.4800   19.3200 C.3       6 GLY6        0.0000 
     75 CA          2.3800    4.2500   15.2400 C.3       6 GLY6        0.0000 
     76 CA         -0.6700    2.0200   20.9800 C.3       6 GLY6        0.0000 
     77 CA         -2.4400    3.1500   21.2600 C.3       6 GLY6        0.0000 
     78 CA         -1.2300    3.2800   20.3900 C.3       6 GLY6        0.0000 
     79 CA          0.0200    2.8200   22.0400 C.3       6 GLY6        0.0000 
     80 CA          0.6700    4.2100   20.5800 C.3       6 GLY6        0.0000 
     81 CA          1.8800    4.3400   19.7100 C.3       6 GLY6        0.0000 
     82 CA          3.1000    4.4600   18.8300 C.3       6 GLY6        0.0000 
     83 CA          1.3600    5.0100   21.6500 C.3       6 GLY6        0.0000 
     84 CA          2.5700    5.1400   20.7700 C.3       6 GLY6        0.0000 
     85 CA         -2.0900    9.9300   20.1700 C.3       6 GLY6        0.0000 
     86 CA         -0.8700   10.0600   19.3000 C.3       6 GLY6        0.0000 
     87 CA         -0.8400    9.4700   21.8300 C.3       6 GLY6        0.0000 
     88 CA          0.3700    9.5900   20.9500 C.3       6 GLY6        0.0000 
     89 CA         -1.4000   10.7300   21.2400 C.3       6 GLY6        0.0000 
     90 CA         -0.1600   10.2700   22.8900 C.3       6 GLY6        0.0000 
     91 CA          1.0600   10.4000   22.0200 C.3       6 GLY6        0.0000 
     92 DU         -3.6800    3.6100   19.6100 H         7 CUB7        0.0000 
     93 DU         -2.4700    3.7400   18.7300 H         7 CUB7        0.0000 
     94 DU         -0.5700    4.6700   18.9300 H         7 CUB7        0.0000 
     95 DU         -2.3400    5.8000   19.2100 H         7 CUB7        0.0000 
     96 DU         -1.1300    5.9300   18.3400 H         7 CUB7        0.0000 
     97 DU         -0.5400    4.0800   21.4600 H         7 CUB7        0.0000 
     98 DU          0.1100    5.4700   19.9900 H         7 CUB7        0.0000 
     99 DU          1.3300    5.6000   19.1200 H         7 CUB7        0.0000 
    100 DU          0.7700    6.8600   18.5300 H         7 CUB7        0.0000 
    101 DU         -2.2100    7.8700   19.6900 H         7 CUB7        0.0000 
    102 DU         -1.0000    7.9900   18.8200 H         7 CUB7        0.0000 
    103 DU         -1.5600    9.2600   18.2300 H         7 CUB7        0.0000 
    104 DU          0.1500    4.8800   22.5200 H         7 CUB7        0.0000 
    105 DU         -1.6200    6.0100   22.8100 H         7 CUB7        0.0000 
    106 DU          0.8000    6.2700   21.0600 H         7 CUB7        0.0000 
    107 DU          0.2400    7.5300   20.4700 H         7 CUB7        0.0000 
    108 DU         -1.5300    8.6700   20.7600 H         7 CUB7        0.0000 
    109 DU         -0.3200    8.7900   19.8800 H         7 CUB7        0.0000 
    110 DU          0.2700    6.9400   23.0000 H         7 CUB7        0.0000 
    111 DU         -0.2800    8.2000   22.4100 H         7 CUB7        0.0000 
    112 DU          0.9300    8.3300   21.5400 H         7 CUB7        0.0000 
    113 DU         -2.0500    9.3400   22.7000 H         7 CUB7        0.0000 
    114 DU         -2.5800   10.0100   24.6400 H         7 CUB7        0.0000 
@<TRIPOS>BOND
@<TRIPOS>SUBSTRUCTURE
     1 SER1        1 GROUP   
     2 ALA2       35 GROUP   
     3 ASP3       55 GROUP   
     4 LYS4       56 GROUP   
     5 PHE5       58 GROUP   
     6 GLY6       66 GROUP   
     7 CUB7       92 GROUP   
@<TRIPOS>SET

