#    Name: 6duk_2_ANP
#    Modification time : Fri May 22 19:25:30 2020

@<TRIPOS>MOLECULE
6duk_2_ANP
   31    33     1     0     1
SMALL
NO_CHARGES


@<TRIPOS>ATOM
      1 PG         31.8040   57.9070  -91.7600 P.3       1 ANP1102     0.0000 
      2 O1G        31.0630   57.8450  -93.0230 O.co2     1 ANP1102     0.0000 
      3 O2G        31.2210   58.7360  -90.7010 O.co2     1 ANP1102     0.0000 
      4 O3G        32.6430   56.7630  -91.3810 O.co2     1 ANP1102     0.0000 
      5 PB         33.4420   60.2790  -91.4090 P.3       1 ANP1102     0.0000 
      6 O1B        34.6530   60.9840  -91.8740 O.co2     1 ANP1102     0.0000 
      7 O2B        33.3700   59.9180  -89.9820 O.co2     1 ANP1102     0.0000 
      8 N3B        33.1380   58.8860  -92.2790 N.3       1 ANP1102     0.0000 
      9 PA         31.2430   62.1190  -91.0490 P.3       1 ANP1102     0.0000 
     10 O1A        30.1240   62.6320  -91.8690 O.co2     1 ANP1102     0.0000 
     11 O2A        30.9480   61.3530  -89.8120 O.co2     1 ANP1102     0.0000 
     12 O3A        32.2350   61.2140  -91.9710 O.3       1 ANP1102     0.0000 
     13 O5'        32.1970   63.3640  -90.6770 O.3       1 ANP1102     0.0000 
     14 C5'        32.8950   64.1610  -91.6370 C.3       1 ANP1102     0.0000 
     15 C4'        33.9350   64.9260  -90.8380 C.3       1 ANP1102     0.0000 
     16 O4'        33.2650   66.0020  -90.0900 O.3       1 ANP1102     0.0000 
     17 C3'        34.4310   64.0200  -89.7220 C.3       1 ANP1102     0.0000 
     18 O3'        35.3250   62.9600  -90.2070 O.3       1 ANP1102     0.0000 
     19 C2'        35.1770   65.0560  -88.9740 C.3       1 ANP1102     0.0000 
     20 O2'        36.2020   65.4950  -89.8520 O.3       1 ANP1102     0.0000 
     21 C1'        34.0650   66.1420  -88.8930 C.3       1 ANP1102     0.0000 
     22 N9         33.0980   66.0330  -87.7740 N.pl3     1 ANP1102     0.0000 
     23 C8         32.0850   65.2070  -87.5130 C.2       1 ANP1102     0.0000 
     24 N7         31.5250   65.6100  -86.3610 N.2       1 ANP1102     0.0000 
     25 C5         32.1840   66.6820  -85.9100 C.ar      1 ANP1102     0.0000 
     26 C6         32.0440   67.4690  -84.8190 C.ar      1 ANP1102     0.0000 
     27 N6         31.0780   67.1820  -83.9410 N.pl3     1 ANP1102     0.0000 
     28 N1         32.8630   68.5100  -84.6010 N.ar      1 ANP1102     0.0000 
     29 C2         33.8840   68.8040  -85.5090 C.ar      1 ANP1102     0.0000 
     30 N3         34.0000   67.9830  -86.6290 N.ar      1 ANP1102     0.0000 
     31 C4         33.1530   66.9420  -86.7980 C.ar      1 ANP1102     0.0000 
@<TRIPOS>BOND
     1    1    2 ar   
     2    1    3 ar   
     3    1    4 ar   
     4    1    8 1    
     5    5    6 ar   
     6    5    7 ar   
     7    5    8 1    
     8    5   12 1    
     9    9   10 ar   
    10    9   11 ar   
    11    9   12 1    
    12    9   13 1    
    13   13   14 1    
    14   14   15 1    
    15   15   16 1    
    16   15   17 1    
    17   16   21 1    
    18   17   18 1    
    19   17   19 1    
    20   19   20 1    
    21   19   21 1    
    22   21   22 1    
    23   22   23 1    
    24   22   31 1    
    25   23   24 2    
    26   24   25 1    
    27   25   26 ar   
    28   25   31 ar   
    29   26   27 1    
    30   26   28 ar   
    31   28   29 ar   
    32   29   30 ar   
    33   30   31 ar   
@<TRIPOS>SUBSTRUCTURE
     1 ANP1102     1 GROUP   
@<TRIPOS>SET
ATOM$ORANGE STATIC     ATOMS   COLORGROUP SYSTEM 
20 14 14 15 15 17 17 19 19 21 21 23 23 25 25 26 26 29 \
29 31 31 

