#    Name: 6duk_3_ANP
#    Modification time : Fri May 22 19:25:36 2020

@<TRIPOS>MOLECULE
6duk_3_ANP
   31    33     1     0     1
SMALL
NO_CHARGES


@<TRIPOS>ATOM
      1 PG         32.6320   76.6010  -34.4610 P.3       1 ANP1102     0.0000 
      2 O1G        33.7540   75.9290  -35.1080 O.co2     1 ANP1102     0.0000 
      3 O2G        32.6940   78.0850  -34.4420 O.co2     1 ANP1102     0.0000 
      4 O3G        31.8680   75.9180  -33.4010 O.co2     1 ANP1102     0.0000 
      5 PB         31.0590   75.1330  -36.6080 P.3       1 ANP1102     0.0000 
      6 O1B        29.7380   75.2810  -37.2350 O.co2     1 ANP1102     0.0000 
      7 O2B        31.3270   73.9510  -35.7790 O.co2     1 ANP1102     0.0000 
      8 N3B        31.3470   76.5190  -35.6900 N.3       1 ANP1102     0.0000 
      9 PA         33.3030   74.0630  -38.2140 P.3       1 ANP1102     0.0000 
     10 O1A        34.4260   74.7010  -38.9400 O.co2     1 ANP1102     0.0000 
     11 O2A        33.6160   73.2690  -37.0160 O.co2     1 ANP1102     0.0000 
     12 O3A        32.1690   75.2140  -37.8240 O.3       1 ANP1102     0.0000 
     13 O5'        32.5020   73.1820  -39.2640 O.3       1 ANP1102     0.0000 
     14 C5'        31.8230   73.7680  -40.3900 C.3       1 ANP1102     0.0000 
     15 C4'        30.7740   72.7620  -40.8810 C.3       1 ANP1102     0.0000 
     16 O4'        31.3900   71.6340  -41.5330 O.3       1 ANP1102     0.0000 
     17 C3'        30.1010   72.1380  -39.6720 C.3       1 ANP1102     0.0000 
     18 O3'        29.0990   73.0340  -39.2330 O.3       1 ANP1102     0.0000 
     19 C2'        29.4080   71.0030  -40.3110 C.3       1 ANP1102     0.0000 
     20 O2'        28.3800   71.5950  -41.1160 O.3       1 ANP1102     0.0000 
     21 C1'        30.5580   70.4960  -41.1960 C.3       1 ANP1102     0.0000 
     22 N9         31.4800   69.5230  -40.5480 N.pl3     1 ANP1102     0.0000 
     23 C8         32.3500   69.5550  -39.5380 C.2       1 ANP1102     0.0000 
     24 N7         32.9020   68.3460  -39.4450 N.2       1 ANP1102     0.0000 
     25 C5         32.3930   67.5690  -40.4060 C.ar      1 ANP1102     0.0000 
     26 C6         32.6100   66.2880  -40.7490 C.ar      1 ANP1102     0.0000 
     27 N6         33.4930   65.6080  -40.0300 N.pl3     1 ANP1102     0.0000 
     28 N1         31.9570   65.7220  -41.7650 N.ar      1 ANP1102     0.0000 
     29 C2         31.0290   66.4810  -42.4910 C.ar      1 ANP1102     0.0000 
     30 N3         30.8080   67.8160  -42.1070 N.ar      1 ANP1102     0.0000 
     31 C4         31.5060   68.3110  -41.0790 C.ar      1 ANP1102     0.0000 
@<TRIPOS>BOND
     1    1    2 ar   
     2    1    3 ar   
     3    1    4 ar   
     4    1    8 1    
     5    5    6 ar   
     6    5    7 ar   
     7    5    8 1    
     8    5   12 1    
     9    9   10 ar   
    10    9   11 ar   
    11    9   12 1    
    12    9   13 1    
    13   13   14 1    
    14   14   15 1    
    15   15   16 1    
    16   15   17 1    
    17   16   21 1    
    18   17   18 1    
    19   17   19 1    
    20   19   20 1    
    21   19   21 1    
    22   21   22 1    
    23   22   23 1    
    24   22   31 1    
    25   23   24 2    
    26   24   25 1    
    27   25   26 ar   
    28   25   31 ar   
    29   26   27 1    
    30   26   28 ar   
    31   28   29 ar   
    32   29   30 ar   
    33   30   31 ar   
@<TRIPOS>SUBSTRUCTURE
     1 ANP1102     1 GROUP   
@<TRIPOS>SET
ATOM$ORANGE STATIC     ATOMS   COLORGROUP SYSTEM 
20 14 14 15 15 17 17 19 19 21 21 23 23 25 25 26 26 29 \
29 31 31 

