#    Name: 5zob_1_ARG_ARG_ARG_2UE_00S_CAVITY_N1_4
#    Modification time : Fri May 22 19:24:16 2020

@<TRIPOS>MOLECULE
5zob_1_ARG_ARG_ARG_2UE_00S_CAVITY_N1_4
   70     0     7     0     0
SMALL
NO_CHARGES


@<TRIPOS>ATOM
      1 OG         20.3000   18.1200   49.0700 O.3       1 SER1        0.0000 
      2 OG         19.5300   18.6200   50.9800 O.3       1 SER1        0.0000 
      3 OG         19.3300   20.0300   50.5400 O.3       1 SER1        0.0000 
      4 OG         20.6900   20.0300   49.9100 O.3       1 SER1        0.0000 
      5 OG         20.0900   24.2800   48.5700 O.3       1 SER1        0.0000 
      6 OG         21.4500   24.2800   47.9400 O.3       1 SER1        0.0000 
      7 OG         19.8900   25.7000   48.1200 O.3       1 SER1        0.0000 
      8 OG         19.9200   20.5200   51.8300 O.3       1 SER1        0.0000 
      9 OG         21.2900   20.5200   51.2000 O.3       1 SER1        0.0000 
     10 OG         20.6900   24.7700   49.8600 O.3       1 SER1        0.0000 
     11 O          17.5500   18.5700   46.6800 O.2       2 ALA2        0.0000 
     12 N          15.9800   19.9900   46.8600 N.am      2 ALA2        0.0000 
     13 O          17.3500   19.9800   46.2300 O.2       2 ALA2        0.0000 
     14 N          16.5800   20.4800   48.1400 N.am      2 ALA2        0.0000 
     15 N          17.9300   25.2200   47.4600 N.am      2 ALA2        0.0000 
     16 N          19.1000   26.6300   46.3900 N.am      2 ALA2        0.0000 
     17 N          15.2400   20.0500   52.4200 N.am      2 ALA2        0.0000 
     18 N          18.5300   25.7100   48.7500 N.am      2 ALA2        0.0000 
     19 N          18.5600   20.5300   52.4500 N.am      2 ALA2        0.0000 
     20 N          17.0000   21.9500   52.6300 N.am      2 ALA2        0.0000 
     21 N          18.3600   21.9500   52.0100 N.am      2 ALA2        0.0000 
     22 OD1        19.7000   17.6300   47.7800 O.co2     3 ASP3        0.0000 
     23 NZ         20.8600   19.0400   46.7100 N.4       4 LYS4        0.0000 
     24 NZ         19.3000   20.4700   46.8900 N.4       4 LYS4        0.0000 
     25 NZ         16.3800   21.9000   47.7000 N.4       4 LYS4        0.0000 
     26 NZ         16.1800   23.3100   47.2500 N.4       4 LYS4        0.0000 
     27 NZ         20.1000   19.5400   48.6200 N.4       4 LYS4        0.0000 
     28 NZ         21.4600   19.5300   48.0000 N.4       4 LYS4        0.0000 
     29 NZ         17.1700   20.9700   49.4300 N.4       4 LYS4        0.0000 
     30 NZ         19.9000   20.9600   48.1800 N.4       4 LYS4        0.0000 
     31 NZ         18.3300   22.3800   48.3600 N.4       4 LYS4        0.0000 
     32 NZ         19.7000   22.3800   47.7300 N.4       4 LYS4        0.0000 
     33 NZ         18.1300   23.8000   47.9100 N.4       4 LYS4        0.0000 
     34 NZ         16.6000   20.0500   51.7900 N.4       4 LYS4        0.0000 
     35 NZ         16.4000   21.4600   51.3500 N.4       4 LYS4        0.0000 
     36 NZ         17.7700   21.4600   50.7200 N.4       4 LYS4        0.0000 
     37 NZ         20.4900   21.4500   49.4600 N.4       4 LYS4        0.0000 
     38 NZ         21.8500   21.4400   48.8400 N.4       4 LYS4        0.0000 
     39 NZ         17.5700   22.8800   50.2700 N.4       4 LYS4        0.0000 
     40 NZ         21.6500   22.8600   48.3900 N.4       4 LYS4        0.0000 
     41 NZ         18.7300   24.2900   49.2000 N.4       4 LYS4        0.0000 
     42 NZ         16.8000   23.3700   52.1900 N.4       4 LYS4        0.0000 
     43 NZ         18.1600   23.3600   51.5600 N.4       4 LYS4        0.0000 
     44 NZ         17.9600   24.7800   51.1100 N.4       4 LYS4        0.0000 
     45 CZ         18.1700   18.6200   51.6100 C.ar      5 PHE5        0.0000 
     46 CA         18.3400   17.6400   48.4100 C.3       6 GLY6        0.0000 
     47 CA         16.7800   19.0600   48.5900 C.3       6 GLY6        0.0000 
     48 CA         18.1400   19.0600   47.9600 C.3       6 GLY6        0.0000 
     49 CA         17.3400   24.7300   46.1800 C.3       6 GLY6        0.0000 
     50 CA         17.5700   18.1300   50.3200 C.3       6 GLY6        0.0000 
     51 CA         16.0100   19.5600   50.5000 C.3       6 GLY6        0.0000 
     52 CA         17.3700   19.5500   49.8800 C.3       6 GLY6        0.0000 
     53 CA         16.8000   18.6300   52.2400 C.3       6 GLY6        0.0000 
     54 CA         20.8900   23.3500   50.3000 C.3       6 GLY6        0.0000 
     55 DU         19.5000   19.0500   47.3400 H         7 CUB7        0.0000 
     56 DU         17.9400   20.4700   47.5200 H         7 CUB7        0.0000 
     57 DU         17.7400   21.8900   47.0700 H         7 CUB7        0.0000 
     58 DU         18.9300   18.1300   49.7000 H         7 CUB7        0.0000 
     59 DU         18.7300   19.5400   49.2500 H         7 CUB7        0.0000 
     60 DU         18.5300   20.9600   48.8000 H         7 CUB7        0.0000 
     61 DU         19.5000   23.7900   47.2800 H         7 CUB7        0.0000 
     62 DU         19.3000   25.2100   46.8400 H         7 CUB7        0.0000 
     63 DU         17.9700   20.0400   51.1600 H         7 CUB7        0.0000 
     64 DU         19.1300   21.4500   50.0900 H         7 CUB7        0.0000 
     65 DU         18.9300   22.8700   49.6400 H         7 CUB7        0.0000 
     66 DU         20.2900   22.8600   49.0200 H         7 CUB7        0.0000 
     67 DU         19.7200   21.9400   51.3800 H         7 CUB7        0.0000 
     68 DU         21.0900   21.9400   50.7500 H         7 CUB7        0.0000 
     69 DU         19.5200   23.3600   50.9300 H         7 CUB7        0.0000 
     70 DU         19.3200   24.7800   50.4900 H         7 CUB7        0.0000 
@<TRIPOS>BOND
@<TRIPOS>SUBSTRUCTURE
     1 SER1        1 GROUP   
     2 ALA2       11 GROUP   
     3 ASP3       22 GROUP   
     4 LYS4       23 GROUP   
     5 PHE5       45 GROUP   
     6 GLY6       46 GROUP   
     7 CUB7       55 GROUP   
@<TRIPOS>SET

