#    Name: 5zob_1_ARG_ARG_ARG_2UE_00S
#    Modification time : Fri May 22 19:24:14 2020

@<TRIPOS>MOLECULE
5zob_1_ARG_ARG_ARG_2UE_00S
   58    59     5     0     0
SMALL
NO_CHARGES


@<TRIPOS>ATOM
      1 N          15.1390   24.1450   40.8270 N.am      1 ARG2        0.0000 
      2 CA         13.7840   24.7130   40.7560 C.3       1 ARG2        0.0000 
      3 C          12.7750   23.5690   40.6490 C.2       1 ARG2        0.0000 
      4 O          11.5650   23.7770   40.7350 O.2       1 ARG2        0.0000 
      5 CB         13.6730   25.6310   39.5370 C.3       1 ARG2        0.0000 
      6 CG         14.0580   24.8550   38.2770 C.3       1 ARG2        0.0000 
      7 CD         14.8880   25.7550   37.3600 C.3       1 ARG2        0.0000 
      8 NE         14.0240   26.7890   36.7730 N.pl3     1 ARG2        0.0000 
      9 CZ         14.4740   27.8140   36.0380 C.cat     1 ARG2        0.0000 
     10 NH1        15.7860   27.9440   35.8010 N.pl3     1 ARG2        0.0000 
     11 NH2        13.6120   28.7100   35.5410 N.pl3     1 ARG2        0.0000 
     12 N          13.3200   22.3560   40.4700 N.am      2 ARG3        0.0000 
     13 CA         12.5070   21.1340   40.3730 C.3       2 ARG3        0.0000 
     14 C          13.0230   20.1130   41.3870 C.2       2 ARG3        0.0000 
     15 O          14.2300   19.9380   41.5550 O.2       2 ARG3        0.0000 
     16 CB         12.5820   20.5540   38.9590 C.3       2 ARG3        0.0000 
     17 CG         11.3910   21.0700   38.1510 C.3       2 ARG3        0.0000 
     18 CD         11.8700   21.5910   36.7970 C.3       2 ARG3        0.0000 
     19 NE         10.7250   22.1680   36.0790 N.pl3     2 ARG3        0.0000 
     20 CZ         10.2980   21.7440   34.8820 C.cat     2 ARG3        0.0000 
     21 NH1         9.2410   22.3290   34.3030 N.pl3     2 ARG3        0.0000 
     22 NH2        10.9300   20.7370   34.2640 N.pl3     2 ARG3        0.0000 
     23 N          12.0680   19.4590   42.0610 N.am      3 ARG4        0.0000 
     24 CA         12.3850   18.4550   43.0880 C.3       3 ARG4        0.0000 
     25 C          12.2530   17.0490   42.5050 C.2       3 ARG4        0.0000 
     26 O          11.9700   16.0930   43.2230 O.2       3 ARG4        0.0000 
     27 CB         11.4240   18.6230   44.2680 C.3       3 ARG4        0.0000 
     28 CG         11.7600   19.9270   44.9910 C.3       3 ARG4        0.0000 
     29 CD         13.2340   19.8970   45.3940 C.3       3 ARG4        0.0000 
     30 NE         13.9180   21.1060   44.9180 N.pl3     3 ARG4        0.0000 
     31 CZ         14.3530   22.0810   45.7260 C.cat     3 ARG4        0.0000 
     32 NH1        14.9760   23.1500   45.2130 N.pl3     3 ARG4        0.0000 
     33 NH2        14.1620   21.9890   47.0490 N.pl3     3 ARG4        0.0000 
     34 C1         17.1590   23.3060   41.8660           4 2UE1        0.0000 
     35 N1         17.9730   20.9890   47.5940           4 2UE1        0.0000 
     36 O1         15.2610   24.1380   43.0960           4 2UE1        0.0000 
     37 C2         15.7550   23.9050   41.9940           4 2UE1        0.0000 
     38 N2         18.5970   21.9040   49.6350           4 2UE1        0.0000 
     39 C3         17.6230   22.8920   43.1120           4 2UE1        0.0000 
     40 N3         16.7920   20.4520   49.5200           4 2UE1        0.0000 
     41 C4         18.3810   23.7600   43.8890           4 2UE1        0.0000 
     42 C5         17.3370   21.6130   43.5780           4 2UE1        0.0000 
     43 C6         18.8500   23.3520   45.1310           4 2UE1        0.0000 
     44 C7         18.5620   22.0760   45.6010           4 2UE1        0.0000 
     45 C8         17.8050   21.2050   44.8230           4 2UE1        0.0000 
     46 C9         19.0360   21.6750   46.8460           4 2UE1        0.0000 
     47 C10        17.7870   21.1150   48.9160           4 2UE1        0.0000 
     48 N23        12.4570   16.9630   41.1840 N.4       5 00S5        0.0000 
     49 C16        12.3780   15.6850   40.4650 C.3       5 00S5        0.0000 
     50 C17        13.6410   15.1090   40.4560 C.ar      5 00S5        0.0000 
     51 C22        14.7660   15.9210   40.3750 C.ar      5 00S5        0.0000 
     52 C21        16.0340   15.3510   40.3690 C.ar      5 00S5        0.0000 
     53 C24        16.1740   13.9700   40.4460 C.ar      5 00S5        0.0000 
     54 C27        17.4420   13.4020   40.4410 C.2       5 00S5        0.0000 
     55 N35        18.4960   14.2100   40.3770 N.pl3     5 00S5        0.0000 
     56 N34        17.5400   12.0770   40.5110 N.pl3     5 00S5        0.0000 
     57 C19        15.0500   13.1590   40.5290 C.ar      5 00S5        0.0000 
     58 C18        13.7820   13.7290   40.5350 C.ar      5 00S5        0.0000 
@<TRIPOS>BOND
     1    1    2 1    
     2    1   37 du   
     3    2    3 1    
     4    2    5 1    
     5    3    4 2    
     6    3   12 am   
     7    5    6 1    
     8    6    7 1    
     9    7    8 1    
    10    8    9 ar   
    11    9   10 ar   
    12    9   11 ar   
    13   12   13 1    
    14   13   14 1    
    15   13   16 1    
    16   14   15 2    
    17   14   23 am   
    18   16   17 1    
    19   17   18 1    
    20   18   19 1    
    21   19   20 ar   
    22   20   21 ar   
    23   20   22 ar   
    24   23   24 1    
    25   24   25 1    
    26   24   27 1    
    27   25   48 du   
    28   25   26 2    
    29   27   28 1    
    30   28   29 1    
    31   29   30 1    
    32   30   31 ar   
    33   31   32 ar   
    34   31   33 ar   
    35   34   37 du   
    36   34   39 du   
    37   35   46 du   
    38   35   47 du   
    39   36   37 du   
    40   38   47 du   
    41   39   41 du   
    42   39   42 du   
    43   40   47 du   
    44   41   43 du   
    45   42   45 du   
    46   43   44 du   
    47   44   45 du   
    48   44   46 du   
    49   48   49 1    
    50   49   50 1    
    51   50   51 ar   
    52   50   58 ar   
    53   51   52 ar   
    54   52   53 ar   
    55   53   54 1    
    56   53   57 ar   
    57   54   55 2    
    58   54   56 1    
    59   57   58 ar   
@<TRIPOS>SUBSTRUCTURE
     1 ARG2        1 RESIDUE 
     2 ARG3       12 RESIDUE 
     3 ARG4       23 RESIDUE 
     4 2UE1       34 GROUP   
     5 00S5       48 GROUP   
@<TRIPOS>SET

