#    Name: 5zob_2_ARG_ARG_ARG_2UE_00S
#    Modification time : Fri May 22 19:24:21 2020

@<TRIPOS>MOLECULE
5zob_2_ARG_ARG_ARG_2UE_00S
   58    59     5     0     0
SMALL
NO_CHARGES


@<TRIPOS>ATOM
      1 N          14.8800   24.2690   66.6980 N.am      1 ARG2        0.0000 
      2 CA         16.2540   24.7950   66.6880 C.3       1 ARG2        0.0000 
      3 C          17.2460   23.6360   66.8140 C.2       1 ARG2        0.0000 
      4 O          18.4590   23.8310   66.7580 O.2       1 ARG2        0.0000 
      5 CB         16.4390   25.7910   67.8370 C.3       1 ARG2        0.0000 
      6 CG         16.0300   25.1430   69.1600 C.3       1 ARG2        0.0000 
      7 CD         16.2830   26.1290   70.3030 C.3       1 ARG2        0.0000 
      8 NE         15.0800   26.9400   70.5420 N.pl3     1 ARG2        0.0000 
      9 CZ         15.0480   27.9950   71.3680 C.cat     1 ARG2        0.0000 
     10 NH1        13.9110   28.6830   71.5370 N.pl3     1 ARG2        0.0000 
     11 NH2        16.1570   28.3610   72.0230 N.pl3     1 ARG2        0.0000 
     12 N          16.6870   22.4270   66.9690 N.am      2 ARG3        0.0000 
     13 CA         17.4910   21.2000   67.0790 C.3       2 ARG3        0.0000 
     14 C          16.9780   20.1810   66.0590 C.2       2 ARG3        0.0000 
     15 O          15.7740   19.9650   65.9290 O.2       2 ARG3        0.0000 
     16 CB         17.3800   20.6220   68.4930 C.3       2 ARG3        0.0000 
     17 CG         18.6700   20.9210   69.2590 C.3       2 ARG3        0.0000 
     18 CD         18.3340   21.4780   70.6430 C.3       2 ARG3        0.0000 
     19 NE         19.5400   22.0800   71.2280 N.pl3     2 ARG3        0.0000 
     20 CZ         20.0720   21.7120   72.4010 C.cat     2 ARG3        0.0000 
     21 NH1        21.1770   22.3180   72.8550 N.pl3     2 ARG3        0.0000 
     22 NH2        19.4980   20.7400   73.1220 N.pl3     2 ARG3        0.0000 
     23 N          17.9280   19.5720   65.3370 N.am      3 ARG4        0.0000 
     24 CA         17.6010   18.5710   64.3090 C.3       3 ARG4        0.0000 
     25 C          17.8340   17.1720   64.8720 C.2       3 ARG4        0.0000 
     26 O          18.2100   16.2520   64.1480 O.2       3 ARG4        0.0000 
     27 CB         18.4920   18.7920   63.0840 C.3       3 ARG4        0.0000 
     28 CG         18.1680   20.1530   62.4690 C.3       3 ARG4        0.0000 
     29 CD         16.6710   20.2200   62.1660 C.3       3 ARG4        0.0000 
     30 NE         16.1210   21.4970   62.6380 N.pl3     3 ARG4        0.0000 
     31 CZ         15.5450   22.4010   61.8360 C.cat     3 ARG4        0.0000 
     32 NH1        15.0640   23.5420   62.3450 N.pl3     3 ARG4        0.0000 
     33 NH2        15.4500   22.1610   60.5220 N.pl3     3 ARG4        0.0000 
     34 C1         12.7580   23.5750   65.7580           4 2UE1        0.0000 
     35 N1         11.9270   21.2630   60.0390           4 2UE1        0.0000 
     36 O1         14.5980   24.4290   64.4540           4 2UE1        0.0000 
     37 C2         14.1710   24.1330   65.5690           4 2UE1        0.0000 
     38 N2         10.7090   21.8870   58.1610           4 2UE1        0.0000 
     39 C3         12.2760   23.0540   64.5600           4 2UE1        0.0000 
     40 N3         12.9170   21.2110   57.9400           4 2UE1        0.0000 
     41 C4         11.6630   23.8920   63.6350           4 2UE1        0.0000 
     42 C5         12.3990   21.6950   64.2910           4 2UE1        0.0000 
     43 C6         11.1800   23.3730   62.4400           4 2UE1        0.0000 
     44 C7         11.3040   22.0150   62.1690           4 2UE1        0.0000 
     45 C8         11.9130   21.1760   63.0960           4 2UE1        0.0000 
     46 C9         10.8170   21.4970   60.9730           4 2UE1        0.0000 
     47 C10        11.8510   21.4540   58.7140           4 2UE1        0.0000 
     48 N23        17.6090   17.0500   66.1860 N.4       5 00S5        0.0000 
     49 C16        17.7900   15.7760   66.8930 C.3       5 00S5        0.0000 
     50 C17        16.5970   15.0670   66.9000 C.ar      5 00S5        0.0000 
     51 C22        15.3780   15.7350   66.9240 C.ar      5 00S5        0.0000 
     52 C21        14.1910   15.0110   66.9320 C.ar      5 00S5        0.0000 
     53 C24        14.2260   13.6200   66.9160 C.ar      5 00S5        0.0000 
     54 C27        13.0430   12.8910   66.9240 C.2       5 00S5        0.0000 
     55 N35        13.1190   11.5650   66.8650 N.pl3     5 00S5        0.0000 
     56 N34        11.8920   13.5550   66.9920 N.pl3     5 00S5        0.0000 
     57 C19        15.4430   12.9540   66.8920 C.ar      5 00S5        0.0000 
     58 C18        16.6280   13.6780   66.8850 C.ar      5 00S5        0.0000 
@<TRIPOS>BOND
     1    1    2 1    
     2    1   37 du   
     3    2    3 1    
     4    2    5 1    
     5    3    4 2    
     6    3   12 am   
     7    5    6 1    
     8    6    7 1    
     9    7    8 1    
    10    8    9 ar   
    11    9   10 ar   
    12    9   11 ar   
    13   12   13 1    
    14   13   14 1    
    15   13   16 1    
    16   14   15 2    
    17   14   23 am   
    18   16   17 1    
    19   17   18 1    
    20   18   19 1    
    21   19   20 ar   
    22   20   21 ar   
    23   20   22 ar   
    24   23   24 1    
    25   24   25 1    
    26   24   27 1    
    27   25   26 2    
    28   25   48 du   
    29   27   28 1    
    30   28   29 1    
    31   29   30 1    
    32   30   31 ar   
    33   31   32 ar   
    34   31   33 ar   
    35   34   37 du   
    36   34   39 du   
    37   35   46 du   
    38   35   47 du   
    39   36   37 du   
    40   38   47 du   
    41   39   41 du   
    42   39   42 du   
    43   40   47 du   
    44   41   43 du   
    45   42   45 du   
    46   43   44 du   
    47   44   45 du   
    48   44   46 du   
    49   48   49 1    
    50   49   50 1    
    51   50   51 ar   
    52   50   58 ar   
    53   51   52 ar   
    54   52   53 ar   
    55   53   54 1    
    56   53   57 ar   
    57   54   55 2    
    58   54   56 1    
    59   57   58 ar   
@<TRIPOS>SUBSTRUCTURE
     1 ARG2        1 RESIDUE 
     2 ARG3       12 RESIDUE 
     3 ARG4       23 RESIDUE 
     4 2UE1       34 GROUP   
     5 00S5       48 GROUP   
@<TRIPOS>SET

