#    Name: 5zob_2_ARG_ARG_ARG_2UE_00S_CAVITY_N1_4
#    Modification time : Fri May 22 19:24:22 2020

@<TRIPOS>MOLECULE
5zob_2_ARG_ARG_ARG_2UE_00S_CAVITY_N1_4
   55     0     6     0     0
SMALL
NO_CHARGES


@<TRIPOS>ATOM
      1 OG          9.2200   19.1500   57.2900 O.3       1 SER1        0.0000 
      2 OG         10.5800   19.1400   56.6600 O.3       1 SER1        0.0000 
      3 OG         10.3800   20.5600   56.2100 O.3       1 SER1        0.0000 
      4 OG          9.8100   24.3800   58.5200 O.3       1 SER1        0.0000 
      5 OG          9.0400   24.8800   60.4400 O.3       1 SER1        0.0000 
      6 N          13.3100   19.1300   55.4100 N.am      2 ALA2        0.0000 
      7 N          11.7500   20.5600   55.5900 N.am      2 ALA2        0.0000 
      8 N          13.1100   20.5500   54.9600 N.am      2 ALA2        0.0000 
      9 N          14.4700   20.5500   54.3300 N.am      2 ALA2        0.0000 
     10 N          11.5500   21.9700   55.1400 N.am      2 ALA2        0.0000 
     11 O          11.3500   23.3900   54.6900 O.2       2 ALA2        0.0000 
     12 O          12.1700   17.2900   60.1300 O.2       2 ALA2        0.0000 
     13 O          11.9700   18.7000   59.6800 O.2       2 ALA2        0.0000 
     14 N          10.9700   25.7900   57.4500 N.am      2 ALA2        0.0000 
     15 N          11.7700   24.8700   59.1800 N.am      2 ALA2        0.0000 
     16 NZ          8.4500   19.6400   59.2000 N.4       3 LYS4        0.0000 
     17 NZ          9.8200   19.6400   58.5800 N.4       3 LYS4        0.0000 
     18 NZ         12.5400   19.6300   57.3200 N.4       3 LYS4        0.0000 
     19 NZ         13.9000   19.6200   56.6900 N.4       3 LYS4        0.0000 
     20 NZ          9.6200   21.0600   58.1300 N.4       3 LYS4        0.0000 
     21 NZ         12.3400   21.0500   56.8800 N.4       3 LYS4        0.0000 
     22 NZ         13.7000   21.0400   56.2500 N.4       3 LYS4        0.0000 
     23 NZ         15.0700   21.0300   55.6200 N.4       3 LYS4        0.0000 
     24 NZ          9.4200   22.4700   57.6800 N.4       3 LYS4        0.0000 
     25 NZ         12.1400   22.4600   56.4300 N.4       3 LYS4        0.0000 
     26 NZ         13.5000   22.4600   55.8000 N.4       3 LYS4        0.0000 
     27 NZ         11.9400   23.8800   55.9800 N.4       3 LYS4        0.0000 
     28 NZ         13.3000   23.8800   55.3500 N.4       3 LYS4        0.0000 
     29 NZ         10.4100   20.1300   59.8600 N.4       3 LYS4        0.0000 
     30 NZ         13.1400   20.1200   58.6100 N.4       3 LYS4        0.0000 
     31 NZ         10.2100   21.5500   59.4200 N.4       3 LYS4        0.0000 
     32 NZ         12.9400   21.5300   58.1600 N.4       3 LYS4        0.0000 
     33 NZ         10.0100   22.9600   58.9700 N.4       3 LYS4        0.0000 
     34 NZ         11.3700   22.9600   58.3400 N.4       3 LYS4        0.0000 
     35 NZ         12.7400   22.9500   57.7200 N.4       3 LYS4        0.0000 
     36 NZ         11.1700   24.3800   57.9000 N.4       3 LYS4        0.0000 
     37 NZ         12.5400   24.3700   57.2700 N.4       3 LYS4        0.0000 
     38 CZ         11.9500   19.1400   56.0300 C.ar      4 PHE5        0.0000 
     39 CA         12.1500   17.7200   56.4800 C.3       5 GLY6        0.0000 
     40 CA          9.9800   23.4000   55.3200 C.3       5 GLY6        0.0000 
     41 CA         11.3800   18.2200   58.4000 C.3       5 GLY6        0.0000 
     42 CA         12.7400   18.2100   57.7700 C.3       5 GLY6        0.0000 
     43 CA         14.8700   22.4500   55.1700 C.3       5 GLY6        0.0000 
     44 CA          9.2200   23.8900   57.2400 C.3       5 GLY6        0.0000 
     45 CA         10.3800   25.3100   56.1600 C.3       5 GLY6        0.0000 
     46 CA         13.3400   18.7000   59.0600 C.3       5 GLY6        0.0000 
     47 DU         10.1800   21.9800   55.7700 H         6 CUB7        0.0000 
     48 DU         10.0200   18.2200   59.0200 H         6 CUB7        0.0000 
     49 DU         11.1800   19.6300   57.9500 H         6 CUB7        0.0000 
     50 DU         10.9800   21.0500   57.5000 H         6 CUB7        0.0000 
     51 DU         10.7800   22.4700   57.0600 H         6 CUB7        0.0000 
     52 DU         10.5800   23.8900   56.6100 H         6 CUB7        0.0000 
     53 DU         10.6100   18.7100   60.3100 H         6 CUB7        0.0000 
     54 DU         11.7700   20.1200   59.2400 H         6 CUB7        0.0000 
     55 DU         11.5700   21.5400   58.7900 H         6 CUB7        0.0000 
@<TRIPOS>BOND
@<TRIPOS>SUBSTRUCTURE
     1 SER1        1 GROUP   
     2 ALA2        6 GROUP   
     3 LYS4       16 GROUP   
     4 PHE5       38 GROUP   
     5 GLY6       39 GROUP   
     6 CUB7       47 GROUP   
@<TRIPOS>SET

