#    Name: 5zob_1_ARG_ARG_ARG_2UE_00S_CAVITY_N1_ALL
#    Modification time : Fri May 22 19:24:16 2020

@<TRIPOS>MOLECULE
5zob_1_ARG_ARG_ARG_2UE_00S_CAVITY_N1_ALL
   97     0     7     0     0
SMALL
NO_CHARGES


@<TRIPOS>ATOM
      1 OG         20.3000   18.1200   49.0700 O.3       1 SER1        0.0000 
      2 OG         19.5300   18.6200   50.9800 O.3       1 SER1        0.0000 
      3 OG         19.3300   20.0300   50.5400 O.3       1 SER1        0.0000 
      4 OG         20.6900   20.0300   49.9100 O.3       1 SER1        0.0000 
      5 OG         20.0900   24.2800   48.5700 O.3       1 SER1        0.0000 
      6 OG         21.4500   24.2800   47.9400 O.3       1 SER1        0.0000 
      7 OG         19.8900   25.7000   48.1200 O.3       1 SER1        0.0000 
      8 OG         19.9200   20.5200   51.8300 O.3       1 SER1        0.0000 
      9 OG         21.2900   20.5200   51.2000 O.3       1 SER1        0.0000 
     10 OG         20.6900   24.7700   49.8600 O.3       1 SER1        0.0000 
     11 OG         20.4900   26.1900   49.4100 O.3       1 SER1        0.0000 
     12 O          17.9400   15.7300   47.5700 O.2       2 ALA2        0.0000 
     13 O          19.1100   17.1400   46.5000 O.2       2 ALA2        0.0000 
     14 O          17.5500   18.5700   46.6800 O.2       2 ALA2        0.0000 
     15 N          15.9800   19.9900   46.8600 N.am      2 ALA2        0.0000 
     16 O          17.3500   19.9800   46.2300 O.2       2 ALA2        0.0000 
     17 N          16.5800   20.4800   48.1400 N.am      2 ALA2        0.0000 
     18 N          17.9300   25.2200   47.4600 N.am      2 ALA2        0.0000 
     19 N          19.1000   26.6300   46.3900 N.am      2 ALA2        0.0000 
     20 N          15.2400   20.0500   52.4200 N.am      2 ALA2        0.0000 
     21 N          18.5300   25.7100   48.7500 N.am      2 ALA2        0.0000 
     22 N          16.0300   19.1200   54.1500 N.am      2 ALA2        0.0000 
     23 N          17.4000   19.1200   53.5300 N.am      2 ALA2        0.0000 
     24 N          14.4700   20.5500   54.3300 N.am      2 ALA2        0.0000 
     25 N          15.8300   20.5400   53.7100 N.am      2 ALA2        0.0000 
     26 N          18.5600   20.5300   52.4500 N.am      2 ALA2        0.0000 
     27 N          15.6300   21.9600   53.2600 N.am      2 ALA2        0.0000 
     28 N          17.0000   21.9500   52.6300 N.am      2 ALA2        0.0000 
     29 N          18.3600   21.9500   52.0100 N.am      2 ALA2        0.0000 
     30 OD1        19.3100   15.7200   46.9400 O.co2     3 ASP3        0.0000 
     31 OD1        18.5400   16.2200   48.8600 O.co2     3 ASP3        0.0000 
     32 OD1        19.9000   16.2100   48.2300 O.co2     3 ASP3        0.0000 
     33 OD1        19.7000   17.6300   47.7800 O.co2     3 ASP3        0.0000 
     34 OD1        19.1300   16.7100   50.1400 O.co2     3 ASP3        0.0000 
     35 NZ         20.8600   19.0400   46.7100 N.4       4 LYS4        0.0000 
     36 NZ         19.3000   20.4700   46.8900 N.4       4 LYS4        0.0000 
     37 NZ         16.3800   21.9000   47.7000 N.4       4 LYS4        0.0000 
     38 NZ         16.1800   23.3100   47.2500 N.4       4 LYS4        0.0000 
     39 NZ         20.1000   19.5400   48.6200 N.4       4 LYS4        0.0000 
     40 NZ         21.4600   19.5300   48.0000 N.4       4 LYS4        0.0000 
     41 NZ         17.1700   20.9700   49.4300 N.4       4 LYS4        0.0000 
     42 NZ         19.9000   20.9600   48.1800 N.4       4 LYS4        0.0000 
     43 NZ         18.3300   22.3800   48.3600 N.4       4 LYS4        0.0000 
     44 NZ         19.7000   22.3800   47.7300 N.4       4 LYS4        0.0000 
     45 NZ         18.1300   23.8000   47.9100 N.4       4 LYS4        0.0000 
     46 NZ         16.6000   20.0500   51.7900 N.4       4 LYS4        0.0000 
     47 NZ         16.4000   21.4600   51.3500 N.4       4 LYS4        0.0000 
     48 NZ         17.7700   21.4600   50.7200 N.4       4 LYS4        0.0000 
     49 NZ         20.4900   21.4500   49.4600 N.4       4 LYS4        0.0000 
     50 NZ         21.8500   21.4400   48.8400 N.4       4 LYS4        0.0000 
     51 NZ         17.5700   22.8800   50.2700 N.4       4 LYS4        0.0000 
     52 NZ         21.6500   22.8600   48.3900 N.4       4 LYS4        0.0000 
     53 NZ         18.7300   24.2900   49.2000 N.4       4 LYS4        0.0000 
     54 NZ         16.8000   23.3700   52.1900 N.4       4 LYS4        0.0000 
     55 NZ         18.1600   23.3600   51.5600 N.4       4 LYS4        0.0000 
     56 NZ         17.9600   24.7800   51.1100 N.4       4 LYS4        0.0000 
     57 CZ         12.9100   17.2300   54.5700 C.ar      5 PHE5        0.0000 
     58 CZ         18.3700   17.2000   52.0600 C.ar      5 PHE5        0.0000 
     59 CZ         19.7300   17.2000   51.4300 C.ar      5 PHE5        0.0000 
     60 CZ         12.7100   18.6400   54.1200 C.ar      5 PHE5        0.0000 
     61 CZ         18.1700   18.6200   51.6100 C.ar      5 PHE5        0.0000 
     62 CZ         18.7600   19.1100   52.9000 C.ar      5 PHE5        0.0000 
     63 CA         20.8700   14.3000   46.7600 C.3       6 GLY6        0.0000 
     64 CA         21.2600   16.2100   47.6000 C.3       6 GLY6        0.0000 
     65 CA         18.3400   17.6400   48.4100 C.3       6 GLY6        0.0000 
     66 CA         16.7800   19.0600   48.5900 C.3       6 GLY6        0.0000 
     67 CA         18.1400   19.0600   47.9600 C.3       6 GLY6        0.0000 
     68 CA         17.3400   24.7300   46.1800 C.3       6 GLY6        0.0000 
     69 CA         17.7700   16.7100   50.7700 C.3       6 GLY6        0.0000 
     70 CA         17.5700   18.1300   50.3200 C.3       6 GLY6        0.0000 
     71 CA         16.0100   19.5600   50.5000 C.3       6 GLY6        0.0000 
     72 CA         17.3700   19.5500   49.8800 C.3       6 GLY6        0.0000 
     73 CA         14.2800   17.2200   53.9400 C.3       6 GLY6        0.0000 
     74 CA         17.0000   17.2100   52.6900 C.3       6 GLY6        0.0000 
     75 CA         14.0800   18.6400   53.4900 C.3       6 GLY6        0.0000 
     76 CA         15.4400   18.6300   52.8700 C.3       6 GLY6        0.0000 
     77 CA         16.8000   18.6300   52.2400 C.3       6 GLY6        0.0000 
     78 CA         19.6900   27.1200   47.6800 C.3       6 GLY6        0.0000 
     79 CA         14.6700   19.1300   54.7800 C.3       6 GLY6        0.0000 
     80 CA         20.8900   23.3500   50.3000 C.3       6 GLY6        0.0000 
     81 CA         19.1200   26.2000   50.0400 C.3       6 GLY6        0.0000 
     82 DU         19.5000   19.0500   47.3400 H         7 CUB7        0.0000 
     83 DU         17.9400   20.4700   47.5200 H         7 CUB7        0.0000 
     84 DU         17.7400   21.8900   47.0700 H         7 CUB7        0.0000 
     85 DU         18.9300   18.1300   49.7000 H         7 CUB7        0.0000 
     86 DU         18.7300   19.5400   49.2500 H         7 CUB7        0.0000 
     87 DU         18.5300   20.9600   48.8000 H         7 CUB7        0.0000 
     88 DU         19.5000   23.7900   47.2800 H         7 CUB7        0.0000 
     89 DU         19.3000   25.2100   46.8400 H         7 CUB7        0.0000 
     90 DU         17.9700   20.0400   51.1600 H         7 CUB7        0.0000 
     91 DU         19.1300   21.4500   50.0900 H         7 CUB7        0.0000 
     92 DU         18.9300   22.8700   49.6400 H         7 CUB7        0.0000 
     93 DU         20.2900   22.8600   49.0200 H         7 CUB7        0.0000 
     94 DU         19.7200   21.9400   51.3800 H         7 CUB7        0.0000 
     95 DU         21.0900   21.9400   50.7500 H         7 CUB7        0.0000 
     96 DU         19.5200   23.3600   50.9300 H         7 CUB7        0.0000 
     97 DU         19.3200   24.7800   50.4900 H         7 CUB7        0.0000 
@<TRIPOS>BOND
@<TRIPOS>SUBSTRUCTURE
     1 SER1        1 GROUP   
     2 ALA2       12 GROUP   
     3 ASP3       30 GROUP   
     4 LYS4       35 GROUP   
     5 PHE5       57 GROUP   
     6 GLY6       63 GROUP   
     7 CUB7       82 GROUP   
@<TRIPOS>SET

