#    Name: 5zob_2_ARG_ARG_ARG_2UE_00S_CAVITY_N1_6
#    Modification time : Fri May 22 19:24:22 2020

@<TRIPOS>MOLECULE
5zob_2_ARG_ARG_ARG_2UE_00S_CAVITY_N1_6
   90     0     7     0     0
SMALL
NO_CHARGES


@<TRIPOS>ATOM
      1 OG          9.4200   17.7300   57.7400 O.3       1 SER1        0.0000 
      2 OG         10.7800   17.7300   57.1100 O.3       1 SER1        0.0000 
      3 OG          9.2200   19.1500   57.2900 O.3       1 SER1        0.0000 
      4 OG         10.5800   19.1400   56.6600 O.3       1 SER1        0.0000 
      5 OG         10.3800   20.5600   56.2100 O.3       1 SER1        0.0000 
      6 OG          9.8100   24.3800   58.5200 O.3       1 SER1        0.0000 
      7 OG          9.6100   25.8000   58.0800 O.3       1 SER1        0.0000 
      8 OG          9.4100   27.2200   57.6300 O.3       1 SER1        0.0000 
      9 OG          9.0400   24.8800   60.4400 O.3       1 SER1        0.0000 
     10 OG         10.2100   26.2900   59.3600 O.3       1 SER1        0.0000 
     11 N          13.3100   19.1300   55.4100 N.am      2 ALA2        0.0000 
     12 N          11.7500   20.5600   55.5900 N.am      2 ALA2        0.0000 
     13 N          13.1100   20.5500   54.9600 N.am      2 ALA2        0.0000 
     14 N          14.4700   20.5500   54.3300 N.am      2 ALA2        0.0000 
     15 N          11.5500   21.9700   55.1400 N.am      2 ALA2        0.0000 
     16 N          14.2700   21.9600   53.8900 N.am      2 ALA2        0.0000 
     17 N          15.6300   21.9600   53.2600 N.am      2 ALA2        0.0000 
     18 O          11.3500   23.3900   54.6900 O.2       2 ALA2        0.0000 
     19 N          12.7100   23.3900   54.0700 N.am      2 ALA2        0.0000 
     20 O          11.1500   24.8100   54.2500 O.2       2 ALA2        0.0000 
     21 O          12.5100   24.8000   53.6200 O.2       2 ALA2        0.0000 
     22 N          10.1800   26.7200   55.7200 N.am      2 ALA2        0.0000 
     23 N          11.5400   26.7200   55.0900 N.am      2 ALA2        0.0000 
     24 O          12.1700   17.2900   60.1300 O.2       2 ALA2        0.0000 
     25 O          11.9700   18.7000   59.6800 O.2       2 ALA2        0.0000 
     26 N          10.9700   25.7900   57.4500 N.am      2 ALA2        0.0000 
     27 N          12.3400   25.7900   56.8200 N.am      2 ALA2        0.0000 
     28 N          10.7700   27.2100   57.0000 N.am      2 ALA2        0.0000 
     29 N          11.7700   24.8700   59.1800 N.am      2 ALA2        0.0000 
     30 OD1        10.9800   16.3100   57.5500 O.co2     3 ASP3        0.0000 
     31 OD1        11.7800   15.3800   59.2900 O.co2     3 ASP3        0.0000 
     32 OD1        10.2200   16.8000   59.4700 O.co2     3 ASP3        0.0000 
     33 NZ          7.4900   16.8100   60.7200 N.4       4 LYS4        0.0000 
     34 NZ          8.6500   18.2300   59.6500 N.4       4 LYS4        0.0000 
     35 NZ          8.4500   19.6400   59.2000 N.4       4 LYS4        0.0000 
     36 NZ          9.8200   19.6400   58.5800 N.4       4 LYS4        0.0000 
     37 NZ         12.5400   19.6300   57.3200 N.4       4 LYS4        0.0000 
     38 NZ         13.9000   19.6200   56.6900 N.4       4 LYS4        0.0000 
     39 NZ          9.6200   21.0600   58.1300 N.4       4 LYS4        0.0000 
     40 NZ         12.3400   21.0500   56.8800 N.4       4 LYS4        0.0000 
     41 NZ         13.7000   21.0400   56.2500 N.4       4 LYS4        0.0000 
     42 NZ         15.0700   21.0300   55.6200 N.4       4 LYS4        0.0000 
     43 NZ          9.4200   22.4700   57.6800 N.4       4 LYS4        0.0000 
     44 NZ         12.1400   22.4600   56.4300 N.4       4 LYS4        0.0000 
     45 NZ         13.5000   22.4600   55.8000 N.4       4 LYS4        0.0000 
     46 NZ         11.9400   23.8800   55.9800 N.4       4 LYS4        0.0000 
     47 NZ         13.3000   23.8800   55.3500 N.4       4 LYS4        0.0000 
     48 NZ         13.1000   25.2900   54.9100 N.4       4 LYS4        0.0000 
     49 NZ         10.4100   20.1300   59.8600 N.4       4 LYS4        0.0000 
     50 NZ         13.1400   20.1200   58.6100 N.4       4 LYS4        0.0000 
     51 NZ         10.2100   21.5500   59.4200 N.4       4 LYS4        0.0000 
     52 NZ         12.9400   21.5300   58.1600 N.4       4 LYS4        0.0000 
     53 NZ         10.0100   22.9600   58.9700 N.4       4 LYS4        0.0000 
     54 NZ         11.3700   22.9600   58.3400 N.4       4 LYS4        0.0000 
     55 NZ         12.7400   22.9500   57.7200 N.4       4 LYS4        0.0000 
     56 NZ         11.1700   24.3800   57.9000 N.4       4 LYS4        0.0000 
     57 NZ         12.5400   24.3700   57.2700 N.4       4 LYS4        0.0000 
     58 NZ         13.7000   25.7800   56.2000 N.4       4 LYS4        0.0000 
     59 CZ         11.9500   19.1400   56.0300 C.ar      5 PHE5        0.0000 
     60 CA          8.0600   17.7400   58.3600 C.3       6 GLY6        0.0000 
     61 CA         12.1500   17.7200   56.4800 C.3       6 GLY6        0.0000 
     62 CA         14.6700   19.1300   54.7800 C.3       6 GLY6        0.0000 
     63 CA          9.9800   23.4000   55.3200 C.3       6 GLY6        0.0000 
     64 CA         14.0700   23.3800   53.4400 C.3       6 GLY6        0.0000 
     65 CA          9.7800   24.8200   54.8700 C.3       6 GLY6        0.0000 
     66 CA          8.8500   16.8100   60.1000 C.3       6 GLY6        0.0000 
     67 CA         11.5800   16.8000   58.8400 C.3       6 GLY6        0.0000 
     68 CA         11.3800   18.2200   58.4000 C.3       6 GLY6        0.0000 
     69 CA         12.7400   18.2100   57.7700 C.3       6 GLY6        0.0000 
     70 CA         14.8700   22.4500   55.1700 C.3       6 GLY6        0.0000 
     71 CA          9.2200   23.8900   57.2400 C.3       6 GLY6        0.0000 
     72 CA         14.6700   23.8700   54.7300 C.3       6 GLY6        0.0000 
     73 CA         16.0300   23.8700   54.1000 C.3       6 GLY6        0.0000 
     74 CA          9.0200   25.3100   56.7900 C.3       6 GLY6        0.0000 
     75 CA         10.3800   25.3100   56.1600 C.3       6 GLY6        0.0000 
     76 CA         14.4700   25.2900   54.2800 C.3       6 GLY6        0.0000 
     77 CA          8.8200   26.7300   56.3400 C.3       6 GLY6        0.0000 
     78 CA         13.3400   18.7000   59.0600 C.3       6 GLY6        0.0000 
     79 CA         15.0600   25.7800   55.5700 C.3       6 GLY6        0.0000 
     80 CA         12.1400   27.2100   56.3800 C.3       6 GLY6        0.0000 
     81 DU         10.1800   21.9800   55.7700 H         7 CUB7        0.0000 
     82 DU         10.0200   18.2200   59.0200 H         7 CUB7        0.0000 
     83 DU         11.1800   19.6300   57.9500 H         7 CUB7        0.0000 
     84 DU         10.9800   21.0500   57.5000 H         7 CUB7        0.0000 
     85 DU         10.7800   22.4700   57.0600 H         7 CUB7        0.0000 
     86 DU         10.5800   23.8900   56.6100 H         7 CUB7        0.0000 
     87 DU         11.7400   25.3000   55.5400 H         7 CUB7        0.0000 
     88 DU         10.6100   18.7100   60.3100 H         7 CUB7        0.0000 
     89 DU         11.7700   20.1200   59.2400 H         7 CUB7        0.0000 
     90 DU         11.5700   21.5400   58.7900 H         7 CUB7        0.0000 
@<TRIPOS>BOND
@<TRIPOS>SUBSTRUCTURE
     1 SER1        1 GROUP   
     2 ALA2       11 GROUP   
     3 ASP3       30 GROUP   
     4 LYS4       33 GROUP   
     5 PHE5       59 GROUP   
     6 GLY6       60 GROUP   
     7 CUB7       81 GROUP   
@<TRIPOS>SET

