#    Name: 6omk_1_MYA
#    Modification time : Fri May 22 19:40:36 2020

@<TRIPOS>MOLECULE
6omk_1_MYA
   63    65     1     0     0
SMALL
NO_CHARGES


@<TRIPOS>ATOM
      1 S1         13.5940   -7.6490    4.6810 S.3       1 MYA501      0.0000 
      2 C2         13.5440   -9.4200    5.0780 C.3       1 MYA501      0.0000 
      3 C3         12.5120   -9.8220    6.1180 C.3       1 MYA501      0.0000 
      4 N4         12.7640  -11.1420    6.6870 N.am      1 MYA501      0.0000 
      5 C5         12.2650  -12.2800    6.1780 C.2       1 MYA501      0.0000 
      6 O5         11.5170  -12.2830    5.2030 O.2       1 MYA501      0.0000 
      7 C6         12.6400  -13.5780    6.8630 C.3       1 MYA501      0.0000 
      8 C7         11.4470  -14.5100    7.0220 C.3       1 MYA501      0.0000 
      9 N8         10.3280  -13.8850    7.7240 N.am      1 MYA501      0.0000 
     10 C9         10.3410  -13.6390    9.0250 C.2       1 MYA501      0.0000 
     11 O9         11.3020  -13.9200    9.7330 O.2       1 MYA501      0.0000 
     12 C10         9.0880  -13.0320    9.6500 C.3       1 MYA501      0.0000 
     13 O10         7.9470  -13.3240    8.8460 O.3       1 MYA501      0.0000 
     14 C11         9.2040  -11.5210    9.9070 C.3       1 MYA501      0.0000 
     15 C12         7.8930  -10.9220   10.4220 C.3       1 MYA501      0.0000 
     16 C13         9.6030  -10.8260    8.6010 C.3       1 MYA501      0.0000 
     17 C14        10.2990  -11.2640   10.9450 C.3       1 MYA501      0.0000 
     18 N1A         9.8180   -5.6100    7.2460 N.ar      1 MYA501      0.0000 
     19 O1A         6.0530  -10.5950   14.3860 O.co2     1 MYA501      0.0000 
     20 P1A         4.8660  -10.4470   13.4860 P.3       1 MYA501      0.0000 
     21 C1X         5.3780   -6.3660    9.7410 C.3       1 MYA501      0.0000 
     22 C2A         9.1470   -4.8640    8.1340 C.ar      1 MYA501      0.0000 
     23 O2A         3.5280  -10.8590   14.0140 O.co2     1 MYA501      0.0000 
     24 P2A         6.1680  -12.3810   11.8010 P.3       1 MYA501      0.0000 
     25 C2M        14.5320   -7.0300    6.0240 C.2       1 MYA501      0.0000 
     26 O2M        15.2630   -7.7260    6.6840 O.2       1 MYA501      0.0000 
     27 C2X         3.9340   -6.5790    9.3030 C.3       1 MYA501      0.0000 
     28 O2X         3.5310   -5.6580    8.3120 O.3       1 MYA501      0.0000 
     29 N3A         7.9970   -5.1200    8.7510 N.ar      1 MYA501      0.0000 
     30 O3A         5.1430  -11.1960   12.1030 O.3       1 MYA501      0.0000 
     31 C3M        14.3270   -5.5550    6.2600 C.3       1 MYA501      0.0000 
     32 C3X         3.2220   -6.3950   10.6420 C.3       1 MYA501      0.0000 
     33 O3X         3.1930   -5.0000   10.9240 O.3       1 MYA501      0.0000 
     34 P3X         1.7240   -4.3680   10.6760 P.3       1 MYA501      0.0000 
     35 C4A         7.5100   -6.3130    8.3770 C.ar      1 MYA501      0.0000 
     36 O4A         5.8260  -12.9490   10.4630 O.co2     1 MYA501      0.0000 
     37 C4M        13.4320   -5.2820    7.4330 C.3       1 MYA501      0.0000 
     38 C4X         4.1900   -7.0760   11.6140 C.3       1 MYA501      0.0000 
     39 O4X         5.4900   -7.0590   10.9630 O.3       1 MYA501      0.0000 
     40 C5A         8.0840   -7.1930    7.4800 C.ar      1 MYA501      0.0000 
     41 O5A         6.2350  -13.2510   13.0150 O.co2     1 MYA501      0.0000 
     42 C5M        13.2580   -3.8020    7.7490 C.3       1 MYA501      0.0000 
     43 C5X         3.8500   -8.4990   11.9760 C.3       1 MYA501      0.0000 
     44 O5X         4.8070   -8.9360   12.9670 O.3       1 MYA501      0.0000 
     45 C6A         9.3060   -6.8110    6.8880 C.ar      1 MYA501      0.0000 
     46 N6A         9.9670   -7.5470    5.9940 N.pl3     1 MYA501      0.0000 
     47 O6A         7.5540  -11.5760   11.6770 O.3       1 MYA501      0.0000 
     48 C6M        12.4280   -3.5700    8.9950 C.3       1 MYA501      0.0000 
     49 N7A         7.2930   -8.3250    7.3440 N.2       1 MYA501      0.0000 
     50 O7A         1.3300   -4.7070    9.2550 O.co2     1 MYA501      0.0000 
     51 C7M        12.1580   -2.1230    9.3200 C.3       1 MYA501      0.0000 
     52 C8A         6.2750   -8.1100    8.1390 C.2       1 MYA501      0.0000 
     53 O8A         0.8300   -5.0270   11.7110 O.co2     1 MYA501      0.0000 
     54 C8M        13.3170   -1.3850    9.9540 C.3       1 MYA501      0.0000 
     55 N9A         6.3470   -6.9080    8.7980 N.pl3     1 MYA501      0.0000 
     56 O9A         1.8620   -2.8720   10.8890 O.co2     1 MYA501      0.0000 
     57 C9M        12.9830    0.0760   10.2570 C.3       1 MYA501      0.0000 
     58 CAM        14.1500    0.8900   10.7950 C.3       1 MYA501      0.0000 
     59 CBM        14.5830    0.5200   12.1990 C.3       1 MYA501      0.0000 
     60 CCM        15.7370    1.3260   12.7440 C.3       1 MYA501      0.0000 
     61 CDM        15.5000    2.8250   12.7770 C.3       1 MYA501      0.0000 
     62 CEM        16.7010    3.6250   13.2490 C.3       1 MYA501      0.0000 
     63 CFM        16.4960    5.1280   13.2380 C.3       1 MYA501      0.0000 
@<TRIPOS>BOND
     1    1    2 1    
     2    1   25 1    
     3    2    3 1    
     4    3    4 1    
     5    4    5 am   
     6    5    6 2    
     7    5    7 1    
     8    7    8 1    
     9    8    9 1    
    10    9   10 am   
    11   10   11 2    
    12   10   12 1    
    13   12   13 1    
    14   12   14 1    
    15   14   15 1    
    16   14   16 1    
    17   14   17 1    
    18   15   47 1    
    19   18   22 ar   
    20   18   45 ar   
    21   19   20 ar   
    22   20   23 ar   
    23   20   30 1    
    24   20   44 1    
    25   21   27 1    
    26   21   39 1    
    27   21   55 1    
    28   22   29 ar   
    29   24   30 1    
    30   24   36 ar   
    31   24   41 ar   
    32   24   47 1    
    33   25   26 2    
    34   25   31 1    
    35   27   28 1    
    36   27   32 1    
    37   29   35 ar   
    38   31   37 1    
    39   32   33 1    
    40   32   38 1    
    41   33   34 1    
    42   34   50 ar   
    43   34   53 ar   
    44   34   56 ar   
    45   35   40 ar   
    46   35   55 1    
    47   37   42 1    
    48   38   39 1    
    49   38   43 1    
    50   40   45 ar   
    51   40   49 1    
    52   42   48 1    
    53   43   44 1    
    54   45   46 1    
    55   48   51 1    
    56   49   52 2    
    57   51   54 1    
    58   52   55 1    
    59   54   57 1    
    60   57   58 1    
    61   58   59 1    
    62   59   60 1    
    63   60   61 1    
    64   61   62 1    
    65   62   63 1    
@<TRIPOS>SUBSTRUCTURE
     1 MYA501      1 GROUP   
@<TRIPOS>SET

