#    Name: 6cbi_1_GLN_SER_MET_THR_GLU_PHE_TYR_DAB_CAVITY_N1_4
#    Modification time : Fri May 22 19:30:10 2020

@<TRIPOS>MOLECULE
6cbi_1_GLN_SER_MET_THR_GLU_PHE_TYR_DAB_CAVITY_N1_4
   58     0     5     0     0
SMALL
NO_CHARGES


@<TRIPOS>ATOM
      1 N          20.4600    8.0900  166.5800 N.am      1 ALA2        0.0000 
      2 N          18.6000   10.0000  171.2900 N.am      1 ALA2        0.0000 
      3 N          22.3700   14.1600  168.7000 N.am      1 ALA2        0.0000 
      4 N          21.2400   14.1700  169.6800 N.am      1 ALA2        0.0000 
      5 N          20.6400   15.3500  168.9700 N.am      1 ALA2        0.0000 
      6 N          20.1000   14.1900  170.6600 N.am      1 ALA2        0.0000 
      7 N          19.5600   13.0300  172.3500 N.am      1 ALA2        0.0000 
      8 N          18.9600   14.2100  171.6400 N.am      1 ALA2        0.0000 
      9 N          23.7500   13.9100  170.3000 N.am      1 ALA2        0.0000 
     10 N          22.0200   15.1000  170.5600 N.am      1 ALA2        0.0000 
     11 N          25.1200   13.6500  171.9000 N.am      1 ALA2        0.0000 
     12 OD1        17.6500   12.1200  172.4400 O.co2     2 ASP3        0.0000 
     13 OD1        20.9300   12.7800  173.9500 O.co2     2 ASP3        0.0000 
     14 OD1        20.3400   13.9600  173.2300 O.co2     2 ASP3        0.0000 
     15 OD1        19.8000   12.8000  174.9300 O.co2     2 ASP3        0.0000 
     16 CZ         23.2600   10.4100  174.3900 C.ar      3 PHE5        0.0000 
     17 CA         20.3300    8.8000  171.0200 C.3       4 GLY6        0.0000 
     18 CA         22.7900   10.8700  169.2400 C.3       4 GLY6        0.0000 
     19 CA         21.6500   10.8900  170.2200 C.3       4 GLY6        0.0000 
     20 CA         21.1100    9.7300  171.9100 C.3       4 GLY6        0.0000 
     21 CA         18.2400   10.9400  173.1500 C.3       4 GLY6        0.0000 
     22 CA         22.9700   12.9800  169.4100 C.3       4 GLY6        0.0000 
     23 CA         22.4300   11.8200  171.1000 C.3       4 GLY6        0.0000 
     24 CA         22.4800    9.4800  173.5100 C.3       4 GLY6        0.0000 
     25 CA         21.8900   10.6600  172.7900 C.3       4 GLY6        0.0000 
     26 CA         21.2900   11.8300  172.0800 C.3       4 GLY6        0.0000 
     27 CA         19.0200   11.8700  174.0400 C.3       4 GLY6        0.0000 
     28 CA         24.3400   12.7300  171.0100 C.3       4 GLY6        0.0000 
     29 CA         23.2100   12.7400  171.9900 C.3       4 GLY6        0.0000 
     30 CA         22.6100   13.9200  171.2800 C.3       4 GLY6        0.0000 
     31 CA         22.6600   11.5800  173.6800 C.3       4 GLY6        0.0000 
     32 CA         21.4700   13.9400  172.2600 C.3       4 GLY6        0.0000 
     33 CA         20.8800   15.1200  171.5400 C.3       4 GLY6        0.0000 
     34 CA         24.5800   12.4900  173.5900 C.3       4 GLY6        0.0000 
     35 CA         23.9800   13.6700  172.8800 C.3       4 GLY6        0.0000 
     36 CA         23.3900   14.8500  172.1600 C.3       4 GLY6        0.0000 
     37 CA         23.4400   12.5100  174.5700 C.3       4 GLY6        0.0000 
     38 CA         22.8500   13.6900  173.8500 C.3       4 GLY6        0.0000 
     39 CA         22.3000   12.5300  175.5400 C.3       4 GLY6        0.0000 
     40 DU         19.3200    8.1000  167.5600 H         5 CUB7        0.0000 
     41 DU         20.1000    9.0300  168.4500 H         5 CUB7        0.0000 
     42 DU         18.9600    9.0500  169.4200 H         5 CUB7        0.0000 
     43 DU         18.3600   10.2300  168.7100 H         5 CUB7        0.0000 
     44 DU         19.7400    9.9800  170.3100 H         5 CUB7        0.0000 
     45 DU         19.1400   11.1600  169.6000 H         5 CUB7        0.0000 
     46 DU         21.0600   12.0700  169.5100 H         5 CUB7        0.0000 
     47 DU         20.5100   10.9100  171.2000 H         5 CUB7        0.0000 
     48 DU         19.9200   12.0800  170.4800 H         5 CUB7        0.0000 
     49 DU         19.9700    9.7500  172.8900 H         5 CUB7        0.0000 
     50 DU         19.3800   10.9200  172.1700 H         5 CUB7        0.0000 
     51 DU         18.7800   12.1000  171.4600 H         5 CUB7        0.0000 
     52 DU         21.8300   12.9900  170.3900 H         5 CUB7        0.0000 
     53 DU         20.7000   13.0100  171.3700 H         5 CUB7        0.0000 
     54 DU         20.7500   10.6700  173.7700 H         5 CUB7        0.0000 
     55 DU         20.1500   11.8500  173.0600 H         5 CUB7        0.0000 
     56 DU         18.4200   13.0500  173.3300 H         5 CUB7        0.0000 
     57 DU         22.0700   12.7600  172.9700 H         5 CUB7        0.0000 
     58 DU         21.5300   11.6000  174.6600 H         5 CUB7        0.0000 
@<TRIPOS>BOND
@<TRIPOS>SUBSTRUCTURE
     1 ALA2        1 GROUP   
     2 ASP3       12 GROUP   
     3 PHE5       16 GROUP   
     4 GLY6       17 GROUP   
     5 CUB7       40 GROUP   
@<TRIPOS>SET

