#    Name: 6cbi_1_GLN_SER_MET_THR_GLU_PHE_TYR_DAB
#    Modification time : Fri May 22 19:30:08 2020

@<TRIPOS>MOLECULE
6cbi_1_GLN_SER_MET_THR_GLU_PHE_TYR_DAB
   61    62     8     0     0
SMALL
NO_CHARGES


@<TRIPOS>ATOM
      1 N          18.7080   14.6290  170.9770 N.4       1 GLN144      0.0000 
      2 CA         20.0310   14.1640  170.6110 C.3       1 GLN144      0.0000 
      3 C          20.0200   13.6820  169.1740 C.2       1 GLN144      0.0000 
      4 O          19.2280   12.8130  168.8090 O.2       1 GLN144      0.0000 
      5 CB         20.4690   13.0440  171.5570 C.3       1 GLN144      0.0000 
      6 CG         21.7320   12.3270  171.1340 C.3       1 GLN144      0.0000 
      7 CD         22.9780   13.1380  171.4040 C.2       1 GLN144      0.0000 
      8 OE1        23.2140   13.5800  172.5290 O.2       1 GLN144      0.0000 
      9 NE2        23.7860   13.3410  170.3700 N.am      1 GLN144      0.0000 
     10 N          21.7370   11.5370  166.1560 N.am      2 SER146      0.0000 
     11 CA         22.5610   10.3360  166.1190 C.3       2 SER146      0.0000 
     12 C          23.8560   10.5910  165.3580 C.2       2 SER146      0.0000 
     13 O          24.0070   11.6220  164.7030 O.2       2 SER146      0.0000 
     14 CB         21.7920    9.1830  165.4750 C.3       2 SER146      0.0000 
     15 OG         21.3950    9.5150  164.1550 O.3       2 SER146      0.0000 
     16 N          24.7980    9.6530  165.4570 N.am      3 MET147      0.0000 
     17 CA         25.9550    9.6730  164.5720 C.3       3 MET147      0.0000 
     18 C          25.6280    9.1540  163.1800 C.2       3 MET147      0.0000 
     19 O          26.3290    9.5020  162.2230 O.2       3 MET147      0.0000 
     20 CB         27.0930    8.8330  165.1480 C.3       3 MET147      0.0000 
     21 CG         27.9220    9.5030  166.2040 C.3       3 MET147      0.0000 
     22 SD         28.9630   10.7780  165.4880 S.3       3 MET147      0.0000 
     23 CE         29.6250    9.8890  164.0840 C.3       3 MET147      0.0000 
     24 N          24.5920    8.3230  163.0500 N.am      4 THR148      0.0000 
     25 CA         24.2430    7.7280  161.7660 C.3       4 THR148      0.0000 
     26 C          23.7580    8.7530  160.7530 C.2       4 THR148      0.0000 
     27 O          23.6910    8.4360  159.5600 O.2       4 THR148      0.0000 
     28 CB         23.1740    6.6550  161.9620 C.3       4 THR148      0.0000 
     29 OG1        22.2040    7.1100  162.9160 O.3       4 THR148      0.0000 
     30 CG2        23.8110    5.3790  162.4550 C.3       4 THR148      0.0000 
     31 N          23.4250    9.9590  161.2060 N.am      5 GLU149      0.0000 
     32 CA         22.9410   11.0490  160.3720 C.3       5 GLU149      0.0000 
     33 C          24.0710   11.8860  159.7900 C.2       5 GLU149      0.0000 
     34 O          23.8110   12.8430  159.0500 O.2       5 GLU149      0.0000 
     35 CB         22.0100   11.9480  161.1900 C.3       5 GLU149      0.0000 
     36 CG         22.6720   13.2280  161.6660 C.3       5 GLU149      0.0000 
     37 CD         21.9340   13.8920  162.7840 C.2       5 GLU149      0.0000 
     38 OE1        20.7240   14.1720  162.6240 O.co2     5 GLU149      0.0000 
     39 N          25.3110   11.5550  160.1070 N.am      6 PHE150      0.0000 
     40 CA         26.4590   12.2790  159.5900 C.3       6 PHE150      0.0000 
     41 C          27.2780   11.4470  158.6310 C.2       6 PHE150      0.0000 
     42 O          27.7600   11.9590  157.6170 O.2       6 PHE150      0.0000 
     43 CB         27.3300   12.7490  160.7530 C.3       6 PHE150      0.0000 
     44 CG         26.6480   13.7530  161.6170 C.ar      6 PHE150      0.0000 
     45 CD1        26.4740   15.0450  161.1610 C.ar      6 PHE150      0.0000 
     46 CD2        26.1440   13.4070  162.8600 C.ar      6 PHE150      0.0000 
     47 CE1        25.8340   15.9850  161.9300 C.ar      6 PHE150      0.0000 
     48 CE2        25.5000   14.3460  163.6400 C.ar      6 PHE150      0.0000 
     49 CZ         25.3450   15.6380  163.1730 C.ar      6 PHE150      0.0000 
     50 N          27.3840   10.1630  158.9200 N.am      7 TYR151      0.0000 
     51 CA         28.1330    9.2500  158.1060 C.3       7 TYR151      0.0000 
     52 C          27.7380    7.8310  158.4670 C.2       7 TYR151      0.0000 
     53 O          27.7490    7.4670  159.6420 O.2       7 TYR151      0.0000 
     54 CB         29.6120    9.4700  158.3270 C.3       7 TYR151      0.0000 
     55 N          20.8790   14.2610  168.3500 N.am      8 DAB145      0.0000 
     56 CA         21.0470   13.7590  167.0070 C.3       8 DAB145      0.0000 
     57 C          21.9910   12.5140  167.0170 C.2       8 DAB145      0.0000 
     58 O          22.9340   12.4710  167.8550 O.2       8 DAB145      0.0000 
     59 CB         21.5970   14.8200  166.0740 C.3       8 DAB145      0.0000 
     60 CG         21.3500   14.3970  164.6460 C.3       8 DAB145      0.0000 
     61 ND         22.4120   13.6480  164.0200 N.4       8 DAB145      0.0000 
@<TRIPOS>BOND
     1    1    2 1    
     2    2    3 1    
     3    2    5 1    
     4    3    4 2    
     5    3   55 du   
     6    5    6 1    
     7    6    7 1    
     8    7    8 2    
     9    7    9 am   
    10   10   11 1    
    11   10   57 am   
    12   11   12 1    
    13   11   14 1    
    14   12   13 2    
    15   12   16 am   
    16   14   15 1    
    17   16   17 1    
    18   17   18 1    
    19   17   20 1    
    20   18   19 2    
    21   18   24 am   
    22   20   21 1    
    23   21   22 1    
    24   22   23 1    
    25   24   25 1    
    26   25   26 1    
    27   25   28 1    
    28   26   27 2    
    29   26   31 am   
    30   28   29 1    
    31   28   30 1    
    32   31   32 1    
    33   32   33 1    
    34   32   35 1    
    35   33   34 2    
    36   33   39 am   
    37   35   36 1    
    38   36   37 1    
    39   37   38 ar   
    40   37   61 du   
    41   39   40 1    
    42   40   41 1    
    43   40   43 1    
    44   41   42 2    
    45   41   50 am   
    46   43   44 1    
    47   44   45 ar   
    48   44   46 ar   
    49   45   47 ar   
    50   46   48 ar   
    51   47   49 ar   
    52   48   49 ar   
    53   50   51 1    
    54   51   52 1    
    55   51   54 1    
    56   52   53 2    
    57   55   56 1    
    58   56   57 1    
    59   56   59 1    
    60   57   58 2    
    61   59   60 1    
    62   60   61 1    
@<TRIPOS>SUBSTRUCTURE
     1 GLN144      1 RESIDUE 
     2 SER146     10 RESIDUE 
     3 MET147     16 RESIDUE 
     4 THR148     24 RESIDUE 
     5 GLU149     31 RESIDUE 
     6 PHE150     39 RESIDUE 
     7 TYR151     50 RESIDUE 
     8 DAB145     55 RESIDUE 
@<TRIPOS>SET

