#    Name: 6jze_1_I3C_CAVITY_N1_6
#    Modification time : Fri May 22 19:36:03 2020

@<TRIPOS>MOLECULE
6jze_1_I3C_CAVITY_N1_6
   68     0     6     0     0
SMALL
NO_CHARGES


@<TRIPOS>ATOM
      1 OG        -12.3300  -33.4800   16.9000 O.3       1 SER1        0.0000 
      2 OG        -13.0800  -32.3900   18.5600 O.3       1 SER1        0.0000 
      3 OG        -13.8500  -29.2900   17.5300 O.3       1 SER1        0.0000 
      4 OG        -13.2200  -30.2800   18.4700 O.3       1 SER1        0.0000 
      5 OG        -13.8400  -31.3000   20.2200 O.3       1 SER1        0.0000 
      6 OG        -11.9400  -32.2400   20.3400 O.3       1 SER1        0.0000 
      7 OG        -13.2000  -32.2900   21.1500 O.3       1 SER1        0.0000 
      8 N          -9.3200  -30.2500   13.4300 N.am      2 ALA2        0.0000 
      9 N         -10.5600  -32.3100   16.9300 N.am      2 ALA2        0.0000 
     10 N          -8.8300  -27.1100   11.5900 N.am      2 ALA2        0.0000 
     11 N         -10.0900  -27.1500   12.4000 N.am      2 ALA2        0.0000 
     12 N          -8.1900  -28.0900   12.5300 N.am      2 ALA2        0.0000 
     13 N          -8.8200  -29.1200   14.2800 N.am      2 ALA2        0.0000 
     14 N         -10.0800  -29.1600   15.0900 N.am      2 ALA2        0.0000 
     15 N          -9.4400  -30.1500   16.0300 N.am      2 ALA2        0.0000 
     16 N         -10.6800  -32.2000   19.5200 N.am      2 ALA2        0.0000 
     17 N         -11.3000  -33.2300   21.2700 N.am      2 ALA2        0.0000 
     18 N         -10.2300  -25.0400   12.3100 N.am      2 ALA2        0.0000 
     19 N          -7.0500  -27.9400   14.3100 N.am      2 ALA2        0.0000 
     20 OD1       -12.3500  -31.4700   14.2200 O.co2     3 ASP3        0.0000 
     21 OD1       -11.7100  -32.4500   15.1500 O.co2     3 ASP3        0.0000 
     22 OD1       -13.5900  -33.5300   17.7100 O.co2     3 ASP3        0.0000 
     23 OD1       -13.7400  -29.4000   14.9400 O.co2     3 ASP3        0.0000 
     24 OD1       -11.8400  -30.3400   15.0600 O.co2     3 ASP3        0.0000 
     25 OD1       -13.1000  -30.3800   15.8700 O.co2     3 ASP3        0.0000 
     26 OD1       -14.3600  -30.4300   16.6900 O.co2     3 ASP3        0.0000 
     27 OD1       -12.4600  -31.3700   16.8100 O.co2     3 ASP3        0.0000 
     28 OD1       -13.7200  -31.4100   17.6200 O.co2     3 ASP3        0.0000 
     29 OD1       -14.9800  -31.4500   18.4400 O.co2     3 ASP3        0.0000 
     30 OD1       -14.3400  -32.4400   19.3700 O.co2     3 ASP3        0.0000 
     31 OD1       -13.7000  -33.4200   20.3100 O.co2     3 ASP3        0.0000 
     32 OD1       -15.1000  -31.3500   21.0300 O.co2     3 ASP3        0.0000 
     33 CZ        -11.4900  -25.0800   13.1300 C.ar      4 PHE5        0.0000 
     34 CZ        -10.9800  -23.9500   13.9700 C.ar      4 PHE5        0.0000 
     35 CA        -11.0700  -33.4400   16.0900 C.3       5 GLY6        0.0000 
     36 CA         -9.3400  -28.2400   10.7500 C.3       5 GLY6        0.0000 
     37 CA        -10.6000  -28.2900   11.5600 C.3       5 GLY6        0.0000 
     38 CA        -14.3800  -28.4200   14.0000 C.3       5 GLY6        0.0000 
     39 CA         -8.7000  -29.2300   11.6800 C.3       5 GLY6        0.0000 
     40 CA         -9.9600  -29.2700   12.5000 C.3       5 GLY6        0.0000 
     41 CA        -11.2200  -29.3100   13.3100 C.3       5 GLY6        0.0000 
     42 CA        -12.4800  -29.3600   14.1200 C.3       5 GLY6        0.0000 
     43 CA        -10.5800  -30.3000   14.2500 C.3       5 GLY6        0.0000 
     44 CA         -9.9400  -31.2800   15.1800 C.3       5 GLY6        0.0000 
     45 CA        -11.2000  -31.3200   16.0000 C.3       5 GLY6        0.0000 
     46 CA        -11.8200  -32.3500   17.7400 C.3       5 GLY6        0.0000 
     47 CA        -11.1800  -33.3300   18.6800 C.3       5 GLY6        0.0000 
     48 CA        -12.4400  -33.3800   19.4900 C.3       5 GLY6        0.0000 
     49 CA        -11.8000  -34.3600   20.4300 C.3       5 GLY6        0.0000 
     50 CA        -13.0600  -34.4000   21.2400 C.3       5 GLY6        0.0000 
     51 CA         -6.9400  -28.0500   11.7100 C.3       5 GLY6        0.0000 
     52 CA        -11.3300  -29.2100   15.9000 C.3       5 GLY6        0.0000 
     53 CA        -12.5900  -29.2500   16.7200 C.3       5 GLY6        0.0000 
     54 CA        -10.7000  -30.1900   16.8400 C.3       5 GLY6        0.0000 
     55 CA        -11.9600  -30.2300   17.6500 C.3       5 GLY6        0.0000 
     56 CA        -11.3200  -31.2200   18.5900 C.3       5 GLY6        0.0000 
     57 CA        -12.5600  -33.2700   22.0900 C.3       5 GLY6        0.0000 
     58 CA        -12.1200  -24.1000   12.1900 C.3       5 GLY6        0.0000 
     59 CA        -10.8300  -28.0800   16.7500 C.3       5 GLY6        0.0000 
     60 CA        -12.0900  -28.1200   17.5600 C.3       5 GLY6        0.0000 
     61 DU        -12.6100  -27.2400   14.0300 H         6 CUB7        0.0000 
     62 DU         -9.4500  -28.1400   13.3400 H         6 CUB7        0.0000 
     63 DU        -10.7100  -28.1800   14.1500 H         6 CUB7        0.0000 
     64 DU        -11.9700  -28.2200   14.9700 H         6 CUB7        0.0000 
     65 DU        -13.2300  -28.2700   15.7800 H         6 CUB7        0.0000 
     66 DU         -9.5900  -26.0200   13.2500 H         6 CUB7        0.0000 
     67 DU        -10.8500  -26.0700   14.0600 H         6 CUB7        0.0000 
     68 DU         -7.6900  -26.9600   13.3700 H         6 CUB7        0.0000 
@<TRIPOS>BOND
@<TRIPOS>SUBSTRUCTURE
     1 SER1        1 GROUP   
     2 ALA2        8 GROUP   
     3 ASP3       20 GROUP   
     4 PHE5       33 GROUP   
     5 GLY6       35 GROUP   
     6 CUB7       61 GROUP   
@<TRIPOS>SET

