#    Name: 6jze_1_I3C
#    Modification time : Fri May 22 19:36:03 2020

@<TRIPOS>MOLECULE
6jze_1_I3C
   16    15     1     0     0
SMALL
NO_CHARGES


@<TRIPOS>ATOM
      1 I3        -12.4540  -33.3030   20.8530 Du        1 I3C401      0.0000 
      2 I2        -10.3340  -30.9610   15.4120 I         1 I3C401      0.0000 
      3 I1        -15.8750  -29.5960   17.4330 I         1 I3C401      0.0000 
      4 O8        -15.9490  -32.3130   19.6780 O.co2     1 I3C401      0.0000 
      5 O9        -15.2360  -30.4750   20.6090 O.co2     1 I3C401      0.0000 
      6 C10       -13.1230  -29.6980   15.4950 C.2       1 I3C401      0.0000 
      7 N13       -10.4210  -32.6930   18.3070 N.pl3     1 I3C401      0.0000 
      8 C1        -13.8790  -31.3870   18.8230 C.ar      1 I3C401      0.0000 
      9 C6        -12.6840  -32.1050   19.0710 C.ar      1 I3C401      0.0000 
     10 C5        -11.6640  -31.9910   18.1010 C.ar      1 I3C401      0.0000 
     11 C4        -11.8130  -31.2120   16.9370 C.ar      1 I3C401      0.0000 
     12 C3        -13.0040  -30.5340   16.7520 C.ar      1 I3C401      0.0000 
     13 C2        -14.0330  -30.6140   17.6760 C.ar      1 I3C401      0.0000 
     14 C7        -15.0820  -31.4010   19.7690 C.2       1 I3C401      0.0000 
     15 O11       -12.9720  -28.4550   15.5760 O.co2     1 I3C401      0.0000 
     16 O12       -13.3570  -30.2580   14.3960 O.co2     1 I3C401      0.0000 
@<TRIPOS>BOND
     1    2   11 1    
     2    3   13 1    
     3    4   14 ar   
     4    5   14 ar   
     5    6   12 1    
     6    6   15 ar   
     7    6   16 ar   
     8    7   10 1    
     9    8    9 ar   
    10    8   13 ar   
    11    8   14 1    
    12    9   10 ar   
    13   10   11 ar   
    14   11   12 ar   
    15   12   13 ar   
@<TRIPOS>SUBSTRUCTURE
     1 I3C401      1 GROUP   
@<TRIPOS>SET

