#    Name: 5zer_2_HBI
#    Modification time : Fri May 22 19:29:13 2020

@<TRIPOS>MOLECULE
5zer_2_HBI
   17    18     1     0     0
SMALL
NO_CHARGES


@<TRIPOS>ATOM
      1 N1         21.1250   27.8620   -1.7700 N.2       1 HBI401      0.0000 
      2 N2         21.7450   25.9110   -0.6600 N.pl3     1 HBI401      0.0000 
      3 C2         20.9610   26.5200   -1.5900 C.2       1 HBI401      0.0000 
      4 N3         20.0560   25.8120   -2.3270 N.am      1 HBI401      0.0000 
      5 C4         19.2630   26.3940   -3.2590 C.2       1 HBI401      0.0000 
      6 O4         18.4740   25.6780   -3.9040 O.2       1 HBI401      0.0000 
      7 C4A        19.3850   27.8800   -3.5150 C.2       1 HBI401      0.0000 
      8 C8A        20.4120   28.5850   -2.6800 C.2       1 HBI401      0.0000 
      9 N8         20.5990   29.9100   -2.7950 N.pl3     1 HBI401      0.0000 
     10 C7         19.8340   30.7210   -3.7410 C.3       1 HBI401      0.0000 
     11 C6         18.8240   29.9330   -4.5740 C.2       1 HBI401      0.0000 
     12 N5         18.6550   28.5820   -4.4240 N.2       1 HBI401      0.0000 
     13 C9         17.9950   30.7010   -5.5560 C.3       1 HBI401      0.0000 
     14 O9         18.2500   32.1120   -5.4650 O.3       1 HBI401      0.0000 
     15 C10        18.2460   30.2440   -6.9800 C.3       1 HBI401      0.0000 
     16 O10        17.9730   28.8340   -7.0630 O.3       1 HBI401      0.0000 
     17 C11        17.3610   31.0000   -7.9670 C.3       1 HBI401      0.0000 
@<TRIPOS>BOND
     1    1    3 2    
     2    1    8 1    
     3    2    3 1    
     4    3    4 1    
     5    4    5 am   
     6    5    6 2    
     7    5    7 1    
     8    7    8 2    
     9    7   12 1    
    10    8    9 1    
    11    9   10 1    
    12   10   11 1    
    13   11   12 2    
    14   11   13 1    
    15   13   14 1    
    16   13   15 1    
    17   15   16 1    
    18   15   17 1    
@<TRIPOS>SUBSTRUCTURE
     1 HBI401      1 GROUP   
@<TRIPOS>SET

