#    Name: 5zer_1_HBI_CAVITY_N1_4
#    Modification time : Fri May 22 19:29:10 2020

@<TRIPOS>MOLECULE
5zer_1_HBI_CAVITY_N1_4
   59     0     4     0     0
SMALL
NO_CHARGES


@<TRIPOS>ATOM
      1 OG         32.2000    4.6700   17.9100 O.3       1 SER1        0.0000 
      2 OG         33.4400    6.6000   15.4700 O.3       1 SER1        0.0000 
      3 OG         32.6900    5.6500   18.9400 O.3       1 SER1        0.0000 
      4 OG         32.6000    6.7500   17.9200 O.3       1 SER1        0.0000 
      5 OG         32.9000    9.9400   16.9200 O.3       1 SER1        0.0000 
      6 OG         34.3200    9.6700   16.5000 O.3       1 SER1        0.0000 
      7 OG         35.7400    9.4100   16.0900 O.3       1 SER1        0.0000 
      8 OG         32.8100   11.0400   15.9000 O.3       1 SER1        0.0000 
      9 N          30.4300    9.3400   14.2700 N.am      2 ALA2        0.0000 
     10 N          30.3400   10.4400   13.2500 N.am      2 ALA2        0.0000 
     11 O          34.1900    4.2800   19.5400 O.2       2 ALA2        0.0000 
     12 O          34.1000    5.3900   18.5200 O.2       2 ALA2        0.0000 
     13 N          35.4300    6.2200   17.0900 N.am      2 ALA2        0.0000 
     14 O          30.8200   11.4200   14.2800 O.2       2 ALA2        0.0000 
     15 O          32.2400   11.1600   13.8600 O.2       2 ALA2        0.0000 
     16 O          34.7700    4.1700   21.5800 O.2       2 ALA2        0.0000 
     17 N          31.8400    5.8000   21.3900 N.am      2 ALA2        0.0000 
     18 O          34.6800    5.2700   20.5600 O.2       2 ALA2        0.0000 
     19 O          36.0900    5.0000   20.1500 O.2       2 ALA2        0.0000 
     20 O          34.4100    8.5700   17.5200 O.2       2 ALA2        0.0000 
     21 N          37.2400    8.0400   16.6900 N.am      2 ALA2        0.0000 
     22 O          34.9800    8.4500   19.5600 O.2       2 ALA2        0.0000 
     23 O          36.4000    8.1900   19.1400 O.2       2 ALA2        0.0000 
     24 O          36.3100    9.2900   18.1300 O.2       2 ALA2        0.0000 
     25 CA         33.6200    4.4000   17.5000 C.3       3 GLY6        0.0000 
     26 CA         33.5300    5.5000   16.4800 C.3       3 GLY6        0.0000 
     27 CA         31.9300    7.9700   14.8700 C.3       3 GLY6        0.0000 
     28 CA         33.3500    7.7100   14.4500 C.3       3 GLY6        0.0000 
     29 CA         31.8400    9.0700   13.8500 C.3       3 GLY6        0.0000 
     30 CA         31.7500   10.1700   12.8400 C.3       3 GLY6        0.0000 
     31 CA         32.7800    4.5500   19.9500 C.3       3 GLY6        0.0000 
     32 CA         35.5200    5.1200   18.1100 C.3       3 GLY6        0.0000 
     33 CA         32.5100    7.8500   16.9100 C.3       3 GLY6        0.0000 
     34 CA         35.3400    7.3200   16.0800 C.3       3 GLY6        0.0000 
     35 CA         32.4200    8.9600   15.8900 C.3       3 GLY6        0.0000 
     36 CA         33.8300    8.6900   15.4800 C.3       3 GLY6        0.0000 
     37 CA         30.9100   10.3200   15.2900 C.3       3 GLY6        0.0000 
     38 CA         32.3300   10.0600   14.8800 C.3       3 GLY6        0.0000 
     39 CA         33.2600    5.5300   20.9800 C.3       3 GLY6        0.0000 
     40 CA         33.1700    6.6300   19.9600 C.3       3 GLY6        0.0000 
     41 CA         36.0000    6.1000   19.1300 C.3       3 GLY6        0.0000 
     42 CA         33.0800    7.7400   18.9500 C.3       3 GLY6        0.0000 
     43 CA         35.9200    7.2000   18.1200 C.3       3 GLY6        0.0000 
     44 CA         37.3300    6.9400   17.7000 C.3       3 GLY6        0.0000 
     45 CA         32.9900    8.8400   17.9300 C.3       3 GLY6        0.0000 
     46 CA         32.3300    6.7800   22.4100 C.3       3 GLY6        0.0000 
     47 CA         36.5800    5.9800   21.1700 C.3       3 GLY6        0.0000 
     48 CA         33.6600    7.6200   20.9800 C.3       3 GLY6        0.0000 
     49 CA         36.4900    7.0900   20.1600 C.3       3 GLY6        0.0000 
     50 CA         33.5700    8.7200   19.9700 C.3       3 GLY6        0.0000 
     51 DU         34.0100    6.4900   17.5100 H         4 CUB7        0.0000 
     52 DU         33.9200    7.5900   16.4900 H         4 CUB7        0.0000 
     53 DU         33.3500    4.4300   21.9900 H         4 CUB7        0.0000 
     54 DU         34.5900    6.3700   19.5500 H         4 CUB7        0.0000 
     55 DU         34.5000    7.4700   18.5300 H         4 CUB7        0.0000 
     56 DU         35.8300    8.3000   17.1000 H         4 CUB7        0.0000 
     57 DU         33.7500    6.5200   22.0000 H         4 CUB7        0.0000 
     58 DU         35.1600    6.2500   21.5800 H         4 CUB7        0.0000 
     59 DU         35.0700    7.3500   20.5700 H         4 CUB7        0.0000 
@<TRIPOS>BOND
@<TRIPOS>SUBSTRUCTURE
     1 SER1        1 GROUP   
     2 ALA2        9 GROUP   
     3 GLY6       25 GROUP   
     4 CUB7       51 GROUP   
@<TRIPOS>SET

