#    Name: 5zer_1_HBI
#    Modification time : Fri May 22 19:29:08 2020

@<TRIPOS>MOLECULE
5zer_1_HBI
   17    18     1     0     0
SMALL
NO_CHARGES


@<TRIPOS>ATOM
      1 N1         31.8860   10.6100   14.7260 N.2       1 HBI401      0.0000 
      2 N2         30.6260   11.5250   12.9980 N.pl3     1 HBI401      0.0000 
      3 C2         31.1010   10.4180   13.6310 C.2       1 HBI401      0.0000 
      4 N3         30.7960    9.1840   13.1760 N.am      1 HBI401      0.0000 
      5 C4         31.2190    8.0710   13.7780 C.2       1 HBI401      0.0000 
      6 O4         30.9070    6.9220   13.3460 O.2       1 HBI401      0.0000 
      7 C4A        32.0810    8.2160   14.9630 C.2       1 HBI401      0.0000 
      8 C8A        32.4020    9.5750   15.4170 C.2       1 HBI401      0.0000 
      9 N8         33.2050    9.7500   16.4780 N.pl3     1 HBI401      0.0000 
     10 C7         33.7720    8.6250   17.2260 C.3       1 HBI401      0.0000 
     11 C6         33.3570    7.2610   16.6910 C.2       1 HBI401      0.0000 
     12 N5         32.5710    7.1510   15.6050 N.2       1 HBI401      0.0000 
     13 C9         33.8550    5.9840   17.2860 C.3       1 HBI401      0.0000 
     14 O9         35.2520    6.0980   17.5460 O.3       1 HBI401      0.0000 
     15 C10        33.2400    5.5870   18.5970 C.3       1 HBI401      0.0000 
     16 O10        31.8720    5.9710   18.6050 O.3       1 HBI401      0.0000 
     17 C11        33.3740    4.0890   18.7720 C.3       1 HBI401      0.0000 
@<TRIPOS>BOND
     1    1    3 2    
     2    1    8 1    
     3    2    3 1    
     4    3    4 1    
     5    4    5 am   
     6    5    6 2    
     7    5    7 1    
     8    7    8 2    
     9    7   12 1    
    10    8    9 1    
    11    9   10 1    
    12   10   11 1    
    13   11   12 2    
    14   11   13 1    
    15   13   14 1    
    16   13   15 1    
    17   15   16 1    
    18   15   17 1    
@<TRIPOS>SUBSTRUCTURE
     1 HBI401      1 GROUP   
@<TRIPOS>SET

