#    Name: 6boo_1_COA
#    Modification time : Fri May 22 19:27:35 2020

@<TRIPOS>MOLECULE
6boo_1_COA
   48    50     1     0     1
SMALL
NO_CHARGES


@<TRIPOS>ATOM
      1 N1A       -57.6780    1.8640   31.4030 N.ar      1 COA502      0.0000 
      2 C2A       -57.6290    2.1650   30.0880 C.ar      1 COA502      0.0000 
      3 N3A       -58.3930    1.5670   29.1610 N.ar      1 COA502      0.0000 
      4 C4A       -59.2820    0.6180   29.5150 C.ar      1 COA502      0.0000 
      5 C5A       -59.4010    0.2370   30.9280 C.ar      1 COA502      0.0000 
      6 C6A       -58.5220    0.9340   31.8890 C.ar      1 COA502      0.0000 
      7 N6A       -58.5490    0.6640   33.2040 N.pl3     1 COA502      0.0000 
      8 N7A       -60.3510   -0.7010   30.9810 N.2       1 COA502      0.0000 
      9 C8A       -60.7870   -0.9210   29.7180 C.2       1 COA502      0.0000 
     10 N9A       -60.1520   -0.1230   28.8530 N.pl3     1 COA502      0.0000 
     11 C1B       -60.3540   -0.0820   27.3980 C.3       1 COA502      0.0000 
     12 C2B       -59.9710   -1.4090   26.7700 C.3       1 COA502      0.0000 
     13 O2B       -58.5830   -1.5080   26.5310 O.3       1 COA502      0.0000 
     14 C3B       -60.7600   -1.3740   25.4910 C.3       1 COA502      0.0000 
     15 O3B       -60.1200   -0.4900   24.5870 O.3       1 COA502      0.0000 
     16 P3B       -59.2610   -0.9380   23.3270 P.3       1 COA502      0.0000 
     17 O7A       -58.2780   -1.9230   23.9000 O.co2     1 COA502      0.0000 
     18 O8A       -60.2860   -1.5240   22.3960 O.co2     1 COA502      0.0000 
     19 O9A       -58.6330    0.3480   22.8880 O.co2     1 COA502      0.0000 
     20 C4B       -62.0600   -0.7120   25.9030 C.3       1 COA502      0.0000 
     21 O4B       -61.7240    0.0830   27.0530 O.3       1 COA502      0.0000 
     22 C5B       -63.1780   -1.7050   26.2080 C.3       1 COA502      0.0000 
     23 O5B       -62.6930   -2.7790   26.9950 O.3       1 COA502      0.0000 
     24 P1A       -63.5570   -3.4030   28.1800 P.3       1 COA502      0.0000 
     25 O1A       -64.5730   -4.3280   27.5830 O.co2     1 COA502      0.0000 
     26 O2A       -63.9620   -2.3240   29.1560 O.co2     1 COA502      0.0000 
     27 O3A       -62.4090   -4.2170   28.9330 O.3       1 COA502      0.0000 
     28 P2A       -62.1380   -5.7890   28.9160 P.3       1 COA502      0.0000 
     29 O4A       -63.4110   -6.5450   29.1720 O.co2     1 COA502      0.0000 
     30 O5A       -61.2340   -6.1430   27.7820 O.co2     1 COA502      0.0000 
     31 O6A       -61.3030   -5.8870   30.2520 O.3       1 COA502      0.0000 
     32 CBP       -59.9090   -4.8000   31.8540 C.3       1 COA502      0.0000 
     33 CCP       -60.0900   -5.1750   30.3890 C.3       1 COA502      0.0000 
     34 CDP       -60.5490   -3.4600   32.1320 C.3       1 COA502      0.0000 
     35 CEP       -60.5100   -5.8200   32.7980 C.3       1 COA502      0.0000 
     36 CAP       -58.4450   -4.7780   32.2220 C.3       1 COA502      0.0000 
     37 OAP       -57.8150   -5.8840   31.5560 O.3       1 COA502      0.0000 
     38 C9P       -57.8080   -3.4500   31.9170 C.2       1 COA502      0.0000 
     39 O9P       -57.0880   -3.3030   30.9160 O.2       1 COA502      0.0000 
     40 N8P       -57.8210   -2.6160   32.9430 N.am      1 COA502      0.0000 
     41 C7P       -56.5150   -2.2580   33.4870 C.3       1 COA502      0.0000 
     42 C6P       -55.6740   -3.4490   33.9820 C.3       1 COA502      0.0000 
     43 C5P       -56.1900   -3.9780   35.3040 C.2       1 COA502      0.0000 
     44 O5P       -56.7860   -3.2460   36.1320 O.2       1 COA502      0.0000 
     45 N4P       -56.2180   -5.2930   35.3990 N.am      1 COA502      0.0000 
     46 C3P       -57.5110   -5.8690   35.7710 C.3       1 COA502      0.0000 
     47 C2P       -57.5940   -6.4990   37.1390 C.3       1 COA502      0.0000 
     48 S1P       -59.3140   -7.0260   37.3370 S.3       1 COA502      0.0000 
@<TRIPOS>BOND
     1    1    2 ar   
     2    1    6 ar   
     3    2    3 ar   
     4    3    4 ar   
     5    4    5 ar   
     6    4   10 1    
     7    5    6 ar   
     8    5    8 1    
     9    6    7 1    
    10    8    9 2    
    11    9   10 1    
    12   10   11 1    
    13   11   12 1    
    14   11   21 1    
    15   12   13 1    
    16   12   14 1    
    17   14   15 1    
    18   14   20 1    
    19   15   16 1    
    20   16   17 ar   
    21   16   18 ar   
    22   16   19 ar   
    23   20   21 1    
    24   20   22 1    
    25   22   23 1    
    26   23   24 1    
    27   24   25 ar   
    28   24   26 ar   
    29   24   27 1    
    30   27   28 1    
    31   28   29 ar   
    32   28   30 ar   
    33   28   31 1    
    34   31   33 1    
    35   32   33 1    
    36   32   34 1    
    37   32   35 1    
    38   32   36 1    
    39   36   37 1    
    40   36   38 1    
    41   38   39 2    
    42   38   40 am   
    43   40   41 1    
    44   41   42 1    
    45   42   43 1    
    46   43   44 2    
    47   43   45 am   
    48   45   46 1    
    49   46   47 1    
    50   47   48 1    
@<TRIPOS>SUBSTRUCTURE
     1 COA502      1 GROUP   
@<TRIPOS>SET
ATOM$ORANGE STATIC     ATOMS   COLORGROUP SYSTEM 
42 2 2 4 4 5 5 6 6 9 9 11 11 12 12 14 14 20 \
20 22 22 32 32 33 33 34 34 35 35 36 36 38 38 41 41 42 \
42 43 43 46 46 47 47 

