#    Name: 6boo_2_COA
#    Modification time : Fri May 22 19:27:46 2020

@<TRIPOS>MOLECULE
6boo_2_COA
   48    50     1     0     1
SMALL
NO_CHARGES


@<TRIPOS>ATOM
      1 N1A       -11.2210  -17.1250   30.6620 N.ar      1 COA503      0.0000 
      2 C2A       -11.1520  -17.4020   31.9770 C.ar      1 COA503      0.0000 
      3 N3A       -11.9300  -16.8220   32.9030 N.ar      1 COA503      0.0000 
      4 C4A       -12.8640  -15.9170   32.5480 C.ar      1 COA503      0.0000 
      5 C5A       -13.0130  -15.5610   31.1280 C.ar      1 COA503      0.0000 
      6 C6A       -12.1050  -16.2370   30.1680 C.ar      1 COA503      0.0000 
      7 N6A       -12.1500  -15.9870   28.8440 N.pl3     1 COA503      0.0000 
      8 N7A       -14.0040  -14.6570   31.0740 N.2       1 COA503      0.0000 
      9 C8A       -14.4340  -14.4530   32.3440 C.2       1 COA503      0.0000 
     10 N9A       -13.7600  -15.2120   33.2120 N.pl3     1 COA503      0.0000 
     11 C1B       -13.9420  -15.2380   34.6660 C.3       1 COA503      0.0000 
     12 C2B       -13.4950  -13.9200   35.2810 C.3       1 COA503      0.0000 
     13 O2B       -12.0990  -13.8500   35.5290 O.3       1 COA503      0.0000 
     14 C3B       -14.2850  -13.9180   36.5560 C.3       1 COA503      0.0000 
     15 O3B       -13.6320  -14.8050   37.4400 O.3       1 COA503      0.0000 
     16 P3B       -12.7950  -14.3710   38.7210 P.3       1 COA503      0.0000 
     17 O7A       -11.8770  -13.3210   38.1490 O.co2     1 COA503      0.0000 
     18 O8A       -12.1360  -15.6770   39.0750 O.co2     1 COA503      0.0000 
     19 O9A       -13.7980  -13.8600   39.7090 O.co2     1 COA503      0.0000 
     20 C4B       -15.6050  -14.5580   36.1780 C.3       1 COA503      0.0000 
     21 O4B       -15.3150  -15.3430   35.0150 O.3       1 COA503      0.0000 
     22 C5B       -16.6960  -13.5270   35.9110 C.3       1 COA503      0.0000 
     23 O5B       -16.2160  -12.5200   35.0420 O.3       1 COA503      0.0000 
     24 P1A       -17.0780  -11.9160   33.8440 P.3       1 COA503      0.0000 
     25 O1A       -18.0960  -10.9840   34.4260 O.co2     1 COA503      0.0000 
     26 O2A       -17.5020  -13.0360   32.9250 O.co2     1 COA503      0.0000 
     27 O3A       -15.8770  -11.1460   33.1130 O.3       1 COA503      0.0000 
     28 P2A       -15.6080   -9.5740   33.0950 P.3       1 COA503      0.0000 
     29 O4A       -16.7270   -8.9310   32.3270 O.co2     1 COA503      0.0000 
     30 O5A       -15.2830   -9.0660   34.4740 O.co2     1 COA503      0.0000 
     31 O6A       -14.2950   -9.5330   32.2010 O.3       1 COA503      0.0000 
     32 CBP       -13.1980  -10.0710   30.1400 C.3       1 COA503      0.0000 
     33 CCP       -14.4660   -9.5760   30.7930 C.3       1 COA503      0.0000 
     34 CDP       -13.3360   -9.8000   28.6510 C.3       1 COA503      0.0000 
     35 CEP       -12.0360   -9.2690   30.7120 C.3       1 COA503      0.0000 
     36 CAP       -13.0550  -11.5710   30.4300 C.3       1 COA503      0.0000 
     37 OAP       -14.2810  -12.2440   30.1060 O.3       1 COA503      0.0000 
     38 C9P       -11.9880  -12.1920   29.5920 C.2       1 COA503      0.0000 
     39 O9P       -12.2700  -12.6540   28.5100 O.2       1 COA503      0.0000 
     40 N8P       -10.7410  -12.1420   29.9840 N.am      1 COA503      0.0000 
     41 C7P        -9.7030  -12.4320   29.0080 C.3       1 COA503      0.0000 
     42 C6P        -9.5210  -11.2590   28.0360 C.3       1 COA503      0.0000 
     43 C5P       -10.0030  -11.6060   26.6550 C.2       1 COA503      0.0000 
     44 O5P        -9.8710  -12.7300   26.2380 O.2       1 COA503      0.0000 
     45 N4P       -10.5260  -10.7020   25.8570 N.am      1 COA503      0.0000 
     46 C3P       -10.5010   -9.2860   26.0890 C.3       1 COA503      0.0000 
     47 C2P       -10.9370   -8.5610   24.8430 C.3       1 COA503      0.0000 
     48 S1P       -12.7270   -8.3320   24.8150 S.3       1 COA503      0.0000 
@<TRIPOS>BOND
     1    1    2 ar   
     2    1    6 ar   
     3    2    3 ar   
     4    3    4 ar   
     5    4    5 ar   
     6    4   10 1    
     7    5    6 ar   
     8    5    8 1    
     9    6    7 1    
    10    8    9 2    
    11    9   10 1    
    12   10   11 1    
    13   11   12 1    
    14   11   21 1    
    15   12   13 1    
    16   12   14 1    
    17   14   15 1    
    18   14   20 1    
    19   15   16 1    
    20   16   17 ar   
    21   16   18 ar   
    22   16   19 ar   
    23   20   21 1    
    24   20   22 1    
    25   22   23 1    
    26   23   24 1    
    27   24   25 ar   
    28   24   26 ar   
    29   24   27 1    
    30   27   28 1    
    31   28   29 ar   
    32   28   30 ar   
    33   28   31 1    
    34   31   33 1    
    35   32   33 1    
    36   32   34 1    
    37   32   35 1    
    38   32   36 1    
    39   36   37 1    
    40   36   38 1    
    41   38   39 2    
    42   38   40 am   
    43   40   41 1    
    44   41   42 1    
    45   42   43 1    
    46   43   44 2    
    47   43   45 am   
    48   45   46 1    
    49   46   47 1    
    50   47   48 1    
@<TRIPOS>SUBSTRUCTURE
     1 COA503      1 GROUP   
@<TRIPOS>SET
ATOM$ORANGE STATIC     ATOMS   COLORGROUP SYSTEM 
42 2 2 4 4 5 5 6 6 9 9 11 11 12 12 14 14 20 \
20 22 22 32 32 33 33 34 34 35 35 36 36 38 38 41 41 42 \
42 43 43 46 46 47 47 

