#    Name: 6uuw_4_ADP
#    Modification time : Fri May 22 19:28:49 2020

@<TRIPOS>MOLECULE
6uuw_4_ADP
   27    29     1     0     1
SMALL
NO_CHARGES


@<TRIPOS>ATOM
      1 PB        -38.6500  -41.9910  -57.8270 P.3       1 ADP1201     0.0000 
      2 O1B       -38.1900  -43.4120  -58.0150 O.co2     1 ADP1201     0.0000 
      3 O2B       -37.5470  -40.9660  -57.9350 O.co2     1 ADP1201     0.0000 
      4 O3B       -39.5990  -41.7600  -56.6750 O.co2     1 ADP1201     0.0000 
      5 PA        -39.7260  -40.3370  -59.8390 P.3       1 ADP1201     0.0000 
      6 O1A       -38.3700  -39.8770  -60.3160 O.co2     1 ADP1201     0.0000 
      7 O2A       -40.5470  -39.4540  -58.9370 O.co2     1 ADP1201     0.0000 
      8 O3A       -39.5540  -41.7730  -59.1370 O.3       1 ADP1201     0.0000 
      9 O5'       -40.6340  -40.7580  -61.0980 O.3       1 ADP1201     0.0000 
     10 C5'       -40.5330  -40.1180  -62.3670 C.3       1 ADP1201     0.0000 
     11 C4'       -41.9370  -40.0900  -62.9480 C.3       1 ADP1201     0.0000 
     12 O4'       -42.6990  -39.1440  -62.2020 O.3       1 ADP1201     0.0000 
     13 C3'       -41.9670  -39.6710  -64.4030 C.3       1 ADP1201     0.0000 
     14 O3'       -42.6400  -40.6840  -65.1510 O.3       1 ADP1201     0.0000 
     15 C2'       -42.7820  -38.3980  -64.4500 C.3       1 ADP1201     0.0000 
     16 O2'       -43.8540  -38.5200  -65.3900 O.3       1 ADP1201     0.0000 
     17 C1'       -43.3590  -38.2210  -63.0580 C.3       1 ADP1201     0.0000 
     18 N9        -43.1050  -36.8550  -62.5440 N.pl3     1 ADP1201     0.0000 
     19 C8        -42.6580  -36.5560  -61.3130 C.2       1 ADP1201     0.0000 
     20 N7        -42.5510  -35.2150  -61.1520 N.2       1 ADP1201     0.0000 
     21 C5        -42.9390  -34.6340  -62.2990 C.ar      1 ADP1201     0.0000 
     22 C6        -43.0740  -33.2460  -62.7960 C.ar      1 ADP1201     0.0000 
     23 N6        -42.7520  -32.1840  -62.0180 N.pl3     1 ADP1201     0.0000 
     24 N1        -43.5170  -33.0790  -64.0590 N.ar      1 ADP1201     0.0000 
     25 C2        -43.8370  -34.1270  -64.8390 C.ar      1 ADP1201     0.0000 
     26 N3        -43.7430  -35.4090  -64.4500 N.ar      1 ADP1201     0.0000 
     27 C4        -43.3110  -35.7210  -63.2110 C.ar      1 ADP1201     0.0000 
@<TRIPOS>BOND
     1    1    2 ar   
     2    1    3 ar   
     3    1    4 ar   
     4    1    8 1    
     5    5    6 ar   
     6    5    7 ar   
     7    5    8 1    
     8    5    9 1    
     9    9   10 1    
    10   10   11 1    
    11   11   12 1    
    12   11   13 1    
    13   12   17 1    
    14   13   14 1    
    15   13   15 1    
    16   15   16 1    
    17   15   17 1    
    18   17   18 1    
    19   18   19 1    
    20   18   27 1    
    21   19   20 2    
    22   20   21 1    
    23   21   22 ar   
    24   21   27 ar   
    25   22   23 1    
    26   22   24 ar   
    27   24   25 ar   
    28   25   26 ar   
    29   26   27 ar   
@<TRIPOS>SUBSTRUCTURE
     1 ADP1201     1 GROUP   
@<TRIPOS>SET
ATOM$ORANGE STATIC     ATOMS   COLORGROUP SYSTEM 
20 10 10 11 11 13 13 15 15 17 17 19 19 21 21 22 22 25 \
25 27 27 

