#    Name: 6uuw_3_ADP
#    Modification time : Fri May 22 19:28:42 2020

@<TRIPOS>MOLECULE
6uuw_3_ADP
   27    29     1     0     1
SMALL
NO_CHARGES


@<TRIPOS>ATOM
      1 PB         38.8400  -41.8900   57.8480 P.3       1 ADP1201     0.0000 
      2 O1B        39.6790  -41.5800   56.6300 O.co2     1 ADP1201     0.0000 
      3 O2B        37.6400  -40.9900   58.0180 O.co2     1 ADP1201     0.0000 
      4 O3B        38.5630  -43.3490   58.0920 O.co2     1 ADP1201     0.0000 
      5 PA         39.8220  -40.1310   59.8400 P.3       1 ADP1201     0.0000 
      6 O1A        40.5850  -39.1360   59.0020 O.co2     1 ADP1201     0.0000 
      7 O2A        38.4220  -39.8240   60.3160 O.co2     1 ADP1201     0.0000 
      8 O3A        39.8050  -41.5500   59.0870 O.3       1 ADP1201     0.0000 
      9 O5'        40.7350  -40.5460   61.0970 O.3       1 ADP1201     0.0000 
     10 C5'        40.5810  -39.9800   62.3960 C.3       1 ADP1201     0.0000 
     11 C4'        41.9610  -40.0210   63.0290 C.3       1 ADP1201     0.0000 
     12 O4'        42.7990  -39.1420   62.2860 O.3       1 ADP1201     0.0000 
     13 C3'        41.9670  -39.5690   64.4740 C.3       1 ADP1201     0.0000 
     14 O3'        42.6240  -40.5670   65.2550 O.3       1 ADP1201     0.0000 
     15 C2'        42.7850  -38.2980   64.5040 C.3       1 ADP1201     0.0000 
     16 O2'        43.8220  -38.3980   65.4840 O.3       1 ADP1201     0.0000 
     17 C1'        43.4100  -38.1720   63.1290 C.3       1 ADP1201     0.0000 
     18 N9         43.1550  -36.8330   62.5520 N.pl3     1 ADP1201     0.0000 
     19 C8         42.7330  -36.5940   61.3000 C.2       1 ADP1201     0.0000 
     20 N7         42.6170  -35.2630   61.0710 N.2       1 ADP1201     0.0000 
     21 C5         42.9720  -34.6250   62.1980 C.ar      1 ADP1201     0.0000 
     22 C6         43.0800  -33.2130   62.6360 C.ar      1 ADP1201     0.0000 
     23 N6         42.7660  -32.1910   61.8030 N.pl3     1 ADP1201     0.0000 
     24 N1         43.4940  -32.9870   63.9000 N.ar      1 ADP1201     0.0000 
     25 C2         43.8040  -33.9980   64.7310 C.ar      1 ADP1201     0.0000 
     26 N3         43.7330  -35.2950   64.4000 N.ar      1 ADP1201     0.0000 
     27 C4         43.3320  -35.6660   63.1680 C.ar      1 ADP1201     0.0000 
@<TRIPOS>BOND
     1    1    2 ar   
     2    1    3 ar   
     3    1    4 ar   
     4    1    8 1    
     5    5    6 ar   
     6    5    7 ar   
     7    5    8 1    
     8    5    9 1    
     9    9   10 1    
    10   10   11 1    
    11   11   12 1    
    12   11   13 1    
    13   12   17 1    
    14   13   14 1    
    15   13   15 1    
    16   15   16 1    
    17   15   17 1    
    18   17   18 1    
    19   18   19 1    
    20   18   27 1    
    21   19   20 2    
    22   20   21 1    
    23   21   22 ar   
    24   21   27 ar   
    25   22   23 1    
    26   22   24 ar   
    27   24   25 ar   
    28   25   26 ar   
    29   26   27 ar   
@<TRIPOS>SUBSTRUCTURE
     1 ADP1201     1 GROUP   
@<TRIPOS>SET
ATOM$ORANGE STATIC     ATOMS   COLORGROUP SYSTEM 
20 10 10 11 11 13 13 15 15 17 17 19 19 21 21 22 22 25 \
25 27 27 

