#    Name: 6uuw_2_ADP
#    Modification time : Fri May 22 19:28:35 2020

@<TRIPOS>MOLECULE
6uuw_2_ADP
   27    29     1     0     1
SMALL
NO_CHARGES


@<TRIPOS>ATOM
      1 PB        -38.6070   41.9830   57.7400 P.3       1 ADP1201     0.0000 
      2 O1B       -39.5430   41.7080   56.5870 O.co2     1 ADP1201     0.0000 
      3 O2B       -37.4850   40.9840   57.8820 O.co2     1 ADP1201     0.0000 
      4 O3B       -38.1680   43.4130   57.8950 O.co2     1 ADP1201     0.0000 
      5 PA        -39.7060   40.3460   59.7510 P.3       1 ADP1201     0.0000 
      6 O1A       -40.5420   39.4610   58.8600 O.co2     1 ADP1201     0.0000 
      7 O2A       -38.3530   39.8820   60.2320 O.co2     1 ADP1201     0.0000 
      8 O3A       -39.5200   41.7790   59.0460 O.3       1 ADP1201     0.0000 
      9 O5'       -40.6080   40.7760   61.0110 O.3       1 ADP1201     0.0000 
     10 C5'       -40.5210   40.1160   62.2710 C.3       1 ADP1201     0.0000 
     11 C4'       -41.9320   40.0480   62.8290 C.3       1 ADP1201     0.0000 
     12 O4'       -42.6680   39.1030   62.0550 O.3       1 ADP1201     0.0000 
     13 C3'       -41.9700   39.5980   64.2740 C.3       1 ADP1201     0.0000 
     14 O3'       -42.6300   40.6010   65.0480 O.3       1 ADP1201     0.0000 
     15 C2'       -42.7990   38.3340   64.2910 C.3       1 ADP1201     0.0000 
     16 O2'       -43.8860   38.4710   65.2090 O.3       1 ADP1201     0.0000 
     17 C1'       -43.3540   38.1770   62.8910 C.3       1 ADP1201     0.0000 
     18 N9        -43.1230   36.8090   62.3710 N.pl3     1 ADP1201     0.0000 
     19 C8        -42.7130   36.5190   61.1260 C.2       1 ADP1201     0.0000 
     20 N7        -42.6150   35.1800   60.9440 N.2       1 ADP1201     0.0000 
     21 C5        -42.9720   34.5880   62.0950 C.ar      1 ADP1201     0.0000 
     22 C6        -43.0940   33.1930   62.5790 C.ar      1 ADP1201     0.0000 
     23 N6        -42.7970   32.1420   61.7780 N.pl3     1 ADP1201     0.0000 
     24 N1        -43.5020   33.0130   63.8530 N.ar      1 ADP1201     0.0000 
     25 C2        -43.7980   34.0530   64.6530 C.ar      1 ADP1201     0.0000 
     26 N3        -43.7120   35.3390   64.2790 N.ar      1 ADP1201     0.0000 
     27 C4        -43.3140   35.6670   63.0310 C.ar      1 ADP1201     0.0000 
@<TRIPOS>BOND
     1    1    2 ar   
     2    1    3 ar   
     3    1    4 ar   
     4    1    8 1    
     5    5    6 ar   
     6    5    7 ar   
     7    5    8 1    
     8    5    9 1    
     9    9   10 1    
    10   10   11 1    
    11   11   12 1    
    12   11   13 1    
    13   12   17 1    
    14   13   14 1    
    15   13   15 1    
    16   15   16 1    
    17   15   17 1    
    18   17   18 1    
    19   18   19 1    
    20   18   27 1    
    21   19   20 2    
    22   20   21 1    
    23   21   22 ar   
    24   21   27 ar   
    25   22   23 1    
    26   22   24 ar   
    27   24   25 ar   
    28   25   26 ar   
    29   26   27 ar   
@<TRIPOS>SUBSTRUCTURE
     1 ADP1201     1 GROUP   
@<TRIPOS>SET
ATOM$ORANGE STATIC     ATOMS   COLORGROUP SYSTEM 
20 10 10 11 11 13 13 15 15 17 17 19 19 21 21 22 22 25 \
25 27 27 

