#    Name: 6uuw_1_ADP
#    Modification time : Fri May 22 19:28:28 2020

@<TRIPOS>MOLECULE
6uuw_1_ADP
   27    29     1     0     1
SMALL
NO_CHARGES


@<TRIPOS>ATOM
      1 PB         38.8820   41.8810  -57.8360 P.3       1 ADP1201     0.0000 
      2 O1B        38.6320   43.3470  -58.0710 O.co2     1 ADP1201     0.0000 
      3 O2B        37.6640   41.0040  -58.0030 O.co2     1 ADP1201     0.0000 
      4 O3B        39.7220   41.5490  -56.6250 O.co2     1 ADP1201     0.0000 
      5 PA         39.8180   40.1190  -59.8500 P.3       1 ADP1201     0.0000 
      6 O1A        38.4090   39.8380  -60.3130 O.co2     1 ADP1201     0.0000 
      7 O2A        40.5770   39.1050  -59.0310 O.co2     1 ADP1201     0.0000 
      8 O3A        39.8330   41.5310  -59.0830 O.3       1 ADP1201     0.0000 
      9 O5'        40.7240   40.5350  -61.1120 O.3       1 ADP1201     0.0000 
     10 C5'        40.5720   39.9650  -62.4090 C.3       1 ADP1201     0.0000 
     11 C4'        41.9510   40.0210  -63.0440 C.3       1 ADP1201     0.0000 
     12 O4'        42.7980   39.1490  -62.3020 O.3       1 ADP1201     0.0000 
     13 C3'        41.9590   39.5700  -64.4890 C.3       1 ADP1201     0.0000 
     14 O3'        42.6040   40.5750  -65.2730 O.3       1 ADP1201     0.0000 
     15 C2'        42.7900   38.3070  -64.5210 C.3       1 ADP1201     0.0000 
     16 O2'        43.8290   38.4190  -65.4970 O.3       1 ADP1201     0.0000 
     17 C1'        43.4140   38.1820  -63.1450 C.3       1 ADP1201     0.0000 
     18 N9         43.1590   36.8400  -62.5750 N.pl3     1 ADP1201     0.0000 
     19 C8         42.7400   36.5950  -61.3230 C.2       1 ADP1201     0.0000 
     20 N7         42.6220   35.2630  -61.1010 N.2       1 ADP1201     0.0000 
     21 C5         42.9750   34.6310  -62.2330 C.ar      1 ADP1201     0.0000 
     22 C6         43.0810   33.2220  -62.6800 C.ar      1 ADP1201     0.0000 
     23 N6         42.7680   32.1940  -61.8540 N.pl3     1 ADP1201     0.0000 
     24 N1         43.4930   33.0020  -63.9450 N.ar      1 ADP1201     0.0000 
     25 C2         43.8010   34.0160  -64.7730 C.ar      1 ADP1201     0.0000 
     26 N3         43.7320   35.3110  -64.4330 N.ar      1 ADP1201     0.0000 
     27 C4         43.3340   35.6760  -63.1980 C.ar      1 ADP1201     0.0000 
@<TRIPOS>BOND
     1    1    2 ar   
     2    1    3 ar   
     3    1    4 ar   
     4    1    8 1    
     5    5    6 ar   
     6    5    7 ar   
     7    5    8 1    
     8    5    9 1    
     9    9   10 1    
    10   10   11 1    
    11   11   12 1    
    12   11   13 1    
    13   12   17 1    
    14   13   14 1    
    15   13   15 1    
    16   15   16 1    
    17   15   17 1    
    18   17   18 1    
    19   18   19 1    
    20   18   27 1    
    21   19   20 2    
    22   20   21 1    
    23   21   22 ar   
    24   21   27 ar   
    25   22   23 1    
    26   22   24 ar   
    27   24   25 ar   
    28   25   26 ar   
    29   26   27 ar   
@<TRIPOS>SUBSTRUCTURE
     1 ADP1201     1 GROUP   
@<TRIPOS>SET
ATOM$ORANGE STATIC     ATOMS   COLORGROUP SYSTEM 
20 10 10 11 11 13 13 15 15 17 17 19 19 21 21 22 22 25 \
25 27 27 

