#    Name: 6ucb_5_ZK1
#    Modification time : Fri May 22 19:29:47 2020

@<TRIPOS>MOLECULE
6ucb_5_ZK1
   40    42     1     0     0
SMALL
NO_CHARGES


@<TRIPOS>ATOM
      1 OAA       225.4880  196.9350  240.7000 O.2       1 ZK1901      0.0000 
      2 OAB       227.4090  197.8850  238.8160 O.2       1 ZK1901      0.0000 
      3 OAC       227.7760  198.5620  234.1020 O.co2     1 ZK1901      0.0000 
      4 OAD       225.5590  197.5940  234.5840 O.co2     1 ZK1901      0.0000 
      5 OAE       227.5510  196.7870  235.7960 O.co2     1 ZK1901      0.0000 
      6 FAF       219.1750  199.4520  237.6170 F         1 ZK1901      0.0000 
      7 FAG       219.4490  198.9580  235.4640 F         1 ZK1901      0.0000 
      8 FAH       219.6840  201.0600  236.1610 F         1 ZK1901      0.0000 
      9 CAI       223.6890  199.7670  236.0000 C.ar      1 ZK1901      0.0000 
     10 CAJ       221.7900  198.8190  237.8750 C.ar      1 ZK1901      0.0000 
     11 CAK       222.9400  201.0200  232.4150 C.3       1 ZK1901      0.0000 
     12 CAL       221.9320  202.8850  233.4340 C.3       1 ZK1901      0.0000 
     13 CAM       222.2920  200.0360  233.3820 C.3       1 ZK1901      0.0000 
     14 CAN       222.2780  202.0880  234.6910 C.3       1 ZK1901      0.0000 
     15 CAO       226.6100  199.2780  236.4950 C.3       1 ZK1901      0.0000 
     16 NAP       223.6900  197.8490  239.3310 N.am      1 ZK1901      0.0000 
     17 OAQ       222.0940  202.1210  232.2740 O.3       1 ZK1901      0.0000 
     18 CAR       222.3160  199.9830  235.7820 C.ar      1 ZK1901      0.0000 
     19 CAS       221.3650  199.5080  236.7270 C.ar      1 ZK1901      0.0000 
     20 CAT       225.0680  197.6220  239.5580 C.2       1 ZK1901      0.0000 
     21 CAU       226.0470  198.1060  238.5970 C.2       1 ZK1901      0.0000 
     22 CAV       223.2580  198.5800  238.1120 C.ar      1 ZK1901      0.0000 
     23 CAW       224.1640  199.0290  237.2220 C.ar      1 ZK1901      0.0000 
     24 NAX       221.8560  200.7000  234.6030 N.3       1 ZK1901      0.0000 
     25 NAY       225.6180  198.8020  237.4440 N.am      1 ZK1901      0.0000 
     26 CAZ       219.8790  199.7510  236.4870 C.3       1 ZK1901      0.0000 
     27 PBA       226.8860  197.9940  235.1800 P.3       1 ZK1901      0.0000 
     28 HAI       224.3080  200.0780  235.3810 H         1 ZK1901      0.0000 
     29 HAJ       221.1660  198.5090  238.4880 H         1 ZK1901      0.0000 
     30 HAK       223.0580  200.5930  231.5530 H         1 ZK1901      0.0000 
     31 HAKA      223.8030  201.3040  232.7570 H         1 ZK1901      0.0000 
     32 HAL       221.0090  203.1760  233.4920 H         1 ZK1901      0.0000 
     33 HALA      222.5120  203.6600  233.3850 H         1 ZK1901      0.0000 
     34 HAM       221.5140  199.6510  232.9500 H         1 ZK1901      0.0000 
     35 HAMA      222.9210  199.3300  233.5870 H         1 ZK1901      0.0000 
     36 HAN       221.8310  202.4960  235.4480 H         1 ZK1901      0.0000 
     37 HANA      223.2370  202.1270  234.8300 H         1 ZK1901      0.0000 
     38 HAO       227.4450  199.4370  236.9590 H         1 ZK1901      0.0000 
     39 HAOA      226.3120  200.1020  236.0840 H         1 ZK1901      0.0000 
     40 HNAP      223.1070  197.5650  239.8940 H         1 ZK1901      0.0000 
@<TRIPOS>BOND
     1    1   20 2    
     2    2   21 2    
     3    3   27 ar   
     4    4   27 ar   
     5    5   27 ar   
     6    6   26 1    
     7    7   26 1    
     8    8   26 1    
     9    9   18 ar   
    10    9   23 ar   
    11   10   19 ar   
    12    9   28 1    
    13   10   22 ar   
    14   11   13 1    
    15   10   29 1    
    16   11   17 1    
    17   11   30 1    
    18   11   31 1    
    19   12   14 1    
    20   12   17 1    
    21   12   32 1    
    22   12   33 1    
    23   13   24 1    
    24   13   34 1    
    25   13   35 1    
    26   14   24 1    
    27   14   36 1    
    28   14   37 1    
    29   15   25 1    
    30   15   27 1    
    31   15   38 1    
    32   15   39 1    
    33   16   20 am   
    34   16   22 1    
    35   18   19 ar   
    36   16   40 1    
    37   18   24 1    
    38   19   26 1    
    39   20   21 1    
    40   21   25 am   
    41   22   23 ar   
    42   23   25 1    
@<TRIPOS>SUBSTRUCTURE
     1 ZK1901      1 GROUP   
@<TRIPOS>SET

