#    Name: 6ucb_4_ZK1
#    Modification time : Fri May 22 19:29:43 2020

@<TRIPOS>MOLECULE
6ucb_4_ZK1
   40    42     1     0     0
SMALL
NO_CHARGES


@<TRIPOS>ATOM
      1 OAA       170.7780  212.7980  242.9310 O.2       1 ZK1901      0.0000 
      2 OAB       173.5670  213.3560  242.7160 O.2       1 ZK1901      0.0000 
      3 OAC       176.8610  212.4550  239.7160 O.co2     1 ZK1901      0.0000 
      4 OAD       176.1640  212.5890  242.0750 O.co2     1 ZK1901      0.0000 
      5 OAE       174.7830  211.3510  240.4500 O.co2     1 ZK1901      0.0000 
      6 FAF       168.5500  214.3690  235.9790 F         1 ZK1901      0.0000 
      7 FAG       169.9810  213.1150  234.8210 F         1 ZK1901      0.0000 
      8 FAH       170.2070  215.3310  234.8400 F         1 ZK1901      0.0000 
      9 CAI       172.9750  214.3260  237.8070 C.ar      1 ZK1901      0.0000 
     10 CAJ       170.2100  213.7680  238.0420 C.ar      1 ZK1901      0.0000 
     11 CAK       174.3680  214.4060  233.6890 C.3       1 ZK1901      0.0000 
     12 CAL       173.6230  216.5930  234.0600 C.3       1 ZK1901      0.0000 
     13 CAM       173.8930  214.0490  235.0940 C.3       1 ZK1901      0.0000 
     14 CAN       173.0230  216.2110  235.4080 C.3       1 ZK1901      0.0000 
     15 CAO       174.7270  214.1040  240.2770 C.3       1 ZK1901      0.0000 
     16 NAP       170.5020  213.2690  240.5560 N.am      1 ZK1901      0.0000 
     17 OAQ       173.6130  215.4810  233.2100 O.3       1 ZK1901      0.0000 
     18 CAR       172.1410  214.4170  236.6820 C.ar      1 ZK1901      0.0000 
     19 CAS       170.7520  214.1380  236.8020 C.ar      1 ZK1901      0.0000 
     20 CAT       171.3250  213.1680  241.7000 C.2       1 ZK1901      0.0000 
     21 CAU       172.7470  213.4530  241.5890 C.2       1 ZK1901      0.0000 
     22 CAV       171.0990  213.6620  239.2520 C.ar      1 ZK1901      0.0000 
     23 CAW       172.4160  213.9280  239.1490 C.ar      1 ZK1901      0.0000 
     24 NAX       172.6900  214.8040  235.3940 N.3       1 ZK1901      0.0000 
     25 NAY       173.3010  213.8290  240.3450 N.am      1 ZK1901      0.0000 
     26 CAZ       169.8480  214.2420  235.5780 C.3       1 ZK1901      0.0000 
     27 PBA       175.6770  212.5500  240.6470 P.3       1 ZK1901      0.0000 
     28 HAI       173.8810  214.5100  237.7210 H         1 ZK1901      0.0000 
     29 HAJ       169.3020  213.5850  238.1160 H         1 ZK1901      0.0000 
     30 HAK       174.2530  213.6430  233.1040 H         1 ZK1901      0.0000 
     31 HAKA      175.3030  214.6580  233.7210 H         1 ZK1901      0.0000 
     32 HAL       173.0970  217.3060  233.6650 H         1 ZK1901      0.0000 
     33 HALA      174.5360  216.8900  234.1900 H         1 ZK1901      0.0000 
     34 HAM       173.7040  213.1000  235.1440 H         1 ZK1901      0.0000 
     35 HAMA      174.5910  214.2820  235.7250 H         1 ZK1901      0.0000 
     36 HAN       172.2200  216.7300  235.5670 H         1 ZK1901      0.0000 
     37 HANA      173.6720  216.3810  236.1070 H         1 ZK1901      0.0000 
     38 HAO       174.9490  214.7740  240.9400 H         1 ZK1901      0.0000 
     39 HAOA      174.9790  214.4300  239.4030 H         1 ZK1901      0.0000 
     40 HNAP      169.6620  213.1030  240.6120 H         1 ZK1901      0.0000 
@<TRIPOS>BOND
     1    1   20 2    
     2    2   21 2    
     3    3   27 ar   
     4    4   27 ar   
     5    5   27 ar   
     6    6   26 1    
     7    7   26 1    
     8    8   26 1    
     9    9   18 ar   
    10    9   23 ar   
    11   10   19 ar   
    12    9   28 1    
    13   10   22 ar   
    14   11   13 1    
    15   10   29 1    
    16   11   17 1    
    17   11   30 1    
    18   11   31 1    
    19   12   14 1    
    20   12   17 1    
    21   12   32 1    
    22   12   33 1    
    23   13   24 1    
    24   13   34 1    
    25   13   35 1    
    26   14   24 1    
    27   14   36 1    
    28   14   37 1    
    29   15   25 1    
    30   15   27 1    
    31   15   38 1    
    32   15   39 1    
    33   16   20 am   
    34   16   22 1    
    35   18   19 ar   
    36   16   40 1    
    37   18   24 1    
    38   19   26 1    
    39   20   21 1    
    40   21   25 am   
    41   22   23 ar   
    42   23   25 1    
@<TRIPOS>SUBSTRUCTURE
     1 ZK1901      1 GROUP   
@<TRIPOS>SET

