#    Name: 6ucb_2_ZK1
#    Modification time : Fri May 22 19:29:39 2020

@<TRIPOS>MOLECULE
6ucb_2_ZK1
   40    42     1     0     0
SMALL
NO_CHARGES


@<TRIPOS>ATOM
      1 OAA       158.3100  186.8710  240.7440 O.2       1 ZK1901      0.0000 
      2 OAB       156.3250  185.8740  238.9550 O.2       1 ZK1901      0.0000 
      3 OAC       156.8960  184.5420  233.8740 O.co2     1 ZK1901      0.0000 
      4 OAD       155.8610  186.3940  235.1260 O.co2     1 ZK1901      0.0000 
      5 OAE       158.3190  186.2390  234.9600 O.co2     1 ZK1901      0.0000 
      6 FAF       164.5130  184.3050  237.4870 F         1 ZK1901      0.0000 
      7 FAG       164.1570  184.7740  235.3400 F         1 ZK1901      0.0000 
      8 FAH       163.9580  182.6790  236.0680 F         1 ZK1901      0.0000 
      9 CAI       159.9430  183.9490  236.0440 C.ar      1 ZK1901      0.0000 
     10 CAJ       161.9110  184.9440  237.8260 C.ar      1 ZK1901      0.0000 
     11 CAK       161.5940  182.7510  232.1950 C.3       1 ZK1901      0.0000 
     12 CAL       161.8590  180.8350  233.5140 C.3       1 ZK1901      0.0000 
     13 CAM       161.0490  183.4870  233.4140 C.3       1 ZK1901      0.0000 
     14 CAN       161.4200  181.5890  234.7650 C.3       1 ZK1901      0.0000 
     15 CAO       157.0690  184.4240  236.6200 C.3       1 ZK1901      0.0000 
     16 NAP       160.0600  185.9380  239.3310 N.am      1 ZK1901      0.0000 
     17 OAQ       162.4520  181.7300  232.6160 O.3       1 ZK1901      0.0000 
     18 CAR       161.3060  183.7340  235.7810 C.ar      1 ZK1901      0.0000 
     19 CAS       162.2920  184.2320  236.6780 C.ar      1 ZK1901      0.0000 
     20 CAT       158.6900  186.1620  239.6020 C.2       1 ZK1901      0.0000 
     21 CAU       157.6780  185.6530  238.6880 C.2       1 ZK1901      0.0000 
     22 CAV       160.4530  185.1820  238.1140 C.ar      1 ZK1901      0.0000 
     23 CAW       159.5170  184.7110  237.2690 C.ar      1 ZK1901      0.0000 
     24 NAX       161.7210  182.9950  234.6010 N.3       1 ZK1901      0.0000 
     25 NAY       158.0720  184.9360  237.5350 N.am      1 ZK1901      0.0000 
     26 CAZ       163.7700  183.9910  236.3870 C.3       1 ZK1901      0.0000 
     27 PBA       157.0370  185.4500  235.0710 P.3       1 ZK1901      0.0000 
     28 HAI       159.3010  183.6230  235.4570 H         1 ZK1901      0.0000 
     29 HAJ       162.5570  185.2690  238.4080 H         1 ZK1901      0.0000 
     30 HAK       162.0810  183.3730  231.6340 H         1 ZK1901      0.0000 
     31 HAKA      160.8560  182.3660  231.6970 H         1 ZK1901      0.0000 
     32 HAL       162.5000  180.1510  233.7580 H         1 ZK1901      0.0000 
     33 HALA      161.0840  180.4290  233.0970 H         1 ZK1901      0.0000 
     34 HAM       161.2100  184.4380  233.3200 H         1 ZK1901      0.0000 
     35 HAMA      160.0970  183.3170  233.4800 H         1 ZK1901      0.0000 
     36 HAN       161.8980  181.2430  235.5340 H         1 ZK1901      0.0000 
     37 HANA      160.4650  181.4740  234.8900 H         1 ZK1901      0.0000 
     38 HAO       156.1980  184.4610  237.0410 H         1 ZK1901      0.0000 
     39 HAOA      157.2750  183.5050  236.3920 H         1 ZK1901      0.0000 
     40 HNAP      160.6620  186.2360  239.8670 H         1 ZK1901      0.0000 
@<TRIPOS>BOND
     1    1   20 2    
     2    2   21 2    
     3    3   27 ar   
     4    4   27 ar   
     5    5   27 ar   
     6    6   26 1    
     7    7   26 1    
     8    8   26 1    
     9    9   18 ar   
    10    9   23 ar   
    11   10   19 ar   
    12    9   28 1    
    13   10   22 ar   
    14   11   13 1    
    15   10   29 1    
    16   11   17 1    
    17   11   30 1    
    18   11   31 1    
    19   12   14 1    
    20   12   17 1    
    21   12   32 1    
    22   12   33 1    
    23   13   24 1    
    24   13   34 1    
    25   13   35 1    
    26   14   24 1    
    27   14   36 1    
    28   14   37 1    
    29   15   25 1    
    30   15   27 1    
    31   15   38 1    
    32   15   39 1    
    33   16   20 am   
    34   16   22 1    
    35   18   19 ar   
    36   16   40 1    
    37   18   24 1    
    38   19   26 1    
    39   20   21 1    
    40   21   25 am   
    41   22   23 ar   
    42   23   25 1    
@<TRIPOS>SUBSTRUCTURE
     1 ZK1901      1 GROUP   
@<TRIPOS>SET

