#    Name: 6ucb_2_ZK1_CAVITY_N1_ALL
#    Modification time : Fri May 22 19:29:40 2020

@<TRIPOS>MOLECULE
6ucb_2_ZK1_CAVITY_N1_ALL
  111     0     7     0     0
SMALL
NO_CHARGES


@<TRIPOS>ATOM
      1 OG        158.6100  183.9400  230.6100 O.3       1 SER1        0.0000 
      2 OG        156.7100  184.5400  231.3100 O.3       1 SER1        0.0000 
      3 OG        160.3400  179.7000  232.5700 O.3       1 SER1        0.0000 
      4 OG        160.7300  181.6800  231.9000 O.3       1 SER1        0.0000 
      5 OG        161.8800  182.3600  231.2200 O.3       1 SER1        0.0000 
      6 OG        157.3000  184.8700  232.6500 O.3       1 SER1        0.0000 
      7 OG        158.4500  185.5600  231.9600 O.3       1 SER1        0.0000 
      8 OG        159.6000  186.2400  231.2800 O.3       1 SER1        0.0000 
      9 OG        160.9400  180.0300  233.9000 O.3       1 SER1        0.0000 
     10 OG        162.0900  180.7200  233.2200 O.3       1 SER1        0.0000 
     11 OG        161.3300  182.0100  233.2400 O.3       1 SER1        0.0000 
     12 OG        157.9000  185.2000  233.9800 O.3       1 SER1        0.0000 
     13 OG        158.2900  187.1800  233.3200 O.3       1 SER1        0.0000 
     14 OG        155.4400  185.4600  236.7000 O.3       1 SER1        0.0000 
     15 OG        156.5900  186.1400  236.0200 O.3       1 SER1        0.0000 
     16 OG        157.7400  186.8300  235.3400 O.3       1 SER1        0.0000 
     17 OG        162.1300  180.6900  236.5700 O.3       1 SER1        0.0000 
     18 OG        163.2800  181.3800  235.8900 O.3       1 SER1        0.0000 
     19 OG        161.3700  181.9900  236.5900 O.3       1 SER1        0.0000 
     20 OG        162.5200  182.6700  235.9100 O.3       1 SER1        0.0000 
     21 OG        161.7600  183.9600  235.9300 O.3       1 SER1        0.0000 
     22 OG        162.9100  184.6500  235.2500 O.3       1 SER1        0.0000 
     23 OG        164.0500  185.3300  234.5700 O.3       1 SER1        0.0000 
     24 OG        161.0000  185.2600  235.9500 O.3       1 SER1        0.0000 
     25 OG        162.1500  185.9400  235.2700 O.3       1 SER1        0.0000 
     26 OG        159.0900  185.8700  236.6500 O.3       1 SER1        0.0000 
     27 OG        160.2400  186.5500  235.9700 O.3       1 SER1        0.0000 
     28 OG        157.1900  186.4700  237.3600 O.3       1 SER1        0.0000 
     29 OG        158.3300  187.1600  236.6700 O.3       1 SER1        0.0000 
     30 OG        159.4800  187.8400  235.9900 O.3       1 SER1        0.0000 
     31 OG        157.5700  188.4500  236.6900 O.3       1 SER1        0.0000 
     32 OG        162.3600  184.2900  237.2700 O.3       1 SER1        0.0000 
     33 OG        163.5000  184.9800  236.5900 O.3       1 SER1        0.0000 
     34 OG        164.6500  185.6600  235.9000 O.3       1 SER1        0.0000 
     35 OG        161.6000  185.5900  237.2900 O.3       1 SER1        0.0000 
     36 OG        159.6900  186.2000  237.9900 O.3       1 SER1        0.0000 
     37 OG        160.8400  186.8800  237.3100 O.3       1 SER1        0.0000 
     38 OG        157.7800  186.8000  238.6900 O.3       1 SER1        0.0000 
     39 N         156.9100  182.9000  233.3100 N.am      2 ALA2        0.0000 
     40 O         160.3600  184.9500  231.2600 O.2       2 ALA2        0.0000 
     41 O         156.5400  186.1700  232.6700 O.2       2 ALA2        0.0000 
     42 O         155.9900  185.8100  234.6800 O.2       2 ALA2        0.0000 
     43 OD1       159.4300  187.8700  232.6400 O.co2     3 ASP3        0.0000 
     44 OD1       158.8800  187.5100  234.6600 O.co2     3 ASP3        0.0000 
     45 OD1       156.0400  185.7900  238.0400 O.co2     3 ASP3        0.0000 
     46 OD1       160.6300  188.5300  235.3100 O.co2     3 ASP3        0.0000 
     47 NZ        161.7000  178.7400  233.8800 N.4       4 LYS4        0.0000 
     48 NZ        162.3000  179.0700  235.2200 N.4       4 LYS4        0.0000 
     49 NZ        161.5400  180.3600  235.2400 N.4       4 LYS4        0.0000 
     50 NZ        162.6800  181.0500  234.5600 N.4       4 LYS4        0.0000 
     51 CZ        160.3900  179.6800  235.9200 C.ar      5 PHE5        0.0000 
     52 CZ        159.6300  180.9700  235.9400 C.ar      5 PHE5        0.0000 
     53 CZ        160.7800  181.6600  235.2600 C.ar      5 PHE5        0.0000 
     54 CZ        158.8700  182.2600  235.9600 C.ar      5 PHE5        0.0000 
     55 CZ        160.0200  182.9500  235.2800 C.ar      5 PHE5        0.0000 
     56 CZ        160.6100  183.2800  236.6100 C.ar      5 PHE5        0.0000 
     57 CZ        157.5600  183.2000  238.0000 C.ar      5 PHE5        0.0000 
     58 CZ        158.7100  183.8900  237.3200 C.ar      5 PHE5        0.0000 
     59 CZ        159.8500  184.5700  236.6300 C.ar      5 PHE5        0.0000 
     60 CZ        156.8000  184.5000  238.0200 C.ar      5 PHE5        0.0000 
     61 CZ        160.4500  184.9000  237.9700 C.ar      5 PHE5        0.0000 
     62 CZ        158.5400  185.5100  238.6700 C.ar      5 PHE5        0.0000 
     63 CA        158.0200  183.6100  229.2700 C.3       6 GLY6        0.0000 
     64 CA        159.3700  182.6400  230.5900 C.3       6 GLY6        0.0000 
     65 CA        160.5200  183.3300  229.9100 C.3       6 GLY6        0.0000 
     66 CA        157.4700  183.2500  231.2900 C.3       6 GLY6        0.0000 
     67 CA        159.7600  184.6200  229.9300 C.3       6 GLY6        0.0000 
     68 CA        159.5800  180.9900  232.5900 C.3       6 GLY6        0.0000 
     69 CA        163.0200  183.0500  230.5400 C.3       6 GLY6        0.0000 
     70 CA        158.8200  182.2900  232.6100 C.3       6 GLY6        0.0000 
     71 CA        158.0600  183.5800  232.6300 C.3       6 GLY6        0.0000 
     72 CA        163.2300  181.4000  232.5400 C.3       6 GLY6        0.0000 
     73 CA        162.4700  182.6900  232.5600 C.3       6 GLY6        0.0000 
     74 CA        163.6200  183.3800  231.8800 C.3       6 GLY6        0.0000 
     75 CA        161.7100  183.9900  232.5800 C.3       6 GLY6        0.0000 
     76 CA        162.8600  184.6700  231.9000 C.3       6 GLY6        0.0000 
     77 CA        160.9500  185.2800  232.6000 C.3       6 GLY6        0.0000 
     78 CA        156.7500  184.5200  234.6600 C.3       6 GLY6        0.0000 
     79 CA        160.1900  186.5700  232.6200 C.3       6 GLY6        0.0000 
     80 CA        163.8300  181.7300  233.8700 C.3       6 GLY6        0.0000 
     81 CA        163.0700  183.0200  233.8900 C.3       6 GLY6        0.0000 
     82 CA        162.3100  184.3200  233.9100 C.3       6 GLY6        0.0000 
     83 CA        163.4600  185.0000  233.2300 C.3       6 GLY6        0.0000 
     84 CA        161.5500  185.6100  233.9300 C.3       6 GLY6        0.0000 
     85 CA        160.7900  186.9000  233.9500 C.3       6 GLY6        0.0000 
     86 CA        163.6700  183.3500  235.2300 C.3       6 GLY6        0.0000 
     87 CA        164.2600  183.6900  236.5700 C.3       6 GLY6        0.0000 
     88 CA        165.4100  184.3700  235.8800 C.3       6 GLY6        0.0000 
     89 CA        157.0200  188.1000  238.7100 C.3       6 GLY6        0.0000 
     90 CA        164.8600  184.0200  237.9000 C.3       6 GLY6        0.0000 
     91 DU        159.9700  182.9700  231.9200 H         7 CUB7        0.0000 
     92 DU        161.1200  183.6600  231.2400 H         7 CUB7        0.0000 
     93 DU        159.2100  184.2700  231.9400 H         7 CUB7        0.0000 
     94 DU        159.0300  180.6400  234.6000 H         7 CUB7        0.0000 
     95 DU        160.1800  181.3300  233.9200 H         7 CUB7        0.0000 
     96 DU        158.2700  181.9300  234.6200 H         7 CUB7        0.0000 
     97 DU        159.4200  182.6200  233.9400 H         7 CUB7        0.0000 
     98 DU        157.5100  183.2300  234.6400 H         7 CUB7        0.0000 
     99 DU        158.6600  183.9100  233.9600 H         7 CUB7        0.0000 
    100 DU        159.8100  184.6000  233.2800 H         7 CUB7        0.0000 
    101 DU        159.0500  185.8900  233.3000 H         7 CUB7        0.0000 
    102 DU        161.9200  182.3400  234.5800 H         7 CUB7        0.0000 
    103 DU        161.1600  183.6300  234.6000 H         7 CUB7        0.0000 
    104 DU        158.1100  183.5600  235.9800 H         7 CUB7        0.0000 
    105 DU        159.2600  184.2400  235.3000 H         7 CUB7        0.0000 
    106 DU        160.4000  184.9300  234.6200 H         7 CUB7        0.0000 
    107 DU        156.2000  184.1700  236.6800 H         7 CUB7        0.0000 
    108 DU        157.3500  184.8500  236.0000 H         7 CUB7        0.0000 
    109 DU        158.5000  185.5300  235.3200 H         7 CUB7        0.0000 
    110 DU        159.6400  186.2200  234.6400 H         7 CUB7        0.0000 
    111 DU        157.9500  185.1800  237.3400 H         7 CUB7        0.0000 
@<TRIPOS>BOND
@<TRIPOS>SUBSTRUCTURE
     1 SER1        1 GROUP   
     2 ALA2       39 GROUP   
     3 ASP3       43 GROUP   
     4 LYS4       47 GROUP   
     5 PHE5       51 GROUP   
     6 GLY6       63 GROUP   
     7 CUB7       91 GROUP   
@<TRIPOS>SET

