#    Name: 6ucb_1_ZK1
#    Modification time : Fri May 22 19:29:35 2020

@<TRIPOS>MOLECULE
6ucb_1_ZK1
   40    42     1     0     0
SMALL
NO_CHARGES


@<TRIPOS>ATOM
      1 OAA       213.0020  170.9630  242.9290 O.2       1 ZK1901      0.0000 
      2 OAB       210.2090  170.4090  242.7210 O.2       1 ZK1901      0.0000 
      3 OAC       206.8460  171.2030  239.6600 O.co2     1 ZK1901      0.0000 
      4 OAD       208.9550  172.4100  240.0620 O.co2     1 ZK1901      0.0000 
      5 OAE       207.7250  171.4150  241.9530 O.co2     1 ZK1901      0.0000 
      6 FAF       215.2060  169.3870  235.9710 F         1 ZK1901      0.0000 
      7 FAG       213.7720  170.6390  234.8150 F         1 ZK1901      0.0000 
      8 FAH       213.5460  168.4240  234.8380 F         1 ZK1901      0.0000 
      9 CAI       210.7870  169.4360  237.8130 C.ar      1 ZK1901      0.0000 
     10 CAJ       213.5540  169.9900  238.0380 C.ar      1 ZK1901      0.0000 
     11 CAK       209.3850  169.3540  233.6960 C.3       1 ZK1901      0.0000 
     12 CAL       210.1320  167.1670  234.0640 C.3       1 ZK1901      0.0000 
     13 CAM       209.8620  169.7120  235.1000 C.3       1 ZK1901      0.0000 
     14 CAN       210.7310  167.5500  235.4130 C.3       1 ZK1901      0.0000 
     15 CAO       209.0440  169.6620  240.2860 C.3       1 ZK1901      0.0000 
     16 NAP       213.2700  170.4900  240.5530 N.am      1 ZK1901      0.0000 
     17 OAQ       210.1400  168.2800  233.2160 O.3       1 ZK1901      0.0000 
     18 CAR       211.6170  169.3430  236.6850 C.ar      1 ZK1901      0.0000 
     19 CAS       213.0080  169.6200  236.8000 C.ar      1 ZK1901      0.0000 
     20 CAT       212.4500  170.5930  241.7000 C.2       1 ZK1901      0.0000 
     21 CAU       211.0270  170.3110  241.5930 C.2       1 ZK1901      0.0000 
     22 CAV       212.6690  170.0980  239.2520 C.ar      1 ZK1901      0.0000 
     23 CAW       211.3510  169.8330  239.1510 C.ar      1 ZK1901      0.0000 
     24 NAX       211.0650  168.9560  235.3990 N.3       1 ZK1901      0.0000 
     25 NAY       210.4710  169.9350  240.3500 N.am      1 ZK1901      0.0000 
     26 CAZ       213.9070  169.5140  235.5740 C.3       1 ZK1901      0.0000 
     27 PBA       208.0990  171.2480  240.5000 P.3       1 ZK1901      0.0000 
     28 HAI       209.8800  169.2530  237.7300 H         1 ZK1901      0.0000 
     29 HAJ       214.4620  170.1710  238.1090 H         1 ZK1901      0.0000 
     30 HAK       209.4980  170.1170  233.1090 H         1 ZK1901      0.0000 
     31 HAKA      208.4500  169.1010  233.7300 H         1 ZK1901      0.0000 
     32 HAL       210.6580  166.4550  233.6700 H         1 ZK1901      0.0000 
     33 HALA      209.2180  166.8690  234.1940 H         1 ZK1901      0.0000 
     34 HAM       210.0530  170.6610  235.1480 H         1 ZK1901      0.0000 
     35 HAMA      209.1650  169.4810  235.7320 H         1 ZK1901      0.0000 
     36 HAN       211.5330  167.0290  235.5730 H         1 ZK1901      0.0000 
     37 HANA      210.0810  167.3800  236.1120 H         1 ZK1901      0.0000 
     38 HAO       208.8090  169.0570  241.0040 H         1 ZK1901      0.0000 
     39 HAOA      208.8050  169.2570  239.4420 H         1 ZK1901      0.0000 
     40 HNAP      214.1110  170.6550  240.6070 H         1 ZK1901      0.0000 
@<TRIPOS>BOND
     1    1   20 2    
     2    2   21 2    
     3    3   27 ar   
     4    4   27 ar   
     5    5   27 ar   
     6    6   26 1    
     7    7   26 1    
     8    8   26 1    
     9    9   18 ar   
    10    9   23 ar   
    11   10   19 ar   
    12    9   28 1    
    13   10   22 ar   
    14   11   13 1    
    15   10   29 1    
    16   11   17 1    
    17   11   30 1    
    18   11   31 1    
    19   12   14 1    
    20   12   17 1    
    21   12   32 1    
    22   12   33 1    
    23   13   24 1    
    24   13   34 1    
    25   13   35 1    
    26   14   24 1    
    27   14   36 1    
    28   14   37 1    
    29   15   25 1    
    30   15   27 1    
    31   15   38 1    
    32   15   39 1    
    33   16   20 am   
    34   16   22 1    
    35   18   19 ar   
    36   16   40 1    
    37   18   24 1    
    38   19   26 1    
    39   20   21 1    
    40   21   25 am   
    41   22   23 ar   
    42   23   25 1    
@<TRIPOS>SUBSTRUCTURE
     1 ZK1901      1 GROUP   
@<TRIPOS>SET

