#    Name: 5wwv_2_FAD
#    Modification time : Fri May 22 19:13:22 2020

@<TRIPOS>MOLECULE
5wwv_2_FAD
   53    58     1     0     1
SMALL
NO_CHARGES


@<TRIPOS>ATOM
      1 PA         16.9240   -1.4350  -25.1460 P.3       1 FAD401      0.0000 
      2 O1A        16.5990   -1.8870  -23.7520 O.co2     1 FAD401      0.0000 
      3 O2A        15.8970   -0.4480  -25.6970 O.co2     1 FAD401      0.0000 
      4 O5B        18.3910   -0.8060  -25.0470 O.3       1 FAD401      0.0000 
      5 C5B        18.8980   -0.0360  -26.1330 C.3       1 FAD401      0.0000 
      6 C4B        20.0800    0.8110  -25.6810 C.3       1 FAD401      0.0000 
      7 O4B        20.8300    1.2840  -26.8100 O.3       1 FAD401      0.0000 
      8 C3B        19.5950    2.0320  -24.9320 C.3       1 FAD401      0.0000 
      9 O3B        20.5440    2.3940  -23.9260 O.3       1 FAD401      0.0000 
     10 C2B        19.5280    3.0700  -26.0250 C.3       1 FAD401      0.0000 
     11 O2B        19.5480    4.4300  -25.5710 O.3       1 FAD401      0.0000 
     12 C1B        20.7790    2.7200  -26.8370 C.3       1 FAD401      0.0000 
     13 N9A        20.7550    3.3940  -28.1850 N.pl3     1 FAD401      0.0000 
     14 C8A        19.8260    3.2520  -29.1540 C.2       1 FAD401      0.0000 
     15 N7A        20.0850    4.0380  -30.2180 N.2       1 FAD401      0.0000 
     16 C5A        21.2040    4.7070  -29.9220 C.ar      1 FAD401      0.0000 
     17 C6A        22.0410    5.6960  -30.6110 C.ar      1 FAD401      0.0000 
     18 N6A        21.6760    6.1020  -31.8410 N.pl3     1 FAD401      0.0000 
     19 N1A        23.1370    6.1640  -29.9710 N.ar      1 FAD401      0.0000 
     20 C2A        23.4820    5.7450  -28.7320 C.ar      1 FAD401      0.0000 
     21 N3A        22.7640    4.8400  -28.0540 N.ar      1 FAD401      0.0000 
     22 C4A        21.6430    4.2980  -28.5870 C.ar      1 FAD401      0.0000 
     23 N1         11.7070   -9.9430  -22.9840 N.2       1 FAD401      0.0000 
     24 C2         11.7600  -11.0440  -22.1810 C.2       1 FAD401      0.0000 
     25 O2         12.7320  -11.8090  -22.2950 O.2       1 FAD401      0.0000 
     26 N3         10.8130  -11.3300  -21.2630 N.am      1 FAD401      0.0000 
     27 C4          9.7570  -10.5380  -21.0930 C.2       1 FAD401      0.0000 
     28 O4          8.8990  -10.7860  -20.2510 O.2       1 FAD401      0.0000 
     29 C4X         9.6140   -9.3390  -21.9240 C.2       1 FAD401      0.0000 
     30 N5          8.5720   -8.5260  -21.7580 N.2       1 FAD401      0.0000 
     31 C5X         8.4400   -7.4340  -22.5340 C.ar      1 FAD401      0.0000 
     32 C6          7.2990   -6.6680  -22.3420 C.ar      1 FAD401      0.0000 
     33 C7          7.1150   -5.5270  -23.0950 C.ar      1 FAD401      0.0000 
     34 C7M         5.9120   -4.6770  -22.8630 C.3       1 FAD401      0.0000 
     35 C8          8.1310   -5.1270  -24.0970 C.ar      1 FAD401      0.0000 
     36 C8M         7.9100   -3.8710  -24.9010 C.3       1 FAD401      0.0000 
     37 C9          9.2620   -5.9030  -24.3110 C.ar      1 FAD401      0.0000 
     38 C9A         9.4620   -7.0620  -23.5700 C.ar      1 FAD401      0.0000 
     39 N10        10.5860   -7.9070  -23.7380 N.pl3     1 FAD401      0.0000 
     40 C10        10.6740   -9.0620  -22.9210 C.2       1 FAD401      0.0000 
     41 C1'        11.6570   -7.6490  -24.7080 C.3       1 FAD401      0.0000 
     42 C2'        12.7670   -6.8070  -24.0960 C.3       1 FAD401      0.0000 
     43 O2'        12.2070   -5.5630  -23.6680 O.3       1 FAD401      0.0000 
     44 C3'        13.8620   -6.4570  -25.1060 C.3       1 FAD401      0.0000 
     45 O3'        14.1910   -7.5570  -25.9230 O.3       1 FAD401      0.0000 
     46 C4'        15.1750   -6.0660  -24.4550 C.3       1 FAD401      0.0000 
     47 O4'        14.9340   -5.1170  -23.4070 O.3       1 FAD401      0.0000 
     48 C5'        16.0790   -5.4180  -25.4810 C.3       1 FAD401      0.0000 
     49 O5'        17.3050   -4.9550  -24.9230 O.3       1 FAD401      0.0000 
     50 P          18.1970   -3.9480  -25.8020 P.3       1 FAD401      0.0000 
     51 O1P        18.4710   -4.6440  -27.1440 O.co2     1 FAD401      0.0000 
     52 O2P        19.4450   -3.6310  -25.0070 O.co2     1 FAD401      0.0000 
     53 O3P        17.2170   -2.6860  -26.1190 O.3       1 FAD401      0.0000 
@<TRIPOS>BOND
     1    1    2 ar   
     2    1    3 ar   
     3    1    4 1    
     4    1   53 1    
     5    4    5 1    
     6    5    6 1    
     7    6    7 1    
     8    6    8 1    
     9    7   12 1    
    10    8    9 1    
    11    8   10 1    
    12   10   11 1    
    13   10   12 1    
    14   12   13 1    
    15   13   14 1    
    16   13   22 1    
    17   14   15 2    
    18   15   16 1    
    19   16   17 ar   
    20   16   22 ar   
    21   17   18 1    
    22   17   19 ar   
    23   19   20 ar   
    24   20   21 ar   
    25   21   22 ar   
    26   23   24 1    
    27   23   40 2    
    28   24   25 2    
    29   24   26 am   
    30   26   27 am   
    31   27   28 2    
    32   27   29 1    
    33   29   30 2    
    34   29   40 1    
    35   30   31 1    
    36   31   32 ar   
    37   31   38 ar   
    38   32   33 ar   
    39   33   34 1    
    40   33   35 ar   
    41   35   36 1    
    42   35   37 ar   
    43   37   38 ar   
    44   38   39 1    
    45   39   40 1    
    46   39   41 1    
    47   41   42 1    
    48   42   43 1    
    49   42   44 1    
    50   44   45 1    
    51   44   46 1    
    52   46   47 1    
    53   46   48 1    
    54   48   49 1    
    55   49   50 1    
    56   50   51 ar   
    57   50   52 ar   
    58   50   53 1    
@<TRIPOS>SUBSTRUCTURE
     1 FAD401      1 GROUP   
@<TRIPOS>SET
ATOM$ORANGE STATIC     ATOMS   COLORGROUP SYSTEM 
54 5 5 6 6 8 8 10 10 12 12 14 14 16 16 17 17 20 \
20 22 22 24 24 27 27 29 29 31 31 32 32 33 33 34 34 35 \
35 36 36 37 37 38 38 40 40 41 41 42 42 44 44 46 46 48 \
48 

