#    Name: 5wwv_6_FAD
#    Modification time : Fri May 22 19:13:54 2020

@<TRIPOS>MOLECULE
5wwv_6_FAD
   53    58     1     0     1
SMALL
NO_CHARGES


@<TRIPOS>ATOM
      1 PA         31.3830  -55.0440   93.2350 P.3       1 FAD401      0.0000 
      2 O1A        31.5860  -55.3320   91.7650 O.co2     1 FAD401      0.0000 
      3 O2A        31.2210  -56.1810   94.2130 O.co2     1 FAD401      0.0000 
      4 O5B        32.5890  -54.1030   93.7410 O.3       1 FAD401      0.0000 
      5 C5B        32.6410  -53.6160   95.0710 C.3       1 FAD401      0.0000 
      6 C4B        34.0180  -53.0040   95.2300 C.3       1 FAD401      0.0000 
      7 O4B        34.1430  -52.2040   96.4230 O.3       1 FAD401      0.0000 
      8 C3B        35.0630  -54.0980   95.3270 C.3       1 FAD401      0.0000 
      9 O3B        36.2970  -53.7210   94.6810 O.3       1 FAD401      0.0000 
     10 C2B        35.1930  -54.1860   96.8290 C.3       1 FAD401      0.0000 
     11 O2B        36.3660  -54.8490   97.2580 O.3       1 FAD401      0.0000 
     12 C1B        35.1980  -52.7280   97.2210 C.3       1 FAD401      0.0000 
     13 N9A        35.0070  -52.5730   98.6830 N.pl3     1 FAD401      0.0000 
     14 C8A        33.9340  -52.9130   99.4230 C.2       1 FAD401      0.0000 
     15 N7A        34.1240  -52.6320  100.7450 N.2       1 FAD401      0.0000 
     16 C5A        35.3590  -52.1010  100.8500 C.ar      1 FAD401      0.0000 
     17 C6A        36.2320  -51.5680  101.9370 C.ar      1 FAD401      0.0000 
     18 N6A        35.7850  -51.5540  103.2140 N.pl3     1 FAD401      0.0000 
     19 N1A        37.4730  -51.1010  101.6260 N.ar      1 FAD401      0.0000 
     20 C2A        37.9100  -51.1120  100.3530 C.ar      1 FAD401      0.0000 
     21 N3A        37.1710  -51.5870   99.3270 N.ar      1 FAD401      0.0000 
     22 C4A        35.9210  -52.0710   99.4950 C.ar      1 FAD401      0.0000 
     23 N1         24.3640  -57.0720   86.6170 N.2       1 FAD401      0.0000 
     24 C2         24.0820  -56.7180   85.3410 C.2       1 FAD401      0.0000 
     25 O2         23.9750  -55.4910   85.0730 O.2       1 FAD401      0.0000 
     26 N3         23.9260  -57.6460   84.3740 N.am      1 FAD401      0.0000 
     27 C4         24.0580  -58.9510   84.6210 C.2       1 FAD401      0.0000 
     28 O4         23.9360  -59.7600   83.6940 O.2       1 FAD401      0.0000 
     29 C4X        24.3660  -59.4140   85.9890 C.2       1 FAD401      0.0000 
     30 N5         24.5060  -60.7200   86.3090 N.2       1 FAD401      0.0000 
     31 C5X        24.7730  -61.1010   87.5900 C.ar      1 FAD401      0.0000 
     32 C6         24.9120  -62.4570   87.8950 C.ar      1 FAD401      0.0000 
     33 C7         25.2000  -62.9060   89.1930 C.ar      1 FAD401      0.0000 
     34 C7M        25.3420  -64.3820   89.5310 C.3       1 FAD401      0.0000 
     35 C8         25.3600  -61.9110   90.2560 C.ar      1 FAD401      0.0000 
     36 C8M        25.6640  -62.3840   91.6480 C.3       1 FAD401      0.0000 
     37 C9         25.2350  -60.5600   89.9660 C.ar      1 FAD401      0.0000 
     38 C9A        24.9420  -60.0830   88.6760 C.ar      1 FAD401      0.0000 
     39 N10        24.8130  -58.6920   88.3420 N.pl3     1 FAD401      0.0000 
     40 C10        24.5150  -58.3560   87.0070 C.2       1 FAD401      0.0000 
     41 C1'        24.8990  -57.5920   89.3110 C.3       1 FAD401      0.0000 
     42 C2'        26.2180  -56.8730   89.2850 C.3       1 FAD401      0.0000 
     43 O2'        27.2530  -57.8510   89.2330 O.3       1 FAD401      0.0000 
     44 C3'        26.3800  -56.0560   90.5600 C.3       1 FAD401      0.0000 
     45 O3'        25.1720  -55.3650   90.8410 O.3       1 FAD401      0.0000 
     46 C4'        27.5110  -55.0710   90.4060 C.3       1 FAD401      0.0000 
     47 O4'        28.6750  -55.8070   90.0170 O.3       1 FAD401      0.0000 
     48 C5'        27.7950  -54.3020   91.6810 C.3       1 FAD401      0.0000 
     49 O5'        28.8760  -53.4190   91.3630 O.3       1 FAD401      0.0000 
     50 P          29.7350  -52.7490   92.5220 P.3       1 FAD401      0.0000 
     51 O1P        28.7340  -51.9330   93.3370 O.co2     1 FAD401      0.0000 
     52 O2P        30.9820  -52.0590   92.0170 O.co2     1 FAD401      0.0000 
     53 O3P        30.0900  -54.0800   93.3940 O.3       1 FAD401      0.0000 
@<TRIPOS>BOND
     1    1    2 ar   
     2    1    3 ar   
     3    1    4 1    
     4    1   53 1    
     5    4    5 1    
     6    5    6 1    
     7    6    7 1    
     8    6    8 1    
     9    7   12 1    
    10    8    9 1    
    11    8   10 1    
    12   10   11 1    
    13   10   12 1    
    14   12   13 1    
    15   13   14 1    
    16   13   22 1    
    17   14   15 2    
    18   15   16 1    
    19   16   17 ar   
    20   16   22 ar   
    21   17   18 1    
    22   17   19 ar   
    23   19   20 ar   
    24   20   21 ar   
    25   21   22 ar   
    26   23   24 1    
    27   23   40 2    
    28   24   25 2    
    29   24   26 am   
    30   26   27 am   
    31   27   28 2    
    32   27   29 1    
    33   29   30 2    
    34   29   40 1    
    35   30   31 1    
    36   31   32 ar   
    37   31   38 ar   
    38   32   33 ar   
    39   33   34 1    
    40   33   35 ar   
    41   35   36 1    
    42   35   37 ar   
    43   37   38 ar   
    44   38   39 1    
    45   39   40 1    
    46   39   41 1    
    47   41   42 1    
    48   42   43 1    
    49   42   44 1    
    50   44   45 1    
    51   44   46 1    
    52   46   47 1    
    53   46   48 1    
    54   48   49 1    
    55   49   50 1    
    56   50   51 ar   
    57   50   52 ar   
    58   50   53 1    
@<TRIPOS>SUBSTRUCTURE
     1 FAD401      1 GROUP   
@<TRIPOS>SET
ATOM$ORANGE STATIC     ATOMS   COLORGROUP SYSTEM 
54 5 5 6 6 8 8 10 10 12 12 14 14 16 16 17 17 20 \
20 22 22 24 24 27 27 29 29 31 31 32 32 33 33 34 34 35 \
35 36 36 37 37 38 38 40 40 41 41 42 42 44 44 46 46 48 \
48 

