#    Name: 5wwv_4_FAD
#    Modification time : Fri May 22 19:13:38 2020

@<TRIPOS>MOLECULE
5wwv_4_FAD
   53    58     1     0     1
SMALL
NO_CHARGES


@<TRIPOS>ATOM
      1 PA         43.9670  -50.8280   27.6260 P.3       1 FAD401      0.0000 
      2 O1A        43.5680  -50.7920   26.1730 O.co2     1 FAD401      0.0000 
      3 O2A        44.1410  -52.0990   28.4480 O.co2     1 FAD401      0.0000 
      4 O5B        45.3520  -50.0310   27.7050 O.3       1 FAD401      0.0000 
      5 C5B        45.7360  -49.6930   29.0220 C.3       1 FAD401      0.0000 
      6 C4B        47.0650  -48.9930   29.0320 C.3       1 FAD401      0.0000 
      7 O4B        47.4270  -48.7960   30.3900 O.3       1 FAD401      0.0000 
      8 C3B        48.2060  -49.7840   28.4310 C.3       1 FAD401      0.0000 
      9 O3B        48.8530  -48.9340   27.4890 O.3       1 FAD401      0.0000 
     10 C2B        49.1420  -50.0820   29.5820 C.3       1 FAD401      0.0000 
     11 O2B        50.4760  -50.1330   29.0830 O.3       1 FAD401      0.0000 
     12 C1B        48.8450  -48.8870   30.4770 C.3       1 FAD401      0.0000 
     13 N9A        49.2740  -48.8630   31.9160 N.pl3     1 FAD401      0.0000 
     14 C8A        48.5780  -49.2200   33.0160 C.2       1 FAD401      0.0000 
     15 N7A        49.2900  -49.0190   34.1650 N.2       1 FAD401      0.0000 
     16 C5A        50.4640  -48.4990   33.7850 C.ar      1 FAD401      0.0000 
     17 C6A        51.6970  -48.0410   34.4500 C.ar      1 FAD401      0.0000 
     18 N6A        51.8200  -48.0950   35.7920 N.pl3     1 FAD401      0.0000 
     19 N1A        52.7050  -47.5770   33.6820 N.ar      1 FAD401      0.0000 
     20 C2A        52.6030  -47.4990   32.3460 C.ar      1 FAD401      0.0000 
     21 N3A        51.5100  -47.8870   31.6800 N.ar      1 FAD401      0.0000 
     22 C4A        50.4400  -48.3860   32.3250 C.ar      1 FAD401      0.0000 
     23 N1         34.5600  -52.7450   23.9000 N.2       1 FAD401      0.0000 
     24 C2         33.6960  -52.2910   22.9530 C.2       1 FAD401      0.0000 
     25 O2         33.3400  -51.0920   22.9840 O.2       1 FAD401      0.0000 
     26 N3         33.2300  -53.0850   21.9730 N.am      1 FAD401      0.0000 
     27 C4         33.6050  -54.3670   21.8690 C.2       1 FAD401      0.0000 
     28 O4         33.1590  -55.0520   20.9260 O.2       1 FAD401      0.0000 
     29 C4X        34.5470  -54.9140   22.8950 C.2       1 FAD401      0.0000 
     30 N5         34.9440  -56.1920   22.9020 N.2       1 FAD401      0.0000 
     31 C5X        35.7940  -56.6610   23.8470 C.ar      1 FAD401      0.0000 
     32 C6         36.1640  -57.9990   23.7800 C.ar      1 FAD401      0.0000 
     33 C7         37.0330  -58.5230   24.7170 C.ar      1 FAD401      0.0000 
     34 C7M        37.4160  -59.9720   24.6180 C.3       1 FAD401      0.0000 
     35 C8         37.5710  -57.6580   25.7950 C.ar      1 FAD401      0.0000 
     36 C8M        38.5250  -58.2240   26.8130 C.3       1 FAD401      0.0000 
     37 C9         37.1990  -56.3290   25.8780 C.ar      1 FAD401      0.0000 
     38 C9A        36.3280  -55.7850   24.9370 C.ar      1 FAD401      0.0000 
     39 N10        35.9230  -54.4500   24.9470 N.pl3     1 FAD401      0.0000 
     40 C10        35.0270  -54.0070   23.9530 C.2       1 FAD401      0.0000 
     41 C1'        36.3910  -53.5340   25.9920 C.3       1 FAD401      0.0000 
     42 C2'        37.7150  -52.8150   25.6560 C.3       1 FAD401      0.0000 
     43 O2'        38.7910  -53.6670   25.2070 O.3       1 FAD401      0.0000 
     44 C3'        38.2040  -52.0180   26.8710 C.3       1 FAD401      0.0000 
     45 O3'        37.0750  -51.4710   27.5750 O.3       1 FAD401      0.0000 
     46 C4'        39.1570  -50.8840   26.4530 C.3       1 FAD401      0.0000 
     47 O4'        39.9650  -51.3150   25.3330 O.3       1 FAD401      0.0000 
     48 C5'        40.0400  -50.3700   27.6070 C.3       1 FAD401      0.0000 
     49 O5'        40.9060  -49.3520   27.1110 O.3       1 FAD401      0.0000 
     50 P          42.0220  -48.6450   28.0130 P.3       1 FAD401      0.0000 
     51 O1P        41.3700  -48.1660   29.3060 O.co2     1 FAD401      0.0000 
     52 O2P        42.8930  -47.6310   27.2570 O.co2     1 FAD401      0.0000 
     53 O3P        42.8700  -49.9670   28.4560 O.3       1 FAD401      0.0000 
@<TRIPOS>BOND
     1    1    2 ar   
     2    1    3 ar   
     3    1    4 1    
     4    1   53 1    
     5    4    5 1    
     6    5    6 1    
     7    6    7 1    
     8    6    8 1    
     9    7   12 1    
    10    8    9 1    
    11    8   10 1    
    12   10   11 1    
    13   10   12 1    
    14   12   13 1    
    15   13   14 1    
    16   13   22 1    
    17   14   15 2    
    18   15   16 1    
    19   16   17 ar   
    20   16   22 ar   
    21   17   18 1    
    22   17   19 ar   
    23   19   20 ar   
    24   20   21 ar   
    25   21   22 ar   
    26   23   24 1    
    27   23   40 2    
    28   24   25 2    
    29   24   26 am   
    30   26   27 am   
    31   27   28 2    
    32   27   29 1    
    33   29   30 2    
    34   29   40 1    
    35   30   31 1    
    36   31   32 ar   
    37   31   38 ar   
    38   32   33 ar   
    39   33   34 1    
    40   33   35 ar   
    41   35   36 1    
    42   35   37 ar   
    43   37   38 ar   
    44   38   39 1    
    45   39   40 1    
    46   39   41 1    
    47   41   42 1    
    48   42   43 1    
    49   42   44 1    
    50   44   45 1    
    51   44   46 1    
    52   46   47 1    
    53   46   48 1    
    54   48   49 1    
    55   49   50 1    
    56   50   51 ar   
    57   50   52 ar   
    58   50   53 1    
@<TRIPOS>SUBSTRUCTURE
     1 FAD401      1 GROUP   
@<TRIPOS>SET
ATOM$ORANGE STATIC     ATOMS   COLORGROUP SYSTEM 
54 5 5 6 6 8 8 10 10 12 12 14 14 16 16 17 17 20 \
20 22 22 24 24 27 27 29 29 31 31 32 32 33 33 34 34 35 \
35 36 36 37 37 38 38 40 40 41 41 42 42 44 44 46 46 48 \
48 

