#    Name: 5wwv_5_FAD
#    Modification time : Fri May 22 19:13:47 2020

@<TRIPOS>MOLECULE
5wwv_5_FAD
   53    58     1     0     1
SMALL
NO_CHARGES


@<TRIPOS>ATOM
      1 PA         30.6030  -81.8800   46.8650 P.3       1 FAD401      0.0000 
      2 O1A        30.3410  -81.5210   48.3080 O.co2     1 FAD401      0.0000 
      3 O2A        31.7060  -81.1810   46.1030 O.co2     1 FAD401      0.0000 
      4 O5B        30.9650  -83.4090   46.7710 O.3       1 FAD401      0.0000 
      5 C5B        31.1980  -83.9040   45.4680 C.3       1 FAD401      0.0000 
      6 C4B        31.5130  -85.3730   45.6180 C.3       1 FAD401      0.0000 
      7 O4B        31.4920  -86.0070   44.3300 O.3       1 FAD401      0.0000 
      8 C3B        32.9010  -85.5530   46.1870 C.3       1 FAD401      0.0000 
      9 O3B        32.8740  -86.6650   47.1040 O.3       1 FAD401      0.0000 
     10 C2B        33.6750  -85.7230   44.8810 C.3       1 FAD401      0.0000 
     11 O2B        35.0110  -86.1970   45.0190 O.3       1 FAD401      0.0000 
     12 C1B        32.7380  -86.6590   44.1410 C.3       1 FAD401      0.0000 
     13 N9A        33.0700  -86.9010   42.7140 N.pl3     1 FAD401      0.0000 
     14 C8A        33.0020  -86.0420   41.6840 C.2       1 FAD401      0.0000 
     15 N7A        33.3750  -86.6380   40.5230 N.2       1 FAD401      0.0000 
     16 C5A        33.6880  -87.8940   40.8480 C.ar      1 FAD401      0.0000 
     17 C6A        34.1790  -89.0680   40.1230 C.ar      1 FAD401      0.0000 
     18 N6A        34.3830  -88.9250   38.7860 N.pl3     1 FAD401      0.0000 
     19 N1A        34.3890  -90.2290   40.8200 N.ar      1 FAD401      0.0000 
     20 C2A        34.1760  -90.3260   42.1490 C.ar      1 FAD401      0.0000 
     21 N3A        33.7280  -89.2790   42.8620 N.ar      1 FAD401      0.0000 
     22 C4A        33.4820  -88.0750   42.2760 C.ar      1 FAD401      0.0000 
     23 N1         25.3400  -73.9800   50.7000 N.2       1 FAD401      0.0000 
     24 C2         24.4460  -73.7110   51.6940 C.2       1 FAD401      0.0000 
     25 O2         23.3480  -74.3200   51.6820 O.2       1 FAD401      0.0000 
     26 N3         24.7270  -72.8440   52.6920 N.am      1 FAD401      0.0000 
     27 C4         25.9020  -72.2130   52.7530 C.2       1 FAD401      0.0000 
     28 O4         26.1030  -71.4450   53.7030 O.2       1 FAD401      0.0000 
     29 C4X        26.9140  -72.4350   51.6800 C.2       1 FAD401      0.0000 
     30 N5         28.1200  -71.8250   51.6430 N.2       1 FAD401      0.0000 
     31 C5X        29.0140  -72.0730   50.6350 C.ar      1 FAD401      0.0000 
     32 C6         30.2550  -71.4170   50.6410 C.ar      1 FAD401      0.0000 
     33 C7         31.2040  -71.6420   49.6260 C.ar      1 FAD401      0.0000 
     34 C7M        32.5390  -70.9210   49.6210 C.3       1 FAD401      0.0000 
     35 C8         30.8840  -72.5970   48.5320 C.ar      1 FAD401      0.0000 
     36 C8M        31.9240  -72.8330   47.4570 C.3       1 FAD401      0.0000 
     37 C9         29.6590  -73.2690   48.5200 C.ar      1 FAD401      0.0000 
     38 C9A        28.7030  -73.0420   49.5220 C.ar      1 FAD401      0.0000 
     39 N10        27.4500  -73.6970   49.5710 N.pl3     1 FAD401      0.0000 
     40 C10        26.5600  -73.4040   50.6270 C.2       1 FAD401      0.0000 
     41 C1'        27.0160  -74.6420   48.5390 C.3       1 FAD401      0.0000 
     42 C2'        27.3830  -76.0600   48.9060 C.3       1 FAD401      0.0000 
     43 O2'        28.7330  -76.0320   49.3380 O.3       1 FAD401      0.0000 
     44 C3'        27.3090  -77.0230   47.7100 C.3       1 FAD401      0.0000 
     45 O3'        26.1470  -76.7800   46.9180 O.3       1 FAD401      0.0000 
     46 C4'        27.2920  -78.4740   48.1620 C.3       1 FAD401      0.0000 
     47 O4'        28.3900  -78.7120   49.0430 O.3       1 FAD401      0.0000 
     48 C5'        27.4260  -79.4340   47.0060 C.3       1 FAD401      0.0000 
     49 O5'        27.4360  -80.7530   47.5340 O.3       1 FAD401      0.0000 
     50 P          27.7010  -81.9510   46.5070 P.3       1 FAD401      0.0000 
     51 O1P        26.8160  -81.7060   45.2650 O.co2     1 FAD401      0.0000 
     52 O2P        27.5630  -83.2520   47.2840 O.co2     1 FAD401      0.0000 
     53 O3P        29.2430  -81.7650   45.9970 O.3       1 FAD401      0.0000 
@<TRIPOS>BOND
     1    1    2 ar   
     2    1    3 ar   
     3    1    4 1    
     4    1   53 1    
     5    4    5 1    
     6    5    6 1    
     7    6    7 1    
     8    6    8 1    
     9    7   12 1    
    10    8    9 1    
    11    8   10 1    
    12   10   11 1    
    13   10   12 1    
    14   12   13 1    
    15   13   14 1    
    16   13   22 1    
    17   14   15 2    
    18   15   16 1    
    19   16   17 ar   
    20   16   22 ar   
    21   17   18 1    
    22   17   19 ar   
    23   19   20 ar   
    24   20   21 ar   
    25   21   22 ar   
    26   23   24 1    
    27   23   40 2    
    28   24   25 2    
    29   24   26 am   
    30   26   27 am   
    31   27   28 2    
    32   27   29 1    
    33   29   30 2    
    34   29   40 1    
    35   30   31 1    
    36   31   32 ar   
    37   31   38 ar   
    38   32   33 ar   
    39   33   34 1    
    40   33   35 ar   
    41   35   36 1    
    42   35   37 ar   
    43   37   38 ar   
    44   38   39 1    
    45   39   40 1    
    46   39   41 1    
    47   41   42 1    
    48   42   43 1    
    49   42   44 1    
    50   44   45 1    
    51   44   46 1    
    52   46   47 1    
    53   46   48 1    
    54   48   49 1    
    55   49   50 1    
    56   50   51 ar   
    57   50   52 ar   
    58   50   53 1    
@<TRIPOS>SUBSTRUCTURE
     1 FAD401      1 GROUP   
@<TRIPOS>SET
ATOM$ORANGE STATIC     ATOMS   COLORGROUP SYSTEM 
54 5 5 6 6 8 8 10 10 12 12 14 14 16 16 17 17 20 \
20 22 22 24 24 27 27 29 29 31 31 32 32 33 33 34 34 35 \
35 36 36 37 37 38 38 40 40 41 41 42 42 44 44 46 46 48 \
48 

