#    Name: 5wwv_1_FAD
#    Modification time : Fri May 22 19:13:13 2020

@<TRIPOS>MOLECULE
5wwv_1_FAD
   53    58     1     0     1
SMALL
NO_CHARGES


@<TRIPOS>ATOM
      1 PA         -8.6430  -18.1330   18.8380 P.3       1 FAD401      0.0000 
      2 O1A        -8.4630  -17.5210   17.4930 O.co2     1 FAD401      0.0000 
      3 O2A        -7.5490  -18.0630   19.8860 O.co2     1 FAD401      0.0000 
      4 O5B        -9.9750  -17.4600   19.3600 O.3       1 FAD401      0.0000 
      5 C5B       -10.4960  -17.8660   20.6270 C.3       1 FAD401      0.0000 
      6 C4B       -11.4940  -16.8360   21.1250 C.3       1 FAD401      0.0000 
      7 O4B       -12.1070  -17.2640   22.3260 O.3       1 FAD401      0.0000 
      8 C3B       -10.8340  -15.5040   21.4430 C.3       1 FAD401      0.0000 
      9 O3B       -11.6780  -14.4460   20.9760 O.3       1 FAD401      0.0000 
     10 C2B       -10.7500  -15.4710   22.9360 C.3       1 FAD401      0.0000 
     11 O2B       -10.7520  -14.1410   23.4450 O.3       1 FAD401      0.0000 
     12 C1B       -12.0280  -16.2030   23.2840 C.3       1 FAD401      0.0000 
     13 N9A       -12.0640  -16.7090   24.6830 N.pl3     1 FAD401      0.0000 
     14 C8A       -11.3490  -17.7250   25.1990 C.2       1 FAD401      0.0000 
     15 N7A       -11.6310  -17.9210   26.4990 N.2       1 FAD401      0.0000 
     16 C5A       -12.5380  -17.0120   26.8210 C.ar      1 FAD401      0.0000 
     17 C6A       -13.2640  -16.6720   28.0500 C.ar      1 FAD401      0.0000 
     18 N6A       -13.0410  -17.3790   29.1960 N.pl3     1 FAD401      0.0000 
     19 N1A       -14.1300  -15.6280   27.9560 N.ar      1 FAD401      0.0000 
     20 C2A       -14.3330  -14.9300   26.8090 C.ar      1 FAD401      0.0000 
     21 N3A       -13.7110  -15.2100   25.6530 N.ar      1 FAD401      0.0000 
     22 C4A       -12.8250  -16.2170   25.6210 C.ar      1 FAD401      0.0000 
     23 N1         -4.1690  -22.8620   11.0580 N.2       1 FAD401      0.0000 
     24 C2         -4.3110  -23.0060    9.7030 C.2       1 FAD401      0.0000 
     25 O2         -5.3580  -23.5380    9.2410 O.2       1 FAD401      0.0000 
     26 N3         -3.3420  -22.6070    8.8450 N.am      1 FAD401      0.0000 
     27 C4         -2.2000  -22.0470    9.2740 C.2       1 FAD401      0.0000 
     28 O4         -1.3360  -21.6780    8.4660 O.2       1 FAD401      0.0000 
     29 C4X        -1.9930  -21.8770   10.7220 C.2       1 FAD401      0.0000 
     30 N5         -0.8790  -21.3400   11.2110 N.2       1 FAD401      0.0000 
     31 C5X        -0.6960  -21.1950   12.5560 C.ar      1 FAD401      0.0000 
     32 C6          0.5010  -20.6330   12.9950 C.ar      1 FAD401      0.0000 
     33 C7          0.7600  -20.4420   14.3350 C.ar      1 FAD401      0.0000 
     34 C7M         2.0620  -19.8270   14.7520 C.3       1 FAD401      0.0000 
     35 C8         -0.2620  -20.8360   15.3250 C.ar      1 FAD401      0.0000 
     36 C8M         0.0260  -20.6280   16.8060 C.3       1 FAD401      0.0000 
     37 C9         -1.4650  -21.3890   14.8950 C.ar      1 FAD401      0.0000 
     38 C9A        -1.7240  -21.6000   13.5450 C.ar      1 FAD401      0.0000 
     39 N10        -2.9140  -22.1820   13.0310 N.pl3     1 FAD401      0.0000 
     40 C10        -3.0640  -22.3310   11.6290 C.2       1 FAD401      0.0000 
     41 C1'        -4.0110  -22.6300   13.9070 C.3       1 FAD401      0.0000 
     42 C2'        -5.1160  -21.5800   14.1360 C.3       1 FAD401      0.0000 
     43 O2'        -4.5400  -20.3380   14.5640 O.3       1 FAD401      0.0000 
     44 C3'        -6.1100  -22.0300   15.2030 C.3       1 FAD401      0.0000 
     45 O3'        -6.5870  -23.3350   14.9080 O.3       1 FAD401      0.0000 
     46 C4'        -7.3010  -21.1110   15.2350 C.3       1 FAD401      0.0000 
     47 O4'        -6.8400  -19.7880   15.4730 O.3       1 FAD401      0.0000 
     48 C5'        -8.2850  -21.4870   16.3260 C.3       1 FAD401      0.0000 
     49 O5'        -9.3560  -20.5470   16.3380 O.3       1 FAD401      0.0000 
     50 P         -10.1480  -20.3020   17.6930 P.3       1 FAD401      0.0000 
     51 O1P       -10.3170  -21.7370   18.1810 O.co2     1 FAD401      0.0000 
     52 O2P       -11.3670  -19.3570   17.5070 O.co2     1 FAD401      0.0000 
     53 O3P        -8.9800  -19.6960   18.6400 O.3       1 FAD401      0.0000 
@<TRIPOS>BOND
     1    1    2 ar   
     2    1    3 ar   
     3    1    4 1    
     4    1   53 1    
     5    4    5 1    
     6    5    6 1    
     7    6    7 1    
     8    6    8 1    
     9    7   12 1    
    10    8    9 1    
    11    8   10 1    
    12   10   11 1    
    13   10   12 1    
    14   12   13 1    
    15   13   14 1    
    16   13   22 1    
    17   14   15 2    
    18   15   16 1    
    19   16   17 ar   
    20   16   22 ar   
    21   17   18 1    
    22   17   19 ar   
    23   19   20 ar   
    24   20   21 ar   
    25   21   22 ar   
    26   23   24 1    
    27   23   40 2    
    28   24   25 2    
    29   24   26 am   
    30   26   27 am   
    31   27   28 2    
    32   27   29 1    
    33   29   30 2    
    34   29   40 1    
    35   30   31 1    
    36   31   32 ar   
    37   31   38 ar   
    38   32   33 ar   
    39   33   34 1    
    40   33   35 ar   
    41   35   36 1    
    42   35   37 ar   
    43   37   38 ar   
    44   38   39 1    
    45   39   40 1    
    46   39   41 1    
    47   41   42 1    
    48   42   43 1    
    49   42   44 1    
    50   44   45 1    
    51   44   46 1    
    52   46   47 1    
    53   46   48 1    
    54   48   49 1    
    55   49   50 1    
    56   50   51 ar   
    57   50   52 ar   
    58   50   53 1    
@<TRIPOS>SUBSTRUCTURE
     1 FAD401      1 GROUP   
@<TRIPOS>SET
ATOM$ORANGE STATIC     ATOMS   COLORGROUP SYSTEM 
54 5 5 6 6 8 8 10 10 12 12 14 14 16 16 17 17 20 \
20 22 22 24 24 27 27 29 29 31 31 32 32 33 33 34 34 35 \
35 36 36 37 37 38 38 40 40 41 41 42 42 44 44 46 46 48 \
48 

