#    Name: 5wwv_8_FAD
#    Modification time : Fri May 22 19:14:11 2020

@<TRIPOS>MOLECULE
5wwv_8_FAD
   53    58     1     0     1
SMALL
NO_CHARGES


@<TRIPOS>ATOM
      1 PA         70.0390    8.2840   55.8520 P.3       1 FAD401      0.0000 
      2 O1A        70.5000    8.1510   54.4320 O.co2     1 FAD401      0.0000 
      3 O2A        70.3210    7.1990   56.8460 O.co2     1 FAD401      0.0000 
      4 O5B        70.7720    9.5780   56.3850 O.3       1 FAD401      0.0000 
      5 C5B        70.5000   10.0130   57.7120 C.3       1 FAD401      0.0000 
      6 C4B        71.5450   11.0750   57.9840 C.3       1 FAD401      0.0000 
      7 O4B        71.3030   11.7290   59.2220 O.3       1 FAD401      0.0000 
      8 C3B        72.9620   10.4970   58.0320 C.3       1 FAD401      0.0000 
      9 O3B        73.7510   11.1260   57.0230 O.3       1 FAD401      0.0000 
     10 C2B        73.4770   10.8070   59.4240 C.3       1 FAD401      0.0000 
     11 O2B        74.8310   11.2570   59.4600 O.3       1 FAD401      0.0000 
     12 C1B        72.5760   11.9400   59.8330 C.3       1 FAD401      0.0000 
     13 N9A        72.4030   12.0190   61.2800 N.pl3     1 FAD401      0.0000 
     14 C8A        71.5140   11.3490   62.0360 C.2       1 FAD401      0.0000 
     15 N7A        71.6280   11.7080   63.3360 N.2       1 FAD401      0.0000 
     16 C5A        72.6030   12.6250   63.3880 C.ar      1 FAD401      0.0000 
     17 C6A        73.2530   13.4090   64.4390 C.ar      1 FAD401      0.0000 
     18 N6A        72.8210   13.2540   65.6870 N.pl3     1 FAD401      0.0000 
     19 N1A        74.2650   14.2510   64.1110 N.ar      1 FAD401      0.0000 
     20 C2A        74.6780   14.3930   62.8240 C.ar      1 FAD401      0.0000 
     21 N3A        74.1290   13.6990   61.7970 N.ar      1 FAD401      0.0000 
     22 C4A        73.1120   12.8280   62.0290 C.ar      1 FAD401      0.0000 
     23 N1         64.1920    3.5520   48.9560 N.2       1 FAD401      0.0000 
     24 C2         63.8430    3.6240   47.6360 C.2       1 FAD401      0.0000 
     25 O2         63.2280    4.6280   47.2080 O.2       1 FAD401      0.0000 
     26 N3         64.1500    2.6580   46.7530 N.am      1 FAD401      0.0000 
     27 C4         64.8280    1.5620   47.1170 C.2       1 FAD401      0.0000 
     28 O4         65.1210    0.6800   46.2890 O.2       1 FAD401      0.0000 
     29 C4X        65.2200    1.4210   48.5270 C.2       1 FAD401      0.0000 
     30 N5         65.8830    0.3540   48.9480 N.2       1 FAD401      0.0000 
     31 C5X        66.2450    0.1870   50.2250 C.ar      1 FAD401      0.0000 
     32 C6         66.9050   -0.9620   50.5550 C.ar      1 FAD401      0.0000 
     33 C7         67.3030   -1.2100   51.8380 C.ar      1 FAD401      0.0000 
     34 C7M        68.0420   -2.4900   52.1510 C.3       1 FAD401      0.0000 
     35 C8         67.0180   -0.2300   52.8900 C.ar      1 FAD401      0.0000 
     36 C8M        67.4850   -0.5240   54.2990 C.3       1 FAD401      0.0000 
     37 C9         66.3500    0.9400   52.5650 C.ar      1 FAD401      0.0000 
     38 C9A        65.9400    1.1980   51.2540 C.ar      1 FAD401      0.0000 
     39 N10        65.2470    2.3720   50.8310 N.pl3     1 FAD401      0.0000 
     40 C10        64.8720    2.4980   49.4650 C.2       1 FAD401      0.0000 
     41 C1'        64.8790    3.4250   51.7850 C.3       1 FAD401      0.0000 
     42 C2'        65.9750    4.4700   51.8520 C.3       1 FAD401      0.0000 
     43 O2'        67.2420    3.8040   51.8930 O.3       1 FAD401      0.0000 
     44 C3'        65.8120    5.3670   53.0820 C.3       1 FAD401      0.0000 
     45 O3'        64.4210    5.6430   53.2490 O.3       1 FAD401      0.0000 
     46 C4'        66.6200    6.6620   52.9540 C.3       1 FAD401      0.0000 
     47 O4'        68.0070    6.3440   53.0240 O.3       1 FAD401      0.0000 
     48 C5'        66.3760    7.6790   54.0540 C.3       1 FAD401      0.0000 
     49 O5'        67.2110    8.8320   53.8540 O.3       1 FAD401      0.0000 
     50 P          67.6080    9.7230   55.1240 P.3       1 FAD401      0.0000 
     51 O1P        66.2870    9.9780   55.8490 O.co2     1 FAD401      0.0000 
     52 O2P        68.4680   10.9320   54.7510 O.co2     1 FAD401      0.0000 
     53 O3P        68.4590    8.6210   55.9840 O.3       1 FAD401      0.0000 
@<TRIPOS>BOND
     1    1    2 ar   
     2    1    3 ar   
     3    1    4 1    
     4    1   53 1    
     5    4    5 1    
     6    5    6 1    
     7    6    7 1    
     8    6    8 1    
     9    7   12 1    
    10    8    9 1    
    11    8   10 1    
    12   10   11 1    
    13   10   12 1    
    14   12   13 1    
    15   13   14 1    
    16   13   22 1    
    17   14   15 2    
    18   15   16 1    
    19   16   17 ar   
    20   16   22 ar   
    21   17   18 1    
    22   17   19 ar   
    23   19   20 ar   
    24   20   21 ar   
    25   21   22 ar   
    26   23   24 1    
    27   23   40 2    
    28   24   25 2    
    29   24   26 am   
    30   26   27 am   
    31   27   28 2    
    32   27   29 1    
    33   29   30 2    
    34   29   40 1    
    35   30   31 1    
    36   31   32 ar   
    37   31   38 ar   
    38   32   33 ar   
    39   33   34 1    
    40   33   35 ar   
    41   35   36 1    
    42   35   37 ar   
    43   37   38 ar   
    44   38   39 1    
    45   39   40 1    
    46   39   41 1    
    47   41   42 1    
    48   42   43 1    
    49   42   44 1    
    50   44   45 1    
    51   44   46 1    
    52   46   47 1    
    53   46   48 1    
    54   48   49 1    
    55   49   50 1    
    56   50   51 ar   
    57   50   52 ar   
    58   50   53 1    
@<TRIPOS>SUBSTRUCTURE
     1 FAD401      1 GROUP   
@<TRIPOS>SET
ATOM$ORANGE STATIC     ATOMS   COLORGROUP SYSTEM 
54 5 5 6 6 8 8 10 10 12 12 14 14 16 16 17 17 20 \
20 22 22 24 24 27 27 29 29 31 31 32 32 33 33 34 34 35 \
35 36 36 37 37 38 38 40 40 41 41 42 42 44 44 46 46 48 \
48 

