#    Name: 5wwv_3_FAD
#    Modification time : Fri May 22 19:13:30 2020

@<TRIPOS>MOLECULE
5wwv_3_FAD
   53    58     1     0     1
SMALL
NO_CHARGES


@<TRIPOS>ATOM
      1 PA         25.7110  -70.6250  -18.3340 P.3       1 FAD401      0.0000 
      2 O1A        26.1100  -70.6760  -16.8900 O.co2     1 FAD401      0.0000 
      3 O2A        26.4830  -69.7030  -19.2570 O.co2     1 FAD401      0.0000 
      4 O5B        25.9220  -72.0910  -18.8810 O.3       1 FAD401      0.0000 
      5 C5B        25.4990  -72.4590  -20.1840 C.3       1 FAD401      0.0000 
      6 C4B        26.0130  -73.8790  -20.3620 C.3       1 FAD401      0.0000 
      7 O4B        25.5430  -74.4500  -21.5880 O.3       1 FAD401      0.0000 
      8 C3B        27.5510  -73.9770  -20.3870 C.3       1 FAD401      0.0000 
      9 O3B        28.0460  -75.1550  -19.6810 O.3       1 FAD401      0.0000 
     10 C2B        27.8710  -74.0960  -21.8540 C.3       1 FAD401      0.0000 
     11 O2B        29.1340  -74.7320  -22.0200 O.3       1 FAD401      0.0000 
     12 C1B        26.6920  -74.9610  -22.2830 C.3       1 FAD401      0.0000 
     13 N9A        26.4100  -74.9420  -23.7120 N.pl3     1 FAD401      0.0000 
     14 C8A        25.7850  -73.9820  -24.3870 C.2       1 FAD401      0.0000 
     15 N7A        25.6620  -74.2860  -25.6910 N.2       1 FAD401      0.0000 
     16 C5A        26.2230  -75.4630  -25.8230 C.ar      1 FAD401      0.0000 
     17 C6A        26.4320  -76.3570  -26.9380 C.ar      1 FAD401      0.0000 
     18 N6A        25.9970  -75.9880  -28.1560 N.pl3     1 FAD401      0.0000 
     19 N1A        27.0510  -77.5180  -26.6930 N.ar      1 FAD401      0.0000 
     20 C2A        27.4730  -77.8590  -25.4530 C.ar      1 FAD401      0.0000 
     21 N3A        27.3070  -77.0760  -24.3720 N.ar      1 FAD401      0.0000 
     22 C4A        26.7000  -75.8940  -24.5220 C.ar      1 FAD401      0.0000 
     23 N1         22.0960  -63.9740  -11.6610 N.2       1 FAD401      0.0000 
     24 C2         21.7170  -63.9700  -10.3510 C.2       1 FAD401      0.0000 
     25 O2         20.7210  -64.6240   -9.9640 O.2       1 FAD401      0.0000 
     26 N3         22.3800  -63.2910   -9.4170 N.am      1 FAD401      0.0000 
     27 C4         23.4660  -62.5740   -9.7380 C.2       1 FAD401      0.0000 
     28 O4         24.1300  -61.9280   -8.9000 O.2       1 FAD401      0.0000 
     29 C4X        23.9290  -62.5270  -11.1200 C.2       1 FAD401      0.0000 
     30 N5         25.0140  -61.8010  -11.4490 N.2       1 FAD401      0.0000 
     31 C5X        25.4580  -61.7200  -12.7320 C.ar      1 FAD401      0.0000 
     32 C6         26.5750  -60.9310  -13.0460 C.ar      1 FAD401      0.0000 
     33 C7         27.0330  -60.8480  -14.3700 C.ar      1 FAD401      0.0000 
     34 C7M        28.2410  -60.0160  -14.7000 C.3       1 FAD401      0.0000 
     35 C8         26.3450  -61.6060  -15.4620 C.ar      1 FAD401      0.0000 
     36 C8M        26.8440  -61.5340  -16.8950 C.3       1 FAD401      0.0000 
     37 C9         25.2310  -62.3920  -15.1470 C.ar      1 FAD401      0.0000 
     38 C9A        24.7430  -62.4830  -13.8190 C.ar      1 FAD401      0.0000 
     39 N10        23.6120  -63.2590  -13.4430 N.pl3     1 FAD401      0.0000 
     40 C10        23.1730  -63.2950  -12.1020 C.2       1 FAD401      0.0000 
     41 C1'        22.8920  -64.0190  -14.4430 C.3       1 FAD401      0.0000 
     42 C2'        23.4280  -65.4380  -14.3850 C.3       1 FAD401      0.0000 
     43 O2'        24.8590  -65.4370  -14.4630 O.3       1 FAD401      0.0000 
     44 C3'        22.8080  -66.2500  -15.5320 C.3       1 FAD401      0.0000 
     45 O3'        21.3740  -66.0320  -15.6240 O.3       1 FAD401      0.0000 
     46 C4'        23.0970  -67.7420  -15.3610 C.3       1 FAD401      0.0000 
     47 O4'        24.5050  -67.8860  -15.1240 O.3       1 FAD401      0.0000 
     48 C5'        22.6220  -68.5490  -16.5690 C.3       1 FAD401      0.0000 
     49 O5'        22.9530  -69.9160  -16.3810 O.3       1 FAD401      0.0000 
     50 P          22.9080  -70.8700  -17.6510 P.3       1 FAD401      0.0000 
     51 O1P        21.6040  -70.5410  -18.3750 O.co2     1 FAD401      0.0000 
     52 O2P        23.1330  -72.2930  -17.2020 O.co2     1 FAD401      0.0000 
     53 O3P        24.1270  -70.3820  -18.5930 O.3       1 FAD401      0.0000 
@<TRIPOS>BOND
     1    1    2 ar   
     2    1    3 ar   
     3    1    4 1    
     4    1   53 1    
     5    4    5 1    
     6    5    6 1    
     7    6    7 1    
     8    6    8 1    
     9    7   12 1    
    10    8    9 1    
    11    8   10 1    
    12   10   11 1    
    13   10   12 1    
    14   12   13 1    
    15   13   14 1    
    16   13   22 1    
    17   14   15 2    
    18   15   16 1    
    19   16   17 ar   
    20   16   22 ar   
    21   17   18 1    
    22   17   19 ar   
    23   19   20 ar   
    24   20   21 ar   
    25   21   22 ar   
    26   23   24 1    
    27   23   40 2    
    28   24   25 2    
    29   24   26 am   
    30   26   27 am   
    31   27   28 2    
    32   27   29 1    
    33   29   30 2    
    34   29   40 1    
    35   30   31 1    
    36   31   32 ar   
    37   31   38 ar   
    38   32   33 ar   
    39   33   34 1    
    40   33   35 ar   
    41   35   36 1    
    42   35   37 ar   
    43   37   38 ar   
    44   38   39 1    
    45   39   40 1    
    46   39   41 1    
    47   41   42 1    
    48   42   43 1    
    49   42   44 1    
    50   44   45 1    
    51   44   46 1    
    52   46   47 1    
    53   46   48 1    
    54   48   49 1    
    55   49   50 1    
    56   50   51 ar   
    57   50   52 ar   
    58   50   53 1    
@<TRIPOS>SUBSTRUCTURE
     1 FAD401      1 GROUP   
@<TRIPOS>SET
ATOM$ORANGE STATIC     ATOMS   COLORGROUP SYSTEM 
54 5 5 6 6 8 8 10 10 12 12 14 14 16 16 17 17 20 \
20 22 22 24 24 27 27 29 29 31 31 32 32 33 33 34 34 35 \
35 36 36 37 37 38 38 40 40 41 41 42 42 44 44 46 46 48 \
48 

