#    Name: 5wwv_7_FAD
#    Modification time : Fri May 22 19:14:03 2020

@<TRIPOS>MOLECULE
5wwv_7_FAD
   53    58     1     0     1
SMALL
NO_CHARGES


@<TRIPOS>ATOM
      1 PA         79.2020  -16.7500    9.4460 P.3       1 FAD401      0.0000 
      2 O1A        78.8020  -16.4050   10.8630 O.co2     1 FAD401      0.0000 
      3 O2A        79.7430  -15.7100    8.4720 O.co2     1 FAD401      0.0000 
      4 O5B        80.2240  -17.9710    9.5440 O.3       1 FAD401      0.0000 
      5 C5B        80.5430  -18.6540    8.3350 C.3       1 FAD401      0.0000 
      6 C4B        81.4470  -19.8440    8.5770 C.3       1 FAD401      0.0000 
      7 O4B        81.5590  -20.4900    7.3140 O.3       1 FAD401      0.0000 
      8 C3B        82.8560  -19.4550    9.0160 C.3       1 FAD401      0.0000 
      9 O3B        83.3600  -20.3760    9.9910 O.3       1 FAD401      0.0000 
     10 C2B        83.6450  -19.5460    7.7370 C.3       1 FAD401      0.0000 
     11 O2B        85.0140  -19.8450    7.9560 O.3       1 FAD401      0.0000 
     12 C1B        82.9420  -20.6860    7.0350 C.3       1 FAD401      0.0000 
     13 N9A        83.1930  -20.6790    5.5850 N.pl3     1 FAD401      0.0000 
     14 C8A        82.6130  -19.8580    4.6820 C.2       1 FAD401      0.0000 
     15 N7A        83.0740  -20.1200    3.4340 N.2       1 FAD401      0.0000 
     16 C5A        83.9510  -21.1340    3.5440 C.ar      1 FAD401      0.0000 
     17 C6A        84.8090  -21.8920    2.6010 C.ar      1 FAD401      0.0000 
     18 N6A        84.7680  -21.5770    1.2780 N.pl3     1 FAD401      0.0000 
     19 N1A        85.6040  -22.8780    3.1360 N.ar      1 FAD401      0.0000 
     20 C2A        85.6240  -23.1730    4.4740 C.ar      1 FAD401      0.0000 
     21 N3A        84.8660  -22.5080    5.3820 N.ar      1 FAD401      0.0000 
     22 C4A        84.0330  -21.5040    4.9740 C.ar      1 FAD401      0.0000 
     23 N1         71.4480  -11.4690   13.3000 N.2       1 FAD401      0.0000 
     24 C2         70.5570  -11.6910   14.2810 C.2       1 FAD401      0.0000 
     25 O2         69.8010  -12.6820   14.1380 O.2       1 FAD401      0.0000 
     26 N3         70.5010  -10.9000   15.3720 N.am      1 FAD401      0.0000 
     27 C4         71.3130   -9.8490   15.5200 C.2       1 FAD401      0.0000 
     28 O4         71.1850   -9.1780   16.5450 O.2       1 FAD401      0.0000 
     29 C4X        72.3310   -9.5480   14.4710 C.2       1 FAD401      0.0000 
     30 N5         73.1990   -8.5210   14.5050 N.2       1 FAD401      0.0000 
     31 C5X        74.0820   -8.3010   13.4740 C.ar      1 FAD401      0.0000 
     32 C6         74.9640   -7.2100   13.5380 C.ar      1 FAD401      0.0000 
     33 C7         75.8910   -6.9380   12.5280 C.ar      1 FAD401      0.0000 
     34 C7M        76.7940   -5.7380   12.6950 C.3       1 FAD401      0.0000 
     35 C8         75.9500   -7.8330   11.3430 C.ar      1 FAD401      0.0000 
     36 C8M        76.9350   -7.6050   10.2290 C.3       1 FAD401      0.0000 
     37 C9         75.0770   -8.9070   11.2650 C.ar      1 FAD401      0.0000 
     38 C9A        74.1470   -9.1910   12.2740 C.ar      1 FAD401      0.0000 
     39 N10        73.2460  -10.2810   12.2250 N.pl3     1 FAD401      0.0000 
     40 C10        72.3440  -10.4540   13.3070 C.2       1 FAD401      0.0000 
     41 C1'        73.1830  -11.2750   11.1140 C.3       1 FAD401      0.0000 
     42 C2'        73.8280  -12.6180   11.5310 C.3       1 FAD401      0.0000 
     43 O2'        75.0070  -12.3910   12.2950 O.3       1 FAD401      0.0000 
     44 C3'        74.2460  -13.4870   10.3640 C.3       1 FAD401      0.0000 
     45 O3'        73.1130  -13.7010    9.5410 O.3       1 FAD401      0.0000 
     46 C4'        74.7340  -14.8580   10.8210 C.3       1 FAD401      0.0000 
     47 O4'        75.6190  -14.7940   11.9510 O.3       1 FAD401      0.0000 
     48 C5'        75.4070  -15.5750    9.6560 C.3       1 FAD401      0.0000 
     49 O5'        75.9320  -16.8250   10.1130 O.3       1 FAD401      0.0000 
     50 P          76.4890  -17.9060    9.0590 P.3       1 FAD401      0.0000 
     51 O1P        75.6500  -17.7130    7.7990 O.co2     1 FAD401      0.0000 
     52 O2P        76.6930  -19.2740    9.6940 O.co2     1 FAD401      0.0000 
     53 O3P        77.9670  -17.3920    8.6200 O.3       1 FAD401      0.0000 
@<TRIPOS>BOND
     1    1    2 ar   
     2    1    3 ar   
     3    1    4 1    
     4    1   53 1    
     5    4    5 1    
     6    5    6 1    
     7    6    7 1    
     8    6    8 1    
     9    7   12 1    
    10    8    9 1    
    11    8   10 1    
    12   10   11 1    
    13   10   12 1    
    14   12   13 1    
    15   13   14 1    
    16   13   22 1    
    17   14   15 2    
    18   15   16 1    
    19   16   17 ar   
    20   16   22 ar   
    21   17   18 1    
    22   17   19 ar   
    23   19   20 ar   
    24   20   21 ar   
    25   21   22 ar   
    26   23   24 1    
    27   23   40 2    
    28   24   25 2    
    29   24   26 am   
    30   26   27 am   
    31   27   28 2    
    32   27   29 1    
    33   29   30 2    
    34   29   40 1    
    35   30   31 1    
    36   31   32 ar   
    37   31   38 ar   
    38   32   33 ar   
    39   33   34 1    
    40   33   35 ar   
    41   35   36 1    
    42   35   37 ar   
    43   37   38 ar   
    44   38   39 1    
    45   39   40 1    
    46   39   41 1    
    47   41   42 1    
    48   42   43 1    
    49   42   44 1    
    50   44   45 1    
    51   44   46 1    
    52   46   47 1    
    53   46   48 1    
    54   48   49 1    
    55   49   50 1    
    56   50   51 ar   
    57   50   52 ar   
    58   50   53 1    
@<TRIPOS>SUBSTRUCTURE
     1 FAD401      1 GROUP   
@<TRIPOS>SET
ATOM$ORANGE STATIC     ATOMS   COLORGROUP SYSTEM 
54 5 5 6 6 8 8 10 10 12 12 14 14 16 16 17 17 20 \
20 22 22 24 24 27 27 29 29 31 31 32 32 33 33 34 34 35 \
35 36 36 37 37 38 38 40 40 41 41 42 42 44 44 46 46 48 \
48 

