#    Name: 6oby_2_ADP
#    Modification time : Fri May 22 19:34:44 2020

@<TRIPOS>MOLECULE
6oby_2_ADP
   27    29     1     0     1
SMALL
NO_CHARGES


@<TRIPOS>ATOM
      1 PB         -9.7190  -20.2830   23.6400 P.3       1 ADP301      0.0000 
      2 O1B       -10.6330  -20.1690   22.4670 O.co2     1 ADP301      0.0000 
      3 O2B        -9.7870  -19.1030   24.5880 O.co2     1 ADP301      0.0000 
      4 O3B        -9.8410  -21.6040   24.3460 O.co2     1 ADP301      0.0000 
      5 PA         -7.6360  -21.3900   22.1160 P.3       1 ADP301      0.0000 
      6 O1A        -8.5540  -21.6360   20.9670 O.co2     1 ADP301      0.0000 
      7 O2A        -7.3240  -22.5420   23.0140 O.co2     1 ADP301      0.0000 
      8 O3A        -8.2670  -20.2410   23.0120 O.3       1 ADP301      0.0000 
      9 O5'        -6.2680  -20.6920   21.6320 O.3       1 ADP301      0.0000 
     10 C5'        -6.3160  -19.5700   20.7200 C.3       1 ADP301      0.0000 
     11 C4'        -5.3100  -19.7700   19.6130 C.3       1 ADP301      0.0000 
     12 O4'        -3.9820  -19.4680   20.1090 O.3       1 ADP301      0.0000 
     13 C3'        -5.1780  -21.1840   19.0360 C.3       1 ADP301      0.0000 
     14 O3'        -4.6760  -21.1010   17.7130 O.3       1 ADP301      0.0000 
     15 C2'        -4.1070  -21.7930   19.9420 C.3       1 ADP301      0.0000 
     16 O2'        -3.5170  -22.9820   19.4490 O.3       1 ADP301      0.0000 
     17 C1'        -3.1580  -20.6030   20.0000 C.3       1 ADP301      0.0000 
     18 N9         -2.2950  -20.5960   21.1630 N.pl3     1 ADP301      0.0000 
     19 C8         -2.6990  -20.6770   22.4690 C.2       1 ADP301      0.0000 
     20 N7         -1.7020  -20.6130   23.3120 N.2       1 ADP301      0.0000 
     21 C5         -0.5750  -20.4770   22.5120 C.ar      1 ADP301      0.0000 
     22 C6          0.7930  -20.3460   22.8130 C.ar      1 ADP301      0.0000 
     23 N6          1.2760  -20.3040   24.0510 N.pl3     1 ADP301      0.0000 
     24 N1          1.6480  -20.2150   21.7710 N.ar      1 ADP301      0.0000 
     25 C2          1.1530  -20.2270   20.5270 C.ar      1 ADP301      0.0000 
     26 N3         -0.1080  -20.3430   20.1260 N.ar      1 ADP301      0.0000 
     27 C4         -0.9320  -20.4620   21.1780 C.ar      1 ADP301      0.0000 
@<TRIPOS>BOND
     1    1    2 ar   
     2    1    3 ar   
     3    1    4 ar   
     4    1    8 1    
     5    5    6 ar   
     6    5    7 ar   
     7    5    8 1    
     8    5    9 1    
     9    9   10 1    
    10   10   11 1    
    11   11   12 1    
    12   11   13 1    
    13   12   17 1    
    14   13   14 1    
    15   13   15 1    
    16   15   16 1    
    17   15   17 1    
    18   17   18 1    
    19   18   19 1    
    20   18   27 1    
    21   19   20 2    
    22   20   21 1    
    23   21   22 ar   
    24   21   27 ar   
    25   22   23 1    
    26   22   24 ar   
    27   24   25 ar   
    28   25   26 ar   
    29   26   27 ar   
@<TRIPOS>SUBSTRUCTURE
     1 ADP301      1 GROUP   
@<TRIPOS>SET
ATOM$ORANGE STATIC     ATOMS   COLORGROUP SYSTEM 
20 10 10 11 11 13 13 15 15 17 17 19 19 21 21 22 22 25 \
25 27 27 

