#    Name: 6oby_1_ADP
#    Modification time : Fri May 22 19:34:37 2020

@<TRIPOS>MOLECULE
6oby_1_ADP
   27    29     1     0     1
SMALL
NO_CHARGES


@<TRIPOS>ATOM
      1 PB         -9.7780   -7.4690   16.1420 P.3       1 ADP301      0.0000 
      2 O1B        -9.7090   -8.3910   14.9510 O.co2     1 ADP301      0.0000 
      3 O2B        -9.9410   -6.0290   15.7730 O.co2     1 ADP301      0.0000 
      4 O3B       -10.7870   -7.9040   17.1620 O.co2     1 ADP301      0.0000 
      5 PA         -7.6550   -6.3320   17.6040 P.3       1 ADP301      0.0000 
      6 O1A        -7.3590   -5.2610   16.6070 O.co2     1 ADP301      0.0000 
      7 O2A        -8.5250   -5.9740   18.7620 O.co2     1 ADP301      0.0000 
      8 O3A        -8.3320   -7.5350   16.8110 O.3       1 ADP301      0.0000 
      9 O5'        -6.2790   -7.0050   18.1210 O.3       1 ADP301      0.0000 
     10 C5'        -6.3080   -8.1260   19.0490 C.3       1 ADP301      0.0000 
     11 C4'        -5.2950   -7.9300   20.1530 C.3       1 ADP301      0.0000 
     12 O4'        -3.9650   -8.2360   19.6610 O.3       1 ADP301      0.0000 
     13 C3'        -5.1630   -6.5220   20.7440 C.3       1 ADP301      0.0000 
     14 O3'        -4.7170   -6.5980   22.0900 O.3       1 ADP301      0.0000 
     15 C2'        -4.0600   -5.9110   19.8760 C.3       1 ADP301      0.0000 
     16 O2'        -3.4640   -4.7490   20.4200 O.3       1 ADP301      0.0000 
     17 C1'        -3.1270   -7.1140   19.7930 C.3       1 ADP301      0.0000 
     18 N9         -2.2720   -7.1160   18.6240 N.pl3     1 ADP301      0.0000 
     19 C8         -2.6930   -7.0360   17.3220 C.2       1 ADP301      0.0000 
     20 N7         -1.7080   -7.1000   16.4630 N.2       1 ADP301      0.0000 
     21 C5         -0.5740   -7.2420   17.2490 C.ar      1 ADP301      0.0000 
     22 C6          0.7860   -7.3800   16.9250 C.ar      1 ADP301      0.0000 
     23 N6          1.2380   -7.4250   15.6740 N.pl3     1 ADP301      0.0000 
     24 N1          1.6590   -7.5330   17.9520 N.ar      1 ADP301      0.0000 
     25 C2          1.1880   -7.5090   19.2050 C.ar      1 ADP301      0.0000 
     26 N3         -0.0670   -7.3710   19.6260 N.ar      1 ADP301      0.0000 
     27 C4         -0.9090   -7.2570   18.5880 C.ar      1 ADP301      0.0000 
@<TRIPOS>BOND
     1    1    2 ar   
     2    1    3 ar   
     3    1    4 ar   
     4    1    8 1    
     5    5    6 ar   
     6    5    7 ar   
     7    5    8 1    
     8    5    9 1    
     9    9   10 1    
    10   10   11 1    
    11   11   12 1    
    12   11   13 1    
    13   12   17 1    
    14   13   14 1    
    15   13   15 1    
    16   15   16 1    
    17   15   17 1    
    18   17   18 1    
    19   18   19 1    
    20   18   27 1    
    21   19   20 2    
    22   20   21 1    
    23   21   22 ar   
    24   21   27 ar   
    25   22   23 1    
    26   22   24 ar   
    27   24   25 ar   
    28   25   26 ar   
    29   26   27 ar   
@<TRIPOS>SUBSTRUCTURE
     1 ADP301      1 GROUP   
@<TRIPOS>SET
ATOM$ORANGE STATIC     ATOMS   COLORGROUP SYSTEM 
20 10 10 11 11 13 13 15 15 17 17 19 19 21 21 22 22 25 \
25 27 27 

