#    Name: 6noo_1_ATP_CAVITY_N1_8
#    Modification time : Fri May 22 19:33:39 2020

@<TRIPOS>MOLECULE
6noo_1_ATP_CAVITY_N1_8
   97     0     7     0     0
SMALL
NO_CHARGES


@<TRIPOS>ATOM
      1 OG         21.8900  -73.7200  -42.1500 O.3       1 SER1        0.0000 
      2 OG         22.8500  -73.9200  -43.2900 O.3       1 SER1        0.0000 
      3 OG         22.0100  -71.7900  -40.4200 O.3       1 SER1        0.0000 
      4 OG         22.0900  -73.2500  -40.0900 O.3       1 SER1        0.0000 
      5 OG         23.0500  -73.4500  -41.2300 O.3       1 SER1        0.0000 
      6 OG         24.0000  -73.6500  -42.3700 O.3       1 SER1        0.0000 
      7 OG         24.9500  -73.8600  -43.5100 O.3       1 SER1        0.0000 
      8 OG         24.1200  -71.7200  -40.6400 O.3       1 SER1        0.0000 
      9 OG         24.2000  -73.1900  -40.3100 O.3       1 SER1        0.0000 
     10 O          17.9600  -74.8500  -39.3200 O.2       2 ALA2        0.0000 
     11 O          19.8600  -75.2500  -41.6000 O.2       2 ALA2        0.0000 
     12 O          18.2400  -75.8400  -36.9400 O.2       2 ALA2        0.0000 
     13 O          18.3200  -77.3000  -36.6100 O.2       2 ALA2        0.0000 
     14 O          19.1900  -76.0400  -38.0800 O.2       2 ALA2        0.0000 
     15 N          22.5800  -73.7700  -35.6500 N.am      2 ALA2        0.0000 
     16 O          23.5300  -73.9800  -36.7900 O.2       2 ALA2        0.0000 
     17 OD1        17.0000  -74.6400  -38.1800 O.co2     3 ASP3        0.0000 
     18 OD1        21.8500  -77.1100  -43.5600 O.co2     3 ASP3        0.0000 
     19 OD1        23.6800  -76.0600  -46.1600 O.co2     3 ASP3        0.0000 
     20 OD1        18.1600  -74.3800  -37.2600 O.co2     3 ASP3        0.0000 
     21 OD1        19.0300  -73.1200  -38.7300 O.co2     3 ASP3        0.0000 
     22 OD1        19.1100  -74.5800  -38.4000 O.co2     3 ASP3        0.0000 
     23 OD1        19.9800  -73.3200  -39.8700 O.co2     3 ASP3        0.0000 
     24 OD1        23.0100  -76.8500  -42.6400 O.co2     3 ASP3        0.0000 
     25 OD1        23.9600  -77.0500  -43.7800 O.co2     3 ASP3        0.0000 
     26 OD1        24.9100  -77.2500  -44.9200 O.co2     3 ASP3        0.0000 
     27 OD1        24.9900  -78.7100  -44.5900 O.co2     3 ASP3        0.0000 
     28 OD1        25.9500  -78.9100  -45.7300 O.co2     3 ASP3        0.0000 
     29 OD1        18.3600  -73.9100  -35.2000 O.co2     3 ASP3        0.0000 
     30 OD1        18.4400  -75.3700  -34.8800 O.co2     3 ASP3        0.0000 
     31 OD1        19.3900  -75.5700  -36.0200 O.co2     3 ASP3        0.0000 
     32 OD1        20.3500  -75.7700  -37.1600 O.co2     3 ASP3        0.0000 
     33 OD1        21.1400  -73.0500  -38.9500 O.co2     3 ASP3        0.0000 
     34 OD1        21.2200  -74.5100  -38.6200 O.co2     3 ASP3        0.0000 
     35 OD1        19.5100  -73.6400  -34.2800 O.co2     3 ASP3        0.0000 
     36 OD1        20.5500  -75.3000  -35.1000 O.co2     3 ASP3        0.0000 
     37 OD1        22.2900  -72.7800  -38.0300 O.co2     3 ASP3        0.0000 
     38 OD1        22.3700  -74.2400  -37.7100 O.co2     3 ASP3        0.0000 
     39 OD1        25.3200  -76.3100  -40.8000 O.co2     3 ASP3        0.0000 
     40 OD1        26.2700  -76.5100  -41.9400 O.co2     3 ASP3        0.0000 
     41 NZ         25.8700  -77.4500  -46.0600 N.4       4 LYS4        0.0000 
     42 NZ         27.0200  -77.1800  -45.1400 N.4       4 LYS4        0.0000 
     43 NZ         27.1000  -78.6500  -44.8100 N.4       4 LYS4        0.0000 
     44 NZ         18.6400  -74.9000  -32.8200 N.4       4 LYS4        0.0000 
     45 NZ         19.5900  -75.1000  -33.9600 N.4       4 LYS4        0.0000 
     46 CZ         22.4400  -74.8600  -47.4100 C.ar      5 PHE5        0.0000 
     47 CZ         20.8200  -75.4500  -42.7400 C.ar      5 PHE5        0.0000 
     48 CZ         20.9000  -76.9100  -42.4200 C.ar      5 PHE5        0.0000 
     49 CZ         22.7200  -75.8500  -45.0200 C.ar      5 PHE5        0.0000 
     50 CZ         23.6000  -74.5900  -46.4900 C.ar      5 PHE5        0.0000 
     51 CZ         21.9700  -75.1800  -41.8200 C.ar      5 PHE5        0.0000 
     52 CZ         22.9300  -75.3800  -42.9600 C.ar      5 PHE5        0.0000 
     53 CZ         23.8000  -74.1200  -44.4300 C.ar      5 PHE5        0.0000 
     54 CZ         23.8800  -75.5900  -44.1000 C.ar      5 PHE5        0.0000 
     55 CZ         24.4000  -72.7200  -38.2500 C.ar      5 PHE5        0.0000 
     56 CZ         25.6400  -73.9100  -37.0100 C.ar      5 PHE5        0.0000 
     57 CZ         26.5900  -74.1100  -38.1500 C.ar      5 PHE5        0.0000 
     58 CZ         27.7500  -73.8400  -37.2300 C.ar      5 PHE5        0.0000 
     59 CA         18.9100  -75.0500  -40.4600 C.3       6 GLY6        0.0000 
     60 CA         17.2800  -75.6400  -35.8000 C.3       6 GLY6        0.0000 
     61 CA         17.3600  -77.1000  -35.4700 C.3       6 GLY6        0.0000 
     62 CA         20.0600  -74.7800  -39.5400 C.3       6 GLY6        0.0000 
     63 CA         20.1400  -76.2400  -39.2200 C.3       6 GLY6        0.0000 
     64 CA         20.9400  -73.5200  -41.0100 C.3       6 GLY6        0.0000 
     65 CA         21.0200  -74.9800  -40.6800 C.3       6 GLY6        0.0000 
     66 CA         21.1000  -76.4400  -40.3600 C.3       6 GLY6        0.0000 
     67 CA         24.7500  -74.3300  -45.5700 C.3       6 GLY6        0.0000 
     68 CA         17.4900  -75.1700  -33.7400 C.3       6 GLY6        0.0000 
     69 CA         23.1700  -71.5200  -39.5000 C.3       6 GLY6        0.0000 
     70 CA         25.1600  -73.3900  -41.4500 C.3       6 GLY6        0.0000 
     71 CA         26.1100  -73.5900  -42.5900 C.3       6 GLY6        0.0000 
     72 CA         26.1900  -75.0500  -42.2700 C.3       6 GLY6        0.0000 
     73 CA         27.1400  -75.2500  -43.4100 C.3       6 GLY6        0.0000 
     74 CA         27.2200  -76.7100  -43.0800 C.3       6 GLY6        0.0000 
     75 CA         23.4500  -72.5100  -37.1100 C.3       6 GLY6        0.0000 
     76 CA         25.3600  -72.9200  -39.3900 C.3       6 GLY6        0.0000 
     77 CA         26.3100  -73.1200  -40.5300 C.3       6 GLY6        0.0000 
     78 CA         26.3900  -74.5800  -40.2100 C.3       6 GLY6        0.0000 
     79 CA         27.2600  -73.3200  -41.6700 C.3       6 GLY6        0.0000 
     80 CA         27.5500  -74.3100  -39.2900 C.3       6 GLY6        0.0000 
     81 CA         27.6300  -75.7800  -38.9600 C.3       6 GLY6        0.0000 
     82 DU         22.0500  -76.6500  -41.5000 H         7 CUB7        0.0000 
     83 DU         24.8300  -75.7900  -45.2400 H         7 CUB7        0.0000 
     84 DU         21.3000  -75.9700  -38.3000 H         7 CUB7        0.0000 
     85 DU         22.1700  -74.7100  -39.7600 H         7 CUB7        0.0000 
     86 DU         23.1300  -74.9200  -40.9000 H         7 CUB7        0.0000 
     87 DU         24.0800  -75.1200  -42.0400 H         7 CUB7        0.0000 
     88 DU         24.1600  -76.5800  -41.7200 H         7 CUB7        0.0000 
     89 DU         25.0300  -75.3200  -43.1800 H         7 CUB7        0.0000 
     90 DU         25.1100  -76.7800  -42.8600 H         7 CUB7        0.0000 
     91 DU         26.0700  -76.9800  -44.0000 H         7 CUB7        0.0000 
     92 DU         23.2500  -72.9800  -39.1700 H         7 CUB7        0.0000 
     93 DU         23.3300  -74.4500  -38.8500 H         7 CUB7        0.0000 
     94 DU         24.2800  -74.6500  -39.9900 H         7 CUB7        0.0000 
     95 DU         25.2400  -74.8500  -41.1300 H         7 CUB7        0.0000 
     96 DU         24.4800  -74.1800  -37.9300 H         7 CUB7        0.0000 
     97 DU         25.4400  -74.3800  -39.0700 H         7 CUB7        0.0000 
@<TRIPOS>BOND
@<TRIPOS>SUBSTRUCTURE
     1 SER1        1 GROUP   
     2 ALA2       10 GROUP   
     3 ASP3       17 GROUP   
     4 LYS4       41 GROUP   
     5 PHE5       46 GROUP   
     6 GLY6       59 GROUP   
     7 CUB7       82 GROUP   
@<TRIPOS>SET

