#    Name: 6noo_1_ATP
#    Modification time : Fri May 22 19:33:38 2020

@<TRIPOS>MOLECULE
6noo_1_ATP
   31    33     1     0     1
SMALL
NO_CHARGES


@<TRIPOS>ATOM
      1 PG         17.8040  -74.7040  -36.4490 P.3       1 ATP501      0.0000 
      2 O1G        17.7400  -73.2500  -36.0410 O.co2     1 ATP501      0.0000 
      3 O2G        18.7850  -75.5190  -35.6400 O.co2     1 ATP501      0.0000 
      4 O3G        16.4270  -75.3180  -36.5650 O.co2     1 ATP501      0.0000 
      5 PB         18.2350  -73.6360  -39.1000 P.3       1 ATP501      0.0000 
      6 O1B        16.8300  -73.6950  -39.6840 O.co2     1 ATP501      0.0000 
      7 O2B        18.6430  -72.2960  -38.5260 O.co2     1 ATP501      0.0000 
      8 O3B        18.3950  -74.7890  -37.9660 O.3       1 ATP501      0.0000 
      9 PA         20.8140  -73.6020  -40.3420 P.3       1 ATP501      0.0000 
     10 O1A        20.8730  -72.2770  -41.0760 O.co2     1 ATP501      0.0000 
     11 O2A        21.4140  -73.6600  -38.9480 O.co2     1 ATP501      0.0000 
     12 O3A        19.2820  -74.1230  -40.2450 O.3       1 ATP501      0.0000 
     13 O5'        21.4790  -74.7070  -41.3060 O.3       1 ATP501      0.0000 
     14 C5'        21.5040  -76.1010  -41.0260 C.3       1 ATP501      0.0000 
     15 C4'        22.9190  -76.5920  -41.3250 C.3       1 ATP501      0.0000 
     16 O4'        23.1810  -76.5690  -42.7300 O.3       1 ATP501      0.0000 
     17 C3'        23.9690  -75.7020  -40.6760 C.3       1 ATP501      0.0000 
     18 O3'        24.9150  -76.5470  -40.0330 O.3       1 ATP501      0.0000 
     19 C2'        24.6940  -74.9930  -41.8000 C.3       1 ATP501      0.0000 
     20 O2'        26.0960  -74.9370  -41.5310 O.3       1 ATP501      0.0000 
     21 C1'        24.4190  -75.8900  -42.9900 C.3       1 ATP501      0.0000 
     22 N9         24.1830  -75.1220  -44.2170 N.pl3     1 ATP501      0.0000 
     23 C8         23.8050  -73.8330  -44.3140 C.2       1 ATP501      0.0000 
     24 N7         23.6620  -73.4880  -45.6200 N.2       1 ATP501      0.0000 
     25 C5         23.9520  -74.5780  -46.3660 C.ar      1 ATP501      0.0000 
     26 C6         23.9980  -74.9230  -47.8050 C.ar      1 ATP501      0.0000 
     27 N6         23.6850  -74.0060  -48.7410 N.pl3     1 ATP501      0.0000 
     28 N1         24.3600  -76.1760  -48.1550 N.ar      1 ATP501      0.0000 
     29 C2         24.6610  -77.1050  -47.2270 C.ar      1 ATP501      0.0000 
     30 N3         24.6310  -76.8750  -45.9020 N.ar      1 ATP501      0.0000 
     31 C4         24.2960  -75.6510  -45.4280 C.ar      1 ATP501      0.0000 
@<TRIPOS>BOND
     1    1    2 ar   
     2    1    3 ar   
     3    1    4 ar   
     4    1    8 1    
     5    5    6 ar   
     6    5    7 ar   
     7    5    8 1    
     8    5   12 1    
     9    9   10 ar   
    10    9   11 ar   
    11    9   12 1    
    12    9   13 1    
    13   13   14 1    
    14   14   15 1    
    15   15   16 1    
    16   15   17 1    
    17   16   21 1    
    18   17   18 1    
    19   17   19 1    
    20   19   20 1    
    21   19   21 1    
    22   21   22 1    
    23   22   23 1    
    24   22   31 1    
    25   23   24 2    
    26   24   25 1    
    27   25   26 ar   
    28   25   31 ar   
    29   26   27 1    
    30   26   28 ar   
    31   28   29 ar   
    32   29   30 ar   
    33   30   31 ar   
@<TRIPOS>SUBSTRUCTURE
     1 ATP501      1 GROUP   
@<TRIPOS>SET
ATOM$ORANGE STATIC     ATOMS   COLORGROUP SYSTEM 
20 14 14 15 15 17 17 19 19 21 21 23 23 25 25 26 26 29 \
29 31 31 

