#    Name: 6j7e_1_AGS
#    Modification time : Fri May 22 19:35:03 2020

@<TRIPOS>MOLECULE
6j7e_1_AGS
   31    33     1     0     0
SMALL
NO_CHARGES


@<TRIPOS>ATOM
      1 PG        -76.8160   74.0850    0.7560 P.3       1 AGS401      0.0000 
      2 S1G       -75.1470   73.4340    1.5560 S.2       1 AGS401      0.0000 
      3 O2G       -76.7000   74.1000   -0.8120 O.3       1 AGS401      0.0000 
      4 O3G       -77.1260   75.5330    1.2560 O.3       1 AGS401      0.0000 
      5 PB        -79.4850   73.4330    1.0360 P.3       1 AGS401      0.0000 
      6 O1B       -80.0980   74.0330    2.2330 O.co2     1 AGS401      0.0000 
      7 O2B       -79.7000   74.3080   -0.1970 O.co2     1 AGS401      0.0000 
      8 O3B       -77.9560   73.1470    1.2670 O.3       1 AGS401      0.0000 
      9 PA        -80.5670   71.4020   -0.6380 P.3       1 AGS401      0.0000 
     10 O1A       -82.0330   71.5950   -0.7390 O.co2     1 AGS401      0.0000 
     11 O2A       -79.8120   72.0970   -1.7820 O.co2     1 AGS401      0.0000 
     12 O3A       -80.0740   71.9610    0.7730 O.3       1 AGS401      0.0000 
     13 O5'       -80.1760   69.8430   -0.6850 O.3       1 AGS401      0.0000 
     14 C5'       -80.8640   68.7790    0.0140 C.3       1 AGS401      0.0000 
     15 C4'       -81.0080   67.5860   -0.9100 C.3       1 AGS401      0.0000 
     16 O4'       -82.0410   66.7060   -0.4210 O.3       1 AGS401      0.0000 
     17 C3'       -81.4270   67.9070   -2.3360 C.3       1 AGS401      0.0000 
     18 O3'       -80.9280   66.9200   -3.2300 O.3       1 AGS401      0.0000 
     19 C2'       -82.9620   67.9380   -2.2430 C.3       1 AGS401      0.0000 
     20 O2'       -83.5950   67.4930   -3.4390 O.3       1 AGS401      0.0000 
     21 C1'       -83.2630   66.9670   -1.0920 C.3       1 AGS401      0.0000 
     22 N9        -84.2440   67.4400   -0.1020 N.pl3     1 AGS401      0.0000 
     23 C8        -84.0360   68.3810    0.8750 C.2       1 AGS401      0.0000 
     24 N7        -85.0760   68.5880    1.6470 N.2       1 AGS401      0.0000 
     25 C5        -86.0340   67.7110    1.1550 C.ar      1 AGS401      0.0000 
     26 C6        -87.3610   67.4360    1.5450 C.ar      1 AGS401      0.0000 
     27 N6        -87.9810   68.0400    2.5620 N.pl3     1 AGS401      0.0000 
     28 N1        -88.0420   66.5120    0.8400 N.ar      1 AGS401      0.0000 
     29 C2        -87.4280   65.8970   -0.1750 C.ar      1 AGS401      0.0000 
     30 N3        -86.1860   66.0690   -0.6330 N.ar      1 AGS401      0.0000 
     31 C4        -85.5360   66.9970    0.0780 C.ar      1 AGS401      0.0000 
@<TRIPOS>BOND
     1   26   27 1    
     2   26   28 ar   
     3   28   29 ar   
     4   29   30 ar   
     5   30   31 ar   
     6    1    2 2    
     7    1    3 1    
     8    1    4 1    
     9    1    8 1    
    10    5    6 ar   
    11    5    7 ar   
    12    5    8 1    
    13    5   12 1    
    14    9   10 ar   
    15    9   11 ar   
    16    9   12 1    
    17    9   13 1    
    18   13   14 1    
    19   14   15 1    
    20   15   16 1    
    21   15   17 1    
    22   16   21 1    
    23   17   18 1    
    24   17   19 1    
    25   19   20 1    
    26   19   21 1    
    27   21   22 1    
    28   22   23 1    
    29   22   31 1    
    30   23   24 2    
    31   24   25 1    
    32   25   26 ar   
    33   25   31 ar   
@<TRIPOS>SUBSTRUCTURE
     1 AGS401      1 GROUP   
@<TRIPOS>SET

