#    Name: 6bcs_4_BEN
#    Modification time : Fri May 22 19:28:49 2020

@<TRIPOS>MOLECULE
6bcs_4_BEN
    9     9     1     0     0
SMALL
NO_CHARGES


@<TRIPOS>ATOM
      1 C1        -18.9390   10.6970   -2.5770 C.ar      1 BEN204      0.0000 
      2 C2        -19.3090    9.5750   -1.8510 C.ar      1 BEN204      0.0000 
      3 C3        -19.6050    9.7080   -0.5030 C.ar      1 BEN204      0.0000 
      4 C4        -19.5260   10.9580    0.1060 C.ar      1 BEN204      0.0000 
      5 C5        -19.1440   12.0760   -0.6210 C.ar      1 BEN204      0.0000 
      6 C6        -18.8480   11.9400   -1.9680 C.ar      1 BEN204      0.0000 
      7 C         -18.6340   10.5710   -3.9400 C.2       1 BEN204      0.0000 
      8 N1        -19.4520    9.9510   -4.7790 N.pl3     1 BEN204      0.0000 
      9 N2        -17.5230   11.1040   -4.4150 N.pl3     1 BEN204      0.0000 
@<TRIPOS>BOND
     1    1    2 ar   
     2    1    6 ar   
     3    1    7 1    
     4    2    3 ar   
     5    3    4 ar   
     6    4    5 ar   
     7    5    6 ar   
     8    7    8 2    
     9    7    9 1    
@<TRIPOS>SUBSTRUCTURE
     1 BEN204      1 GROUP   
@<TRIPOS>SET

