#    Name: 6bcs_4_BEN_CAVITY_N1_4
#    Modification time : Fri May 22 19:28:49 2020

@<TRIPOS>MOLECULE
6bcs_4_BEN_CAVITY_N1_4
   50     0     6     0     0
SMALL
NO_CHARGES


@<TRIPOS>ATOM
      1 OG        -19.5200    8.8800   -4.2400 O.3       1 SER1        0.0000 
      2 OG        -19.7300   14.1600   -0.3800 O.3       1 SER1        0.0000 
      3 OG        -18.5200   14.4100   -1.2400 O.3       1 SER1        0.0000 
      4 OG        -17.3200   14.6500   -2.1000 O.3       1 SER1        0.0000 
      5 OG        -17.3000   13.4100    0.1800 O.3       1 SER1        0.0000 
      6 OG        -16.5400   15.0800   -0.8900 O.3       1 SER1        0.0000 
      7 N         -21.1400    7.5700    0.9800 N.am      2 ALA2        0.0000 
      8 N         -19.9400    7.8200    0.1200 N.am      2 ALA2        0.0000 
      9 N         -21.5800    8.9900    0.7600 N.am      2 ALA2        0.0000 
     10 N         -20.3800    9.2400   -0.0900 N.am      2 ALA2        0.0000 
     11 N         -20.0500   11.0800    0.9000 N.am      2 ALA2        0.0000 
     12 N         -18.8400   11.3200    0.0400 N.am      2 ALA2        0.0000 
     13 N         -17.6200   10.3300    1.4700 N.am      2 ALA2        0.0000 
     14 NZ        -17.9900   10.9700   -4.1000 N.4       3 LYS4        0.0000 
     15 NZ        -18.0900   14.2300   -3.3100 N.4       3 LYS4        0.0000 
     16 CZ        -22.8000    9.9800   -0.6600 C.ar      4 PHE5        0.0000 
     17 CZ        -22.7900    8.7400    1.6200 C.ar      4 PHE5        0.0000 
     18 CZ        -20.8200   10.6500   -0.3100 C.ar      4 PHE5        0.0000 
     19 CZ        -21.2600   12.0700   -0.5200 C.ar      4 PHE5        0.0000 
     20 CZ        -19.2800   12.7400   -0.1700 C.ar      4 PHE5        0.0000 
     21 CZ        -18.5100   13.1700    1.0400 C.ar      4 PHE5        0.0000 
     22 CA        -22.3800    9.8000   -2.7300 C.3       5 GLY6        0.0000 
     23 CA        -21.1700   10.0500   -3.5900 C.3       5 GLY6        0.0000 
     24 CA        -18.7500    9.3000   -3.0200 C.3       5 GLY6        0.0000 
     25 CA        -17.5400    9.5500   -3.8800 C.3       5 GLY6        0.0000 
     26 CA        -21.6000   10.2300   -1.5200 C.3       5 GLY6        0.0000 
     27 CA        -20.3900   10.4700   -2.3800 C.3       5 GLY6        0.0000 
     28 CA        -19.1900   10.7200   -3.2400 C.3       5 GLY6        0.0000 
     29 CA        -19.1800    9.4800   -0.9500 C.3       5 GLY6        0.0000 
     30 CA        -19.6200   10.9000   -1.1700 C.3       5 GLY6        0.0000 
     31 CA        -18.4100   11.1500   -2.0300 C.3       5 GLY6        0.0000 
     32 CA        -17.2100   11.3900   -2.8900 C.3       5 GLY6        0.0000 
     33 CA        -20.0600   12.3200   -1.3800 C.3       5 GLY6        0.0000 
     34 CA        -18.8600   12.5600   -2.2400 C.3       5 GLY6        0.0000 
     35 CA        -19.3000   13.9800   -2.4500 C.3       5 GLY6        0.0000 
     36 CA        -18.4000    9.9100    0.2600 C.3       5 GLY6        0.0000 
     37 CA        -17.6400   11.5700   -0.8200 C.3       5 GLY6        0.0000 
     38 CA        -16.4300   11.8200   -1.6800 C.3       5 GLY6        0.0000 
     39 CA        -18.0600   11.7500    1.2500 C.3       5 GLY6        0.0000 
     40 CA        -16.8600   12.0000    0.3900 C.3       5 GLY6        0.0000 
     41 CA        -15.6500   12.2400   -0.4600 C.3       5 GLY6        0.0000 
     42 CA        -16.0800   12.4200    1.6100 C.3       5 GLY6        0.0000 
     43 CA        -16.5200   13.8400    1.3900 C.3       5 GLY6        0.0000 
     44 DU        -21.9300    8.3900   -2.5200 H         6 CUB7        0.0000 
     45 DU        -22.3600    8.5600   -0.4500 H         6 CUB7        0.0000 
     46 DU        -21.1600    8.8100   -1.3100 H         6 CUB7        0.0000 
     47 DU        -19.9500    9.0600   -2.1700 H         6 CUB7        0.0000 
     48 DU        -18.0800   12.9900   -1.0300 H         6 CUB7        0.0000 
     49 DU        -16.8700   13.2300   -1.8900 H         6 CUB7        0.0000 
     50 DU        -16.1000   13.6600   -0.6800 H         6 CUB7        0.0000 
@<TRIPOS>BOND
@<TRIPOS>SUBSTRUCTURE
     1 SER1        1 GROUP   
     2 ALA2        7 GROUP   
     3 LYS4       14 GROUP   
     4 PHE5       16 GROUP   
     5 GLY6       22 GROUP   
     6 CUB7       44 GROUP   
@<TRIPOS>SET

