#    Name: 6gky_1_SAH
#    Modification time : Fri May 22 19:25:15 2020

@<TRIPOS>MOLECULE
6gky_1_SAH
   26    28     1     0     0
SMALL
NO_CHARGES


@<TRIPOS>ATOM
      1 N          26.6190   27.8300  -20.2430 N.4       1 SAH501      0.0000 
      2 CA         27.2630   27.0220  -19.2140 C.3       1 SAH501      0.0000 
      3 CB         26.2550   26.6250  -18.1420 C.3       1 SAH501      0.0000 
      4 CG         24.9170   26.1390  -18.6860 C.3       1 SAH501      0.0000 
      5 SD         23.7750   25.6750  -17.3620 S.3       1 SAH501      0.0000 
      6 C          27.9230   25.7840  -19.8100 C.2       1 SAH501      0.0000 
      7 O          27.6520   25.4070  -20.9490 O.co2     1 SAH501      0.0000 
      8 OXT        28.7450   25.1320  -19.1650 O.co2     1 SAH501      0.0000 
      9 C5'        22.7810   27.1470  -17.7100 C.3       1 SAH501      0.0000 
     10 C4'        23.3810   28.4110  -17.1040 C.3       1 SAH501      0.0000 
     11 O4'        22.4940   29.5000  -17.2800 O.3       1 SAH501      0.0000 
     12 C3'        23.6260   28.2540  -15.6110 C.3       1 SAH501      0.0000 
     13 O3'        25.0010   28.3800  -15.3320 O.3       1 SAH501      0.0000 
     14 C2'        22.8650   29.3820  -14.9480 C.3       1 SAH501      0.0000 
     15 O2'        23.7110   30.1050  -14.0860 O.3       1 SAH501      0.0000 
     16 C1'        22.4000   30.2650  -16.0940 C.3       1 SAH501      0.0000 
     17 N9         21.0140   30.7180  -15.8710 N.pl3     1 SAH501      0.0000 
     18 C8         19.9230   29.9230  -15.6370 C.2       1 SAH501      0.0000 
     19 N7         18.8380   30.7160  -15.4810 N.2       1 SAH501      0.0000 
     20 C5         19.2220   32.0060  -15.6080 C.ar      1 SAH501      0.0000 
     21 C6         18.5210   33.2030  -15.5370 C.ar      1 SAH501      0.0000 
     22 N6         17.2120   33.1990  -15.3030 N.pl3     1 SAH501      0.0000 
     23 N1         19.1930   34.3960  -15.7110 N.ar      1 SAH501      0.0000 
     24 C2         20.5520   34.3900  -15.9530 C.ar      1 SAH501      0.0000 
     25 N3         21.2430   33.1970  -16.0220 N.ar      1 SAH501      0.0000 
     26 C4         20.5890   32.0220  -15.8530 C.ar      1 SAH501      0.0000 
@<TRIPOS>BOND
     1    1    2 1    
     2    2    3 1    
     3    2    6 1    
     4    3    4 1    
     5    4    5 1    
     6    5    9 1    
     7    6    7 ar   
     8    6    8 ar   
     9    9   10 1    
    10   10   11 1    
    11   10   12 1    
    12   11   16 1    
    13   12   13 1    
    14   12   14 1    
    15   14   15 1    
    16   14   16 1    
    17   16   17 1    
    18   17   18 1    
    19   17   26 1    
    20   18   19 2    
    21   19   20 1    
    22   20   21 ar   
    23   20   26 ar   
    24   21   22 1    
    25   21   23 ar   
    26   23   24 ar   
    27   24   25 ar   
    28   25   26 ar   
@<TRIPOS>SUBSTRUCTURE
     1 SAH501      1 GROUP   
@<TRIPOS>SET

