#    Name: 6gky_2_SAH
#    Modification time : Fri May 22 19:25:21 2020

@<TRIPOS>MOLECULE
6gky_2_SAH
   26    28     1     0     0
SMALL
NO_CHARGES


@<TRIPOS>ATOM
      1 N         -28.1550   20.0080   57.3210 N.4       1 SAH501      0.0000 
      2 CA        -28.9210   20.7230   58.3360 C.3       1 SAH501      0.0000 
      3 CB        -27.9860   21.4190   59.3180 C.3       1 SAH501      0.0000 
      4 CG        -26.7820   22.0890   58.6680 C.3       1 SAH501      0.0000 
      5 SD        -25.7270   22.9160   59.8830 S.3       1 SAH501      0.0000 
      6 C         -29.8810   21.7300   57.7110 C.2       1 SAH501      0.0000 
      7 O         -29.7530   22.0840   56.5390 O.co2     1 SAH501      0.0000 
      8 OXT       -30.8060   22.2120   58.3640 O.co2     1 SAH501      0.0000 
      9 C5'       -24.5260   21.5680   59.7520 C.3       1 SAH501      0.0000 
     10 C4'       -24.9350   20.3530   60.5760 C.3       1 SAH501      0.0000 
     11 O4'       -23.8980   19.3880   60.5740 O.3       1 SAH501      0.0000 
     12 C3'       -25.2110   20.7250   62.0250 C.3       1 SAH501      0.0000 
     13 O3'       -26.5650   20.4880   62.3320 O.3       1 SAH501      0.0000 
     14 C2'       -24.3290   19.8190   62.8570 C.3       1 SAH501      0.0000 
     15 O2'       -25.0980   19.1330   63.8170 O.3       1 SAH501      0.0000 
     16 C1'       -23.7270   18.8370   61.8660 C.3       1 SAH501      0.0000 
     17 N9        -22.2980   18.6110   62.1570 N.pl3     1 SAH501      0.0000 
     18 C8        -21.3230   19.5710   62.2480 C.2       1 SAH501      0.0000 
     19 N7        -20.1480   18.9640   62.5300 N.2       1 SAH501      0.0000 
     20 C5        -20.3580   17.6320   62.6230 C.ar      1 SAH501      0.0000 
     21 C6        -19.5090   16.5650   62.8910 C.ar      1 SAH501      0.0000 
     22 N6        -18.2150   16.7790   63.1150 N.pl3     1 SAH501      0.0000 
     23 N1        -20.0150   15.2820   62.9240 N.ar      1 SAH501      0.0000 
     24 C2        -21.3590   15.0680   62.6910 C.ar      1 SAH501      0.0000 
     25 N3        -22.1970   16.1320   62.4260 N.ar      1 SAH501      0.0000 
     26 C4        -21.7060   17.3950   62.3910 C.ar      1 SAH501      0.0000 
@<TRIPOS>BOND
     1    1    2 1    
     2    2    3 1    
     3    2    6 1    
     4    3    4 1    
     5    4    5 1    
     6    5    9 1    
     7    6    7 ar   
     8    6    8 ar   
     9    9   10 1    
    10   10   11 1    
    11   10   12 1    
    12   11   16 1    
    13   12   13 1    
    14   12   14 1    
    15   14   15 1    
    16   14   16 1    
    17   16   17 1    
    18   17   18 1    
    19   17   26 1    
    20   18   19 2    
    21   19   20 1    
    22   20   21 ar   
    23   20   26 ar   
    24   21   22 1    
    25   21   23 ar   
    26   23   24 ar   
    27   24   25 ar   
    28   25   26 ar   
@<TRIPOS>SUBSTRUCTURE
     1 SAH501      1 GROUP   
@<TRIPOS>SET

