#    Name: 6pc3_1_GSP
#    Modification time : Fri May 22 19:32:04 2020

@<TRIPOS>MOLECULE
6pc3_1_GSP
   46    48     1     0     0
SMALL
NO_CHARGES


@<TRIPOS>ATOM
      1 PG        -12.4010   -1.1470   16.5570 P.3       1 GSP501      0.0000 
      2 O3B       -13.0600   -2.0180   15.3450 O.3       1 GSP501      0.0000 
      3 S1G       -10.7860   -0.4230   15.8830 S.2       1 GSP501      0.0000 
      4 O2G       -13.3570    0.0930   16.9540 O.3       1 GSP501      0.0000 
      5 O3G       -12.3050   -2.1460   17.8340 O.3       1 GSP501      0.0000 
      6 PB        -14.5290   -1.4980   14.8720 P.3       1 GSP501      0.0000 
      7 O1B       -15.0960   -2.5100   13.9340 O.co2     1 GSP501      0.0000 
      8 O2B       -15.5300   -1.5490   16.1460 O.co2     1 GSP501      0.0000 
      9 PA        -15.0390    1.3340   14.4660 P.3       1 GSP501      0.0000 
     10 O1A       -15.5650    1.2650   15.8600 O.co2     1 GSP501      0.0000 
     11 O2A       -13.9650    2.5370   14.2920 O.co2     1 GSP501      0.0000 
     12 O3A       -14.3420   -0.0900   14.0270 O.3       1 GSP501      0.0000 
     13 O5'       -16.2410    1.7390   13.4950 O.3       1 GSP501      0.0000 
     14 C5'       -17.2700    0.7660   13.6550 C.3       1 GSP501      0.0000 
     15 C4'       -18.4310    1.2110   12.7720 C.3       1 GSP501      0.0000 
     16 O4'       -19.1060    2.3700   13.3230 O.3       1 GSP501      0.0000 
     17 C3'       -17.9400    1.6760   11.3850 C.3       1 GSP501      0.0000 
     18 O3'       -18.9410    1.2260   10.4590 O.3       1 GSP501      0.0000 
     19 C2'       -17.8790    3.2090   11.4520 C.3       1 GSP501      0.0000 
     20 O2'       -18.1060    3.6610   10.1240 O.3       1 GSP501      0.0000 
     21 C1'       -19.0420    3.4990   12.4040 C.3       1 GSP501      0.0000 
     22 N9        -18.8460    4.6780   13.2580 N.pl3     1 GSP501      0.0000 
     23 C8        -17.6960    5.3980   13.4750 C.2       1 GSP501      0.0000 
     24 N7        -17.9180    6.3680   14.3230 N.2       1 GSP501      0.0000 
     25 C5        -19.2220    6.3090   14.7050 C.2       1 GSP501      0.0000 
     26 C6        -20.0180    7.0820   15.5840 C.2       1 GSP501      0.0000 
     27 O6        -19.5340    8.0370   16.1880 O.2       1 GSP501      0.0000 
     28 N1        -21.3190    6.7200   15.7420 N.am      1 GSP501      0.0000 
     29 C2        -21.8470    5.6650   15.0560 C.2       1 GSP501      0.0000 
     30 N2        -23.1680    5.3630   15.2510 N.pl3     1 GSP501      0.0000 
     31 N3        -21.1240    4.9440   14.2280 N.2       1 GSP501      0.0000 
     32 C4        -19.8230    5.2260   14.0390 C.2       1 GSP501      0.0000 
     33 HOG2      -13.6140   -0.0420   17.7530 H         1 GSP501      0.0000 
     34 HOG3      -11.8190   -2.8020   17.5970 H         1 GSP501      0.0000 
     35 H5'1      -17.5520    0.7260   14.5820 H         1 GSP501      0.0000 
     36 H5'2      -16.9530   -0.1070   13.3760 H         1 GSP501      0.0000 
     37 H4'       -19.0540    0.4730   12.6810 H         1 GSP501      0.0000 
     38 H3'       -17.0470    1.3640   11.1710 H         1 GSP501      0.0000 
     39 HO3'      -19.1540    0.4370   10.6910 H         1 GSP501      0.0000 
     40 H2'       -17.0650    3.5950   11.8120 H         1 GSP501      0.0000 
     41 HO2'      -18.7340    4.2330   10.1630 H         1 GSP501      0.0000 
     42 H1'       -19.8200    3.5980   11.8330 H         1 GSP501      0.0000 
     43 H8        -16.8760    5.2220   13.0740 H         1 GSP501      0.0000 
     44 HN1       -21.8180    7.1640   16.2840 H         1 GSP501      0.0000 
     45 HN21      -23.5070    4.6630   14.8830 H         1 GSP501      0.0000 
     46 HN22      -23.6570    5.8740   15.7400 H         1 GSP501      0.0000 
@<TRIPOS>BOND
     1    1    2 1    
     2    1    3 2    
     3    1    4 1    
     4    1    5 1    
     5    2    6 1    
     6    6    7 ar   
     7    4   33 1    
     8    5   34 1    
     9    6    8 ar   
    10    6   12 1    
    11    9   10 ar   
    12    9   11 ar   
    13    9   12 1    
    14    9   13 1    
    15   13   14 1    
    16   14   15 1    
    17   14   35 1    
    18   14   36 1    
    19   15   16 1    
    20   15   17 1    
    21   15   37 1    
    22   16   21 1    
    23   17   18 1    
    24   17   19 1    
    25   17   38 1    
    26   18   39 1    
    27   19   20 1    
    28   19   21 1    
    29   19   40 1    
    30   20   41 1    
    31   21   22 1    
    32   21   42 1    
    33   22   23 1    
    34   22   32 1    
    35   23   24 2    
    36   24   25 1    
    37   23   43 1    
    38   25   26 1    
    39   25   32 2    
    40   26   27 2    
    41   26   28 am   
    42   28   29 1    
    43   29   30 1    
    44   28   44 1    
    45   29   31 2    
    46   31   32 1    
    47   30   45 1    
    48   30   46 1    
@<TRIPOS>SUBSTRUCTURE
     1 GSP501      1 GROUP   
@<TRIPOS>SET

