#    Name: 6pc3_1_GSP_CAVITY_N1_4
#    Modification time : Fri May 22 19:32:06 2020

@<TRIPOS>MOLECULE
6pc3_1_GSP_CAVITY_N1_4
   66     0     6     0     0
SMALL
NO_CHARGES


@<TRIPOS>ATOM
      1 OG        -17.8900   -4.1400   14.7200 O.3       1 SER1        0.0000 
      2 OG        -17.1600   -5.4300   14.4900 O.3       1 SER1        0.0000 
      3 OG        -17.1200   -4.0600   16.7000 O.3       1 SER1        0.0000 
      4 OG        -13.1600   -4.1100   19.7100 O.3       1 SER1        0.0000 
      5 OG        -12.2500   -3.1100   17.0300 O.3       1 SER1        0.0000 
      6 OG        -11.9300   -3.5300   20.3500 O.3       1 SER1        0.0000 
      7 OG        -11.4800   -3.0300   19.0100 O.3       1 SER1        0.0000 
      8 OD1       -19.6600   -1.1300   11.8800 O.co2     2 ASP3        0.0000 
      9 OD1       -19.2100   -0.6300   10.5400 O.co2     2 ASP3        0.0000 
     10 OD1       -15.8900   -3.4800   17.3300 O.co2     2 ASP3        0.0000 
     11 OD1       -15.4300   -2.9800   15.9900 O.co2     2 ASP3        0.0000 
     12 OD1       -15.7100   -1.1900   14.8900 O.co2     2 ASP3        0.0000 
     13 OD1       -14.9800   -2.4800   14.6600 O.co2     2 ASP3        0.0000 
     14 OD1       -14.2100   -2.4000   16.6300 O.co2     2 ASP3        0.0000 
     15 OD1       -13.7500   -1.9000   15.2900 O.co2     2 ASP3        0.0000 
     16 OD1       -14.0200   -0.1100   14.1900 O.co2     2 ASP3        0.0000 
     17 OD1       -12.9800   -1.8200   17.2700 O.co2     2 ASP3        0.0000 
     18 OD1       -12.5200   -1.3200   15.9300 O.co2     2 ASP3        0.0000 
     19 NZ        -19.7100   -2.5000    9.6700 N.4       3 LYS4        0.0000 
     20 NZ        -18.0200   -1.4200    8.9700 N.4       3 LYS4        0.0000 
     21 CZ        -16.3500   -3.9800   18.6700 C.ar      4 PHE5        0.0000 
     22 CZ        -13.0600   -4.5600   12.8500 C.ar      4 PHE5        0.0000 
     23 CZ        -13.2000   -5.4800   17.5000 C.ar      4 PHE5        0.0000 
     24 CZ        -13.4800   -3.6900   16.4000 C.ar      4 PHE5        0.0000 
     25 CZ        -12.7500   -4.9800   16.1600 C.ar      4 PHE5        0.0000 
     26 CZ        -12.4300   -5.4000   19.4800 C.ar      4 PHE5        0.0000 
     27 CZ        -12.7000   -3.6100   18.3700 C.ar      4 PHE5        0.0000 
     28 CA        -15.9800   -6.2100   12.9200 C.3       5 GLY6        0.0000 
     29 CA        -16.9800   -3.1300   12.0500 C.3       5 GLY6        0.0000 
     30 CA        -16.2500   -4.4200   11.8100 C.3       5 GLY6        0.0000 
     31 CA        -15.5200   -5.7100   11.5800 C.3       5 GLY6        0.0000 
     32 CA        -16.5200   -2.6300   10.7100 C.3       5 GLY6        0.0000 
     33 CA        -15.2000   -6.1400   14.8900 C.3       5 GLY6        0.0000 
     34 CA        -14.7500   -5.6400   13.5500 C.3       5 GLY6        0.0000 
     35 CA        -15.0200   -3.8500   12.4500 C.3       5 GLY6        0.0000 
     36 CA        -14.2900   -5.1300   12.2200 C.3       5 GLY6        0.0000 
     37 CA        -15.2900   -2.0500   11.3400 C.3       5 GLY6        0.0000 
     38 CA        -14.5600   -3.3400   11.1100 C.3       5 GLY6        0.0000 
     39 CA        -13.8300   -4.6300   10.8800 C.3       5 GLY6        0.0000 
     40 CA        -12.6000   -4.0500   11.5100 C.3       5 GLY6        0.0000 
     41 CA        -12.6600   -2.2400   20.5800 C.3       5 GLY6        0.0000 
     42 DU        -18.9300   -2.4200   11.6400 H         6 CUB7        0.0000 
     43 DU        -18.4800   -1.9200   10.3000 H         6 CUB7        0.0000 
     44 DU        -17.4300   -3.6400   13.3800 H         6 CUB7        0.0000 
     45 DU        -16.7000   -4.9300   13.1500 H         6 CUB7        0.0000 
     46 DU        -17.7100   -1.8400   12.2800 H         6 CUB7        0.0000 
     47 DU        -17.2500   -1.3400   10.9400 H         6 CUB7        0.0000 
     48 DU        -16.3900   -5.3500   16.4600 H         6 CUB7        0.0000 
     49 DU        -16.6600   -3.5600   15.3600 H         6 CUB7        0.0000 
     50 DU        -16.9300   -1.7700   14.2500 H         6 CUB7        0.0000 
     51 DU        -16.2100   -3.0600   14.0200 H         6 CUB7        0.0000 
     52 DU        -15.4800   -4.3500   13.7900 H         6 CUB7        0.0000 
     53 DU        -16.4800   -1.2700   12.9200 H         6 CUB7        0.0000 
     54 DU        -15.7500   -2.5600   12.6800 H         6 CUB7        0.0000 
     55 DU        -16.0200   -0.7600   11.5800 H         6 CUB7        0.0000 
     56 DU        -15.1600   -4.7700   17.1000 H         6 CUB7        0.0000 
     57 DU        -14.7000   -4.2700   15.7600 H         6 CUB7        0.0000 
     58 DU        -13.9800   -5.5600   15.5300 H         6 CUB7        0.0000 
     59 DU        -13.5200   -5.0600   14.1900 H         6 CUB7        0.0000 
     60 DU        -15.2500   -0.6900   13.5500 H         6 CUB7        0.0000 
     61 DU        -14.5200   -1.9800   13.3200 H         6 CUB7        0.0000 
     62 DU        -13.7900   -3.2700   13.0800 H         6 CUB7        0.0000 
     63 DU        -13.3300   -2.7700   11.7500 H         6 CUB7        0.0000 
     64 DU        -14.3900   -4.6900   19.0700 H         6 CUB7        0.0000 
     65 DU        -13.9300   -4.1900   17.7400 H         6 CUB7        0.0000 
     66 DU        -13.0200   -3.1900   15.0600 H         6 CUB7        0.0000 
@<TRIPOS>BOND
@<TRIPOS>SUBSTRUCTURE
     1 SER1        1 GROUP   
     2 ASP3        8 GROUP   
     3 LYS4       19 GROUP   
     4 PHE5       21 GROUP   
     5 GLY6       28 GROUP   
     6 CUB7       42 GROUP   
@<TRIPOS>SET

