#    Name: 6pc3_2_GSP_CAVITY_N1_4
#    Modification time : Fri May 22 19:32:18 2020

@<TRIPOS>MOLECULE
6pc3_2_GSP_CAVITY_N1_4
   62     0     6     0     0
SMALL
NO_CHARGES


@<TRIPOS>ATOM
      1 OG          3.5700   17.1400   31.6900 O.3       1 SER1        0.0000 
      2 OG          4.0300   17.6400   30.3500 O.3       1 SER1        0.0000 
      3 OG          3.7600   19.4300   29.2500 O.3       1 SER1        0.0000 
      4 OG          4.5300   19.5100   31.2200 O.3       1 SER1        0.0000 
      5 OG          5.2600   18.2200   30.9900 O.3       1 SER1        0.0000 
      6 OG          5.0300   21.3800   32.0900 O.3       1 SER1        0.0000 
      7 OG          5.7600   20.0900   31.8600 O.3       1 SER1        0.0000 
      8 O           3.5300   15.7700   29.4800 O.2       2 ALA2        0.0000 
      9 O           4.7600   16.3500   30.1200 O.2       2 ALA2        0.0000 
     10 OD1         4.4500   16.7700   26.8100 O.co2     3 ASP3        0.0000 
     11 OD1         4.4900   18.1400   29.0200 O.co2     3 ASP3        0.0000 
     12 OD1         5.2200   16.8500   28.7800 O.co2     3 ASP3        0.0000 
     13 OD1         5.6700   17.3500   27.4400 O.co2     3 ASP3        0.0000 
     14 OD1         4.3500   17.2200   33.6700 O.co2     3 ASP3        0.0000 
     15 OD1         5.9900   16.9300   30.7600 O.co2     3 ASP3        0.0000 
     16 OD1         4.9900   20.0100   29.8900 O.co2     3 ASP3        0.0000 
     17 OD1         5.7200   18.7200   29.6500 O.co2     3 ASP3        0.0000 
     18 OD1         5.4400   20.5100   28.5500 O.co2     3 ASP3        0.0000 
     19 OD1         6.1700   19.2200   28.3100 O.co2     3 ASP3        0.0000 
     20 OD1         5.5700   17.8000   34.3000 O.co2     3 ASP3        0.0000 
     21 OD1         6.0300   18.3000   32.9700 O.co2     3 ASP3        0.0000 
     22 OD1         6.7600   17.0100   32.7300 O.co2     3 ASP3        0.0000 
     23 OD1         6.9900   20.6700   32.5000 O.co2     3 ASP3        0.0000 
     24 OD1         7.7600   20.7500   34.4700 O.co2     3 ASP3        0.0000 
     25 OD1         8.4900   19.4600   34.2400 O.co2     3 ASP3        0.0000 
     26 OD1         8.9400   19.9600   32.9000 O.co2     3 ASP3        0.0000 
     27 OD1         9.6700   18.6700   32.6700 O.co2     3 ASP3        0.0000 
     28 OD1         8.6700   21.7500   31.8000 O.co2     3 ASP3        0.0000 
     29 OD1         9.4000   20.4600   31.5600 O.co2     3 ASP3        0.0000 
     30 CZ          1.2000   18.7200   34.8400 C.ar      4 PHE5        0.0000 
     31 CZ          1.9300   17.4300   34.6000 C.ar      4 PHE5        0.0000 
     32 CZ          2.3900   17.9300   33.2600 C.ar      4 PHE5        0.0000 
     33 CZ          2.8900   19.8000   34.1300 C.ar      4 PHE5        0.0000 
     34 CZ          3.6200   18.5100   33.9000 C.ar      4 PHE5        0.0000 
     35 CZ          3.3400   20.3000   32.8000 C.ar      4 PHE5        0.0000 
     36 CZ          4.0700   19.0100   32.5600 C.ar      4 PHE5        0.0000 
     37 CZ          4.5700   20.8800   33.4300 C.ar      4 PHE5        0.0000 
     38 CZ          6.2600   21.9600   32.7300 C.ar      4 PHE5        0.0000 
     39 CA          3.2600   17.5600   28.3800 C.3       5 GLY6        0.0000 
     40 CA          3.9900   16.2700   28.1500 C.3       5 GLY6        0.0000 
     41 CA          5.1700   15.4800   26.5800 C.3       5 GLY6        0.0000 
     42 CA          6.2200   20.5900   30.5200 C.3       5 GLY6        0.0000 
     43 CA          6.0700   19.6700   35.1700 C.3       5 GLY6        0.0000 
     44 CA          5.8000   21.4600   34.0700 C.3       5 GLY6        0.0000 
     45 CA          7.4400   21.1700   31.1600 C.3       5 GLY6        0.0000 
     46 CA          7.3000   20.2500   35.8100 C.3       5 GLY6        0.0000 
     47 DU          3.1600   18.0100   35.2400 H         6 CUB7        0.0000 
     48 DU          4.3900   18.5900   35.8800 H         6 CUB7        0.0000 
     49 DU          4.8400   19.0900   34.5400 H         6 CUB7        0.0000 
     50 DU          5.3000   19.5900   33.2000 H         6 CUB7        0.0000 
     51 DU          6.4900   18.8000   31.6300 H         6 CUB7        0.0000 
     52 DU          7.2200   17.5100   31.3900 H         6 CUB7        0.0000 
     53 DU          6.9400   19.3000   30.2900 H         6 CUB7        0.0000 
     54 DU          5.6200   19.1700   36.5100 H         6 CUB7        0.0000 
     55 DU          6.5300   20.1700   33.8400 H         6 CUB7        0.0000 
     56 DU          7.2600   18.8800   33.6000 H         6 CUB7        0.0000 
     57 DU          7.9900   17.5900   33.3700 H         6 CUB7        0.0000 
     58 DU          7.7200   19.3800   32.2600 H         6 CUB7        0.0000 
     59 DU          8.4500   18.0900   32.0300 H         6 CUB7        0.0000 
     60 DU          8.1700   19.8800   30.9300 H         6 CUB7        0.0000 
     61 DU          8.6300   20.3800   29.5900 H         6 CUB7        0.0000 
     62 DU          9.2200   18.1700   34.0000 H         6 CUB7        0.0000 
@<TRIPOS>BOND
@<TRIPOS>SUBSTRUCTURE
     1 SER1        1 GROUP   
     2 ALA2        8 GROUP   
     3 ASP3       10 GROUP   
     4 PHE5       30 GROUP   
     5 GLY6       39 GROUP   
     6 CUB7       47 GROUP   
@<TRIPOS>SET

