#    Name: 6pc3_2_GSP
#    Modification time : Fri May 22 19:32:17 2020

@<TRIPOS>MOLECULE
6pc3_2_GSP
   46    48     1     0     0
SMALL
NO_CHARGES


@<TRIPOS>ATOM
      1 PG          4.2830   16.6390   31.0970 P.3       1 GSP501      0.0000 
      2 O3B         5.4580   17.7060   31.3910 O.3       1 GSP501      0.0000 
      3 S1G         4.0250   16.7300   29.2100 S.2       1 GSP501      0.0000 
      4 O2G         4.7000   15.1400   31.5090 O.3       1 GSP501      0.0000 
      5 O3G         3.0190   17.0780   32.0090 O.3       1 GSP501      0.0000 
      6 PB          6.7440   17.1670   32.2010 P.3       1 GSP501      0.0000 
      7 O1B         7.5740   18.3590   32.5560 O.co2     1 GSP501      0.0000 
      8 O2B         6.2850   16.5440   33.6280 O.co2     1 GSP501      0.0000 
      9 PA          7.8750   14.6700   31.3560 P.3       1 GSP501      0.0000 
     10 O1A         6.9280   14.1210   32.3670 O.co2     1 GSP501      0.0000 
     11 O2A         7.6560   13.9780   29.9120 O.co2     1 GSP501      0.0000 
     12 O3A         7.7110   16.2910   31.1940 O.3       1 GSP501      0.0000 
     13 O5'         9.3780   14.2640   31.8060 O.3       1 GSP501      0.0000 
     14 C5'         9.7910   15.2170   32.7760 C.3       1 GSP501      0.0000 
     15 C4'        11.2480   15.0100   33.2140 C.3       1 GSP501      0.0000 
     16 O4'        11.4290   13.6020   33.6050 O.3       1 GSP501      0.0000 
     17 C3'        12.3800   15.2230   32.1810 C.3       1 GSP501      0.0000 
     18 O3'        13.5350   15.5640   32.9760 O.3       1 GSP501      0.0000 
     19 C2'        12.4880   13.8560   31.4800 C.3       1 GSP501      0.0000 
     20 O2'        13.7520   13.6640   30.8740 O.3       1 GSP501      0.0000 
     21 C1'        12.3740   12.9390   32.7110 C.3       1 GSP501      0.0000 
     22 N9         11.9180   11.5850   32.4050 N.pl3     1 GSP501      0.0000 
     23 C8         11.3490   11.1160   31.2520 C.2       1 GSP501      0.0000 
     24 N7         11.0730    9.8460   31.3830 N.2       1 GSP501      0.0000 
     25 C5         11.4800    9.4170   32.6070 C.2       1 GSP501      0.0000 
     26 C6         11.4410    8.1780   33.2930 C.2       1 GSP501      0.0000 
     27 O6         10.9850    7.1710   32.7600 O.2       1 GSP501      0.0000 
     28 N1         11.9200    8.1240   34.5620 N.am      1 GSP501      0.0000 
     29 C2         12.4390    9.2410   35.1460 C.2       1 GSP501      0.0000 
     30 N2         12.9210    9.1700   36.4220 N.pl3     1 GSP501      0.0000 
     31 N3         12.4900   10.3950   34.5160 N.2       1 GSP501      0.0000 
     32 C4         12.0170   10.5270   33.2680 C.2       1 GSP501      0.0000 
     33 HOG2        3.9820   14.7320   31.7110 H         1 GSP501      0.0000 
     34 HOG3        2.3220   16.7930   31.6150 H         1 GSP501      0.0000 
     35 H5'1        9.2180   15.1390   33.5550 H         1 GSP501      0.0000 
     36 H5'2        9.7040   16.1060   32.3980 H         1 GSP501      0.0000 
     37 H4'        11.4030   15.6700   33.9080 H         1 GSP501      0.0000 
     38 H3'        12.2060   15.8830   31.4910 H         1 GSP501      0.0000 
     39 HO3'       14.0420   14.8830   32.9780 H         1 GSP501      0.0000 
     40 H2'        11.7950   13.7370   30.8120 H         1 GSP501      0.0000 
     41 HO2'       14.2930   13.4550   31.4960 H         1 GSP501      0.0000 
     42 H1'        13.2570   12.8800   33.1100 H         1 GSP501      0.0000 
     43 H8         11.1850   11.6240   30.4910 H         1 GSP501      0.0000 
     44 HN1        11.8960    7.3840   34.9980 H         1 GSP501      0.0000 
     45 HN21       13.1940    9.8830   36.8170 H         1 GSP501      0.0000 
     46 HN22       12.9510    8.4120   36.8280 H         1 GSP501      0.0000 
@<TRIPOS>BOND
     1    1    2 1    
     2    1    3 2    
     3    1    4 1    
     4    1    5 1    
     5    2    6 1    
     6    6    7 ar   
     7    4   33 1    
     8    5   34 1    
     9    6    8 ar   
    10    6   12 1    
    11    9   10 ar   
    12    9   11 ar   
    13    9   12 1    
    14    9   13 1    
    15   13   14 1    
    16   14   15 1    
    17   14   35 1    
    18   14   36 1    
    19   15   16 1    
    20   15   17 1    
    21   15   37 1    
    22   16   21 1    
    23   17   18 1    
    24   17   19 1    
    25   17   38 1    
    26   18   39 1    
    27   19   20 1    
    28   19   21 1    
    29   19   40 1    
    30   20   41 1    
    31   21   22 1    
    32   21   42 1    
    33   22   23 1    
    34   22   32 1    
    35   23   24 2    
    36   24   25 1    
    37   23   43 1    
    38   25   26 1    
    39   25   32 2    
    40   26   27 2    
    41   26   28 am   
    42   28   29 1    
    43   29   30 1    
    44   28   44 1    
    45   29   31 2    
    46   31   32 1    
    47   30   45 1    
    48   30   46 1    
@<TRIPOS>SUBSTRUCTURE
     1 GSP501      1 GROUP   
@<TRIPOS>SET

