#    Name: 5xwv_1_NDP
#    Modification time : Fri May 22 19:16:48 2020

@<TRIPOS>MOLECULE
5xwv_1_NDP
   48    52     1     0     1
SMALL
NO_CHARGES


@<TRIPOS>ATOM
      1 PA        -19.5240   17.7300  -18.1150 P.3       1 NDP501      0.0000 
      2 O1A       -20.3940   18.6500  -17.3070 O.co2     1 NDP501      0.0000 
      3 O2A       -19.8190   17.5590  -19.5870 O.co2     1 NDP501      0.0000 
      4 O5B       -17.9950   18.1610  -17.9530 O.3       1 NDP501      0.0000 
      5 C5B       -17.0100   17.6810  -18.8670 C.3       1 NDP501      0.0000 
      6 C4B       -16.0370   18.8090  -19.1130 C.3       1 NDP501      0.0000 
      7 O4B       -14.9370   18.3830  -19.9330 O.3       1 NDP501      0.0000 
      8 C3B       -16.7150   19.9520  -19.8350 C.3       1 NDP501      0.0000 
      9 O3B       -16.3460   21.1900  -19.1820 O.3       1 NDP501      0.0000 
     10 C2B       -16.1540   19.9020  -21.2370 C.3       1 NDP501      0.0000 
     11 O2B       -16.1550   21.2180  -21.7840 O.3       1 NDP501      0.0000 
     12 C1B       -14.7680   19.3510  -20.9590 C.3       1 NDP501      0.0000 
     13 N9A       -14.1020   18.7410  -22.1090 N.pl3     1 NDP501      0.0000 
     14 C8A       -14.5370   17.6980  -22.8510 C.2       1 NDP501      0.0000 
     15 N7A       -13.6110   17.3670  -23.7630 N.2       1 NDP501      0.0000 
     16 C5A       -12.5310   18.1110  -23.5270 C.ar      1 NDP501      0.0000 
     17 C6A       -11.1690   18.2010  -24.0480 C.ar      1 NDP501      0.0000 
     18 N6A       -10.7780   17.5170  -25.1570 N.pl3     1 NDP501      0.0000 
     19 N1A       -10.4030   19.1750  -23.5620 N.ar      1 NDP501      0.0000 
     20 C2A       -10.7550   19.9470  -22.5150 C.ar      1 NDP501      0.0000 
     21 N3A       -11.9550   19.8720  -21.9460 N.ar      1 NDP501      0.0000 
     22 C4A       -12.8720   19.0080  -22.4330 C.ar      1 NDP501      0.0000 
     23 O3        -19.5460   16.2650  -17.4610 O.3       1 NDP501      0.0000 
     24 PN        -19.2990   15.9370  -15.9070 P.3       1 NDP501      0.0000 
     25 O1N       -20.4890   15.1360  -15.4550 O.co2     1 NDP501      0.0000 
     26 O2N       -18.8720   17.1450  -15.1520 O.co2     1 NDP501      0.0000 
     27 O5D       -18.0630   14.9300  -15.9630 O.3       1 NDP501      0.0000 
     28 C5D       -16.7870   15.3500  -15.4920 C.3       1 NDP501      0.0000 
     29 C4D       -15.8620   14.1540  -15.5290 C.3       1 NDP501      0.0000 
     30 O4D       -16.3850   13.1610  -14.6310 O.3       1 NDP501      0.0000 
     31 C3D       -15.7980   13.5270  -16.9300 C.3       1 NDP501      0.0000 
     32 O3D       -14.4430   13.1690  -17.2460 O.3       1 NDP501      0.0000 
     33 C2D       -16.6350   12.2800  -16.8310 C.3       1 NDP501      0.0000 
     34 O2D       -16.1470   11.2160  -17.6870 O.3       1 NDP501      0.0000 
     35 C1D       -16.5230   11.9190  -15.3450 C.3       1 NDP501      0.0000 
     36 N1N       -17.6960   11.1630  -14.8890 N.pl3     1 NDP501      0.0000 
     37 C2N       -18.8520   11.7770  -14.6290 C.2       1 NDP501      0.0000 
     38 C3N       -19.9340   11.0680  -14.1140 C.2       1 NDP501      0.0000 
     39 C7N       -21.2380   11.7450  -13.8240 C.2       1 NDP501      0.0000 
     40 O7N       -22.0800   11.1340  -13.1940 O.2       1 NDP501      0.0000 
     41 N7N       -21.4800   12.9610  -14.3190 N.am      1 NDP501      0.0000 
     42 C4N       -19.8720    9.5760  -13.9340 C.3       1 NDP501      0.0000 
     43 C5N       -18.5470    9.0550  -14.1990 C.2       1 NDP501      0.0000 
     44 C6N       -17.5460    9.8440  -14.7420 C.2       1 NDP501      0.0000 
     45 P2B       -15.9240   21.5220  -23.3700 P.3       1 NDP501      0.0000 
     46 O1X       -16.0690   23.0290  -23.3710 O.co2     1 NDP501      0.0000 
     47 O2X       -14.5560   20.9950  -23.7050 O.co2     1 NDP501      0.0000 
     48 O3X       -17.0370   20.8110  -24.1030 O.co2     1 NDP501      0.0000 
@<TRIPOS>BOND
     1    1    2 ar   
     2    1    3 ar   
     3    1    4 1    
     4    1   23 1    
     5    4    5 1    
     6    5    6 1    
     7    6    7 1    
     8    6    8 1    
     9    7   12 1    
    10    8    9 1    
    11    8   10 1    
    12   10   11 1    
    13   10   12 1    
    14   11   45 1    
    15   12   13 1    
    16   13   14 1    
    17   13   22 1    
    18   14   15 2    
    19   15   16 1    
    20   16   17 ar   
    21   16   22 ar   
    22   17   18 1    
    23   17   19 ar   
    24   19   20 ar   
    25   20   21 ar   
    26   21   22 ar   
    27   23   24 1    
    28   24   25 ar   
    29   24   26 ar   
    30   24   27 1    
    31   27   28 1    
    32   28   29 1    
    33   29   30 1    
    34   29   31 1    
    35   30   35 1    
    36   31   32 1    
    37   31   33 1    
    38   33   34 1    
    39   33   35 1    
    40   35   36 1    
    41   36   37 1    
    42   36   44 1    
    43   37   38 2    
    44   38   39 1    
    45   38   42 1    
    46   39   40 2    
    47   39   41 am   
    48   42   43 1    
    49   43   44 2    
    50   45   46 ar   
    51   45   47 ar   
    52   45   48 ar   
@<TRIPOS>SUBSTRUCTURE
     1 NDP501      1 GROUP   
@<TRIPOS>SET
ATOM$ORANGE STATIC     ATOMS   COLORGROUP SYSTEM 
42 5 5 6 6 8 8 10 10 12 12 14 14 16 16 17 17 20 \
20 22 22 28 28 29 29 31 31 33 33 35 35 37 37 38 38 39 \
39 42 42 43 43 44 44 

