#    Name: 6pvf_1_FAD
#    Modification time : Fri May 22 19:35:16 2020

@<TRIPOS>MOLECULE
6pvf_1_FAD
   53    58     1     0     1
SMALL
NO_CHARGES


@<TRIPOS>ATOM
      1 PA          9.4240   17.5650   20.0410 P.3       1 FAD501      0.0000 
      2 O1A         8.3730   16.6310   19.5780 O.co2     1 FAD501      0.0000 
      3 O2A         9.5200   17.8820   21.4930 O.co2     1 FAD501      0.0000 
      4 O5B         9.2530   18.9480   19.3280 O.3       1 FAD501      0.0000 
      5 C5B         9.0350   19.0400   17.9030 C.3       1 FAD501      0.0000 
      6 C4B         8.4850   20.4180   17.6110 C.3       1 FAD501      0.0000 
      7 O4B         8.5150   20.6600   16.1800 O.3       1 FAD501      0.0000 
      8 C3B         7.0410   20.6670   18.0640 C.3       1 FAD501      0.0000 
      9 O3B         6.9620   21.8710   18.8290 O.3       1 FAD501      0.0000 
     10 C2B         6.2590   20.7350   16.7420 C.3       1 FAD501      0.0000 
     11 O2B         5.1480   21.6230   16.8010 O.3       1 FAD501      0.0000 
     12 C1B         7.3190   21.2960   15.8020 C.3       1 FAD501      0.0000 
     13 N9A         7.1110   21.0340   14.3820 N.pl3     1 FAD501      0.0000 
     14 C8A         6.8380   19.8250   13.7950 C.2       1 FAD501      0.0000 
     15 N7A         6.7360   19.8770   12.4890 N.2       1 FAD501      0.0000 
     16 C5A         6.9620   21.2150   12.1970 C.ar      1 FAD501      0.0000 
     17 C6A         7.0060   21.9250   10.9850 C.ar      1 FAD501      0.0000 
     18 N6A         6.8090   21.3560    9.7920 N.pl3     1 FAD501      0.0000 
     19 N1A         7.2830   23.2500   11.0380 N.ar      1 FAD501      0.0000 
     20 C2A         7.4530   23.8240   12.2330 C.ar      1 FAD501      0.0000 
     21 N3A         7.4580   23.2490   13.4390 N.ar      1 FAD501      0.0000 
     22 C4A         7.1920   21.9390   13.3530 C.ar      1 FAD501      0.0000 
     23 N1          8.2110   13.8770   26.6140 N.2       1 FAD501      0.0000 
     24 C2          8.2280   13.4920   27.9200 C.2       1 FAD501      0.0000 
     25 O2          9.1120   12.7460   28.3640 O.2       1 FAD501      0.0000 
     26 N3          7.2420   13.9600   28.7790 N.am      1 FAD501      0.0000 
     27 C4          6.1880   14.7960   28.4430 C.2       1 FAD501      0.0000 
     28 O4          5.3680   15.1230   29.2990 O.2       1 FAD501      0.0000 
     29 C4X         6.1810   15.1990   27.0450 C.2       1 FAD501      0.0000 
     30 N5          5.2090   15.9950   26.6220 N.2       1 FAD501      0.0000 
     31 C5X         5.2260   16.3790   25.2860 C.ar      1 FAD501      0.0000 
     32 C6          4.2320   17.2330   24.8110 C.ar      1 FAD501      0.0000 
     33 C7          4.2120   17.6400   23.4760 C.ar      1 FAD501      0.0000 
     34 C7M         3.1190   18.5550   22.9900 C.3       1 FAD501      0.0000 
     35 C8          5.2160   17.1960   22.6000 C.ar      1 FAD501      0.0000 
     36 C8M         5.2180   17.6130   21.1510 C.3       1 FAD501      0.0000 
     37 C9          6.2180   16.3570   23.0740 C.ar      1 FAD501      0.0000 
     38 C9A         6.2280   15.9420   24.4020 C.ar      1 FAD501      0.0000 
     39 N10         7.2280   15.0810   24.8990 N.pl3     1 FAD501      0.0000 
     40 C10         7.2420   14.6980   26.2110 C.2       1 FAD501      0.0000 
     41 C1'         8.2960   14.5880   24.0200 C.3       1 FAD501      0.0000 
     42 C2'         9.6250   15.2990   24.2430 C.3       1 FAD501      0.0000 
     43 O2'         9.4750   16.6960   23.9810 O.3       1 FAD501      0.0000 
     44 C3'        10.6810   14.6910   23.3160 C.3       1 FAD501      0.0000 
     45 O3'        10.6470   13.2760   23.4820 O.3       1 FAD501      0.0000 
     46 C4'        12.1140   15.1710   23.5620 C.3       1 FAD501      0.0000 
     47 O4'        12.3410   15.4360   24.9500 O.3       1 FAD501      0.0000 
     48 C5'        12.4680   16.3640   22.7030 C.3       1 FAD501      0.0000 
     49 O5'        12.2170   16.0240   21.3250 O.3       1 FAD501      0.0000 
     50 P          12.2980   17.1030   20.1750 P.3       1 FAD501      0.0000 
     51 O1P        13.2610   16.4890   19.1560 O.co2     1 FAD501      0.0000 
     52 O2P        12.5730   18.5020   20.6560 O.co2     1 FAD501      0.0000 
     53 O3P        10.8420   17.0350   19.5520 O.3       1 FAD501      0.0000 
@<TRIPOS>BOND
     1    1    2 ar   
     2    1    3 ar   
     3    1    4 1    
     4    1   53 1    
     5    4    5 1    
     6    5    6 1    
     7    6    7 1    
     8    6    8 1    
     9    7   12 1    
    10    8    9 1    
    11    8   10 1    
    12   10   11 1    
    13   10   12 1    
    14   12   13 1    
    15   13   14 1    
    16   13   22 1    
    17   14   15 2    
    18   15   16 1    
    19   16   17 ar   
    20   16   22 ar   
    21   17   18 1    
    22   17   19 ar   
    23   19   20 ar   
    24   20   21 ar   
    25   21   22 ar   
    26   23   24 1    
    27   23   40 2    
    28   24   25 2    
    29   24   26 am   
    30   26   27 am   
    31   27   28 2    
    32   27   29 1    
    33   29   30 2    
    34   29   40 1    
    35   30   31 1    
    36   31   32 ar   
    37   31   38 ar   
    38   32   33 ar   
    39   33   34 1    
    40   33   35 ar   
    41   35   36 1    
    42   35   37 ar   
    43   37   38 ar   
    44   38   39 1    
    45   39   40 1    
    46   39   41 1    
    47   41   42 1    
    48   42   43 1    
    49   42   44 1    
    50   44   45 1    
    51   44   46 1    
    52   46   47 1    
    53   46   48 1    
    54   48   49 1    
    55   49   50 1    
    56   50   51 ar   
    57   50   52 ar   
    58   50   53 1    
@<TRIPOS>SUBSTRUCTURE
     1 FAD501      1 GROUP   
@<TRIPOS>SET
ATOM$ORANGE STATIC     ATOMS   COLORGROUP SYSTEM 
54 5 5 6 6 8 8 10 10 12 12 14 14 16 16 17 17 20 \
20 22 22 24 24 27 27 29 29 31 31 32 32 33 33 34 34 35 \
35 36 36 37 37 38 38 40 40 41 41 42 42 44 44 46 46 48 \
48 

