#    Name: 5oiq_1_NAD
#    Modification time : Fri May 22 19:12:37 2020

@<TRIPOS>MOLECULE
5oiq_1_NAD
   44    48     1     0     1
SMALL
NO_CHARGES


@<TRIPOS>ATOM
      1 PA        -10.0070    5.9760   -0.4230 P.3       1 NAD302      0.0000 
      2 O1A       -11.2740    5.4850    0.1790 O.co2     1 NAD302      0.0000 
      3 O2A       -10.1600    7.2550   -1.2870 O.co2     1 NAD302      0.0000 
      4 O5B        -9.3530    4.8500   -1.3250 O.3       1 NAD302      0.0000 
      5 C5B        -9.2170    3.4400   -1.0610 C.3       1 NAD302      0.0000 
      6 C4B        -9.3510    2.8120   -2.4150 C.3       1 NAD302      0.0000 
      7 O4B        -9.3090    1.3660   -2.3350 O.3       1 NAD302      0.0000 
      8 C3B       -10.6510    3.1800   -3.1500 C.3       1 NAD302      0.0000 
      9 O3B       -10.3950    3.6740   -4.4610 O.3       1 NAD302      0.0000 
     10 C2B       -11.3840    1.8510   -3.2240 C.3       1 NAD302      0.0000 
     11 O2B       -12.2860    1.7720   -4.3180 O.3       1 NAD302      0.0000 
     12 C1B       -10.1980    0.9060   -3.3250 C.3       1 NAD302      0.0000 
     13 N9A       -10.5440   -0.5020   -3.1460 N.pl3     1 NAD302      0.0000 
     14 C8A       -11.2210   -1.0880   -2.1070 C.2       1 NAD302      0.0000 
     15 N7A       -11.4340   -2.3730   -2.2640 N.2       1 NAD302      0.0000 
     16 C5A       -10.8530   -2.6550   -3.4930 C.ar      1 NAD302      0.0000 
     17 C6A       -10.7470   -3.8430   -4.2450 C.ar      1 NAD302      0.0000 
     18 N6A       -11.2680   -5.0120   -3.8600 N.pl3     1 NAD302      0.0000 
     19 N1A       -10.0960   -3.7850   -5.4330 N.ar      1 NAD302      0.0000 
     20 C2A        -9.5930   -2.6100   -5.8380 C.ar      1 NAD302      0.0000 
     21 N3A        -9.6380   -1.4210   -5.2220 N.ar      1 NAD302      0.0000 
     22 C4A       -10.2910   -1.5110   -4.0450 C.ar      1 NAD302      0.0000 
     23 O3         -8.9590    6.3480    0.7140 O.3       1 NAD302      0.0000 
     24 PN         -7.5100    7.0060    0.8830 P.3       1 NAD302      0.0000 
     25 O1N        -7.0800    7.8090   -0.2900 O.co2     1 NAD302      0.0000 
     26 O2N        -7.5280    7.6240    2.2230 O.co2     1 NAD302      0.0000 
     27 O5D        -6.6700    5.6630    1.0620 O.3       1 NAD302      0.0000 
     28 C5D        -5.8540    5.0650    0.0260 C.3       1 NAD302      0.0000 
     29 C4D        -4.6650    4.4040    0.6890 C.3       1 NAD302      0.0000 
     30 O4D        -3.9620    5.3510    1.5350 O.3       1 NAD302      0.0000 
     31 C3D        -4.9940    3.2050    1.5840 C.3       1 NAD302      0.0000 
     32 O3D        -3.9830    2.2070    1.4820 O.3       1 NAD302      0.0000 
     33 C2D        -4.9900    3.8310    2.9770 C.3       1 NAD302      0.0000 
     34 O2D        -4.8010    2.8490    3.9790 O.3       1 NAD302      0.0000 
     35 C1D        -3.8390    4.8190    2.8270 C.3       1 NAD302      0.0000 
     36 N1N        -3.7930    5.9870    3.8390 N.pl3     1 NAD302      0.0000 
     37 C2N        -4.8010    6.8520    4.0690 C.ar      1 NAD302      0.0000 
     38 C3N        -4.6430    7.8750    4.9890 C.ar      1 NAD302      0.0000 
     39 C7N        -5.7370    8.8730    5.2700 C.2       1 NAD302      0.0000 
     40 O7N        -5.6450    9.6290    6.2830 O.2       1 NAD302      0.0000 
     41 N7N        -6.7730    8.9230    4.4290 N.am      1 NAD302      0.0000 
     42 C4N        -3.4280    7.9830    5.6670 C.ar      1 NAD302      0.0000 
     43 C5N        -2.4110    7.0790    5.4110 C.ar      1 NAD302      0.0000 
     44 C6N        -2.6120    6.0770    4.4840 C.ar      1 NAD302      0.0000 
@<TRIPOS>BOND
     1    1    2 ar   
     2    1    3 ar   
     3    1    4 1    
     4    1   23 1    
     5    4    5 1    
     6    5    6 1    
     7    6    7 1    
     8    6    8 1    
     9    7   12 1    
    10    8    9 1    
    11    8   10 1    
    12   10   11 1    
    13   10   12 1    
    14   12   13 1    
    15   13   14 1    
    16   13   22 1    
    17   14   15 2    
    18   15   16 1    
    19   16   17 ar   
    20   16   22 ar   
    21   17   18 1    
    22   17   19 ar   
    23   19   20 ar   
    24   20   21 ar   
    25   21   22 ar   
    26   23   24 1    
    27   24   25 ar   
    28   24   26 ar   
    29   24   27 1    
    30   27   28 1    
    31   28   29 1    
    32   29   30 1    
    33   29   31 1    
    34   30   35 1    
    35   31   32 1    
    36   31   33 1    
    37   33   34 1    
    38   33   35 1    
    39   35   36 1    
    40   36   37 ar   
    41   36   44 ar   
    42   37   38 ar   
    43   38   39 1    
    44   38   42 ar   
    45   39   40 2    
    46   39   41 am   
    47   42   43 ar   
    48   43   44 ar   
@<TRIPOS>SUBSTRUCTURE
     1 NAD302      1 GROUP   
@<TRIPOS>SET
ATOM$ORANGE STATIC     ATOMS   COLORGROUP SYSTEM 
42 5 5 6 6 8 8 10 10 12 12 14 14 16 16 17 17 20 \
20 22 22 28 28 29 29 31 31 33 33 35 35 37 37 38 38 39 \
39 42 42 43 43 44 44 

