#    Name: 6d4b_2_NAD
#    Modification time : Fri May 22 19:27:31 2020

@<TRIPOS>MOLECULE
6d4b_2_NAD
   70    74     1     0     1
SMALL
NO_CHARGES


@<TRIPOS>ATOM
      1 PA         -7.1090    8.2680   97.6840 P.3       1 NAD501      0.0000 
      2 O1A        -7.1530    9.2540   98.8630 O.co2     1 NAD501      0.0000 
      3 O2A        -7.8490    7.0140   97.8990 O.co2     1 NAD501      0.0000 
      4 O5B        -5.6190    7.8050   97.3880 O.3       1 NAD501      0.0000 
      5 C5B        -4.5750    8.7720   97.2700 C.3       1 NAD501      0.0000 
      6 C4B        -3.2250    8.0980   97.6180 C.3       1 NAD501      0.0000 
      7 O4B        -2.2750    8.9720   97.2610 O.3       1 NAD501      0.0000 
      8 C3B        -3.1240    7.7840   99.1060 C.3       1 NAD501      0.0000 
      9 O3B        -2.8450    6.4530   99.3610 O.3       1 NAD501      0.0000 
     10 C2B        -1.9910    8.7900   99.4840 C.3       1 NAD501      0.0000 
     11 O2B        -1.2840    8.3330  100.7120 O.3       1 NAD501      0.0000 
     12 C1B        -1.2390    8.8200   98.4100 C.3       1 NAD501      0.0000 
     13 N9A        -0.3160    9.9300   98.3770 N.pl3     1 NAD501      0.0000 
     14 C8A        -0.4670   11.1660   98.8980 C.2       1 NAD501      0.0000 
     15 N7A         0.6700   11.8580   98.6880 N.2       1 NAD501      0.0000 
     16 C5A         1.5330   11.0340   98.0280 C.ar      1 NAD501      0.0000 
     17 C6A         2.8220   11.2180   97.5940 C.ar      1 NAD501      0.0000 
     18 N6A         3.5760   12.3680   97.7070 N.pl3     1 NAD501      0.0000 
     19 N1A         3.4570   10.2370   96.9580 N.ar      1 NAD501      0.0000 
     20 C2A         2.8080    9.0550   96.7830 C.ar      1 NAD501      0.0000 
     21 N3A         1.5480    8.8530   97.2140 N.ar      1 NAD501      0.0000 
     22 C4A         0.9150    9.8520   97.8570 C.ar      1 NAD501      0.0000 
     23 O3         -7.5640    9.0640   96.4100 O.3       1 NAD501      0.0000 
     24 PN         -8.0540    8.5200   94.9540 P.3       1 NAD501      0.0000 
     25 O1N        -7.1490    7.3880   94.5610 O.co2     1 NAD501      0.0000 
     26 O2N        -9.5210    8.2460   94.9580 O.co2     1 NAD501      0.0000 
     27 O5D        -7.8490    9.7840   94.0490 O.3       1 NAD501      0.0000 
     28 C5D        -6.5310   10.3030   93.8900 C.3       1 NAD501      0.0000 
     29 C4D        -6.5720   11.6350   93.1210 C.3       1 NAD501      0.0000 
     30 O4D        -6.9080   11.3940   91.8460 O.3       1 NAD501      0.0000 
     31 C3D        -7.6590   12.6020   93.6880 C.3       1 NAD501      0.0000 
     32 O3D        -7.2110   13.3110   94.7640 O.3       1 NAD501      0.0000 
     33 C2D        -7.9220   13.4260   92.4090 C.3       1 NAD501      0.0000 
     34 O2D        -6.9480   14.5550   92.4340 O.3       1 NAD501      0.0000 
     35 C1D        -7.6670   12.6570   91.3110 C.3       1 NAD501      0.0000 
     36 N1N        -8.8400   12.1810   90.6120 N.pl3     1 NAD501      0.0000 
     37 C2N        -8.9990   12.4800   89.2690 C.ar      1 NAD501      0.0000 
     38 C3N       -10.1550   12.0690   88.6070 C.ar      1 NAD501      0.0000 
     39 C7N       -10.3270   12.4400   87.1470 C.2       1 NAD501      0.0000 
     40 O7N       -11.4310   12.6880   86.7360 O.2       1 NAD501      0.0000 
     41 N7N        -9.1870   12.5400   86.3090 N.am      1 NAD501      0.0000 
     42 C4N       -11.1490   11.3930   89.2670 C.ar      1 NAD501      0.0000 
     43 C5N       -10.9760   11.0880   90.6080 C.ar      1 NAD501      0.0000 
     44 C6N        -9.8110   11.4890   91.2760 C.ar      1 NAD501      0.0000 
     45 H51A       -4.5450    9.1000   96.3850 H         1 NAD501      0.0000 
     46 H52A       -4.7380    9.4950   97.8730 H         1 NAD501      0.0000 
     47 H4B        -3.1310    7.3250   97.1320 H         1 NAD501      0.0000 
     48 H3B        -3.9130    8.0250   99.5310 H         1 NAD501      0.0000 
     49 HO3A       -3.5070    6.0960   99.8070 H         1 NAD501      0.0000 
     50 H2B        -2.3890    9.6980   99.6430 H         1 NAD501      0.0000 
     51 HO2A       -1.7080    8.7040  101.4790 H         1 NAD501      0.0000 
     52 H1B        -0.7380    7.9450   98.3120 H         1 NAD501      0.0000 
     53 H8A        -1.2360   11.4880   99.3450 H         1 NAD501      0.0000 
     54 H61A        3.5880   12.8350   98.5010 H         1 NAD501      0.0000 
     55 H62A        4.0590   12.6640   97.0020 H         1 NAD501      0.0000 
     56 H2A         3.2850    8.3770   96.3440 H         1 NAD501      0.0000 
     57 H51N       -5.9900    9.6660   93.4060 H         1 NAD501      0.0000 
     58 H52N       -6.1340   10.4590   94.7820 H         1 NAD501      0.0000 
     59 H4D        -5.7090   12.0570   93.1560 H         1 NAD501      0.0000 
     60 H3D        -8.4930   12.0780   93.9390 H         1 NAD501      0.0000 
     61 HO3N       -7.6630   13.1010   95.4470 H         1 NAD501      0.0000 
     62 H2D        -8.8580   13.7650   92.3950 H         1 NAD501      0.0000 
     63 HO2N       -7.2820   15.2380   92.9540 H         1 NAD501      0.0000 
     64 H1D        -7.0700   13.1680   90.6670 H         1 NAD501      0.0000 
     65 H2N        -8.3080   13.0100   88.7880 H         1 NAD501      0.0000 
     66 H71N       -8.3630   12.3580   86.6410 H         1 NAD501      0.0000 
     67 H72N       -9.2900   12.7790   85.3940 H         1 NAD501      0.0000 
     68 H4N       -11.9260   11.1000   88.8010 H         1 NAD501      0.0000 
     69 H5N       -11.6980   10.5560   91.1090 H         1 NAD501      0.0000 
     70 H6N        -9.6980   11.2800   92.2510 H         1 NAD501      0.0000 
@<TRIPOS>BOND
     1    1    2 ar   
     2    1    3 ar   
     3    1    4 1    
     4    1   23 1    
     5    4    5 1    
     6    5    6 1    
     7    6    7 1    
     8    5   45 1    
     9    5   46 1    
    10    6    8 1    
    11    7   12 1    
    12    6   47 1    
    13    8    9 1    
    14    8   10 1    
    15   10   11 1    
    16    8   48 1    
    17    9   49 1    
    18   10   12 1    
    19   10   50 1    
    20   11   51 1    
    21   12   13 1    
    22   12   52 1    
    23   13   14 1    
    24   13   22 1    
    25   14   15 2    
    26   15   16 1    
    27   14   53 1    
    28   16   17 ar   
    29   16   22 ar   
    30   17   18 1    
    31   17   19 ar   
    32   18   54 1    
    33   19   20 ar   
    34   18   55 1    
    35   20   21 ar   
    36   21   22 ar   
    37   20   56 1    
    38   23   24 1    
    39   24   25 ar   
    40   24   26 ar   
    41   24   27 1    
    42   27   28 1    
    43   28   29 1    
    44   28   57 1    
    45   28   58 1    
    46   29   30 1    
    47   29   31 1    
    48   29   59 1    
    49   30   35 1    
    50   31   32 1    
    51   31   33 1    
    52   31   60 1    
    53   32   61 1    
    54   33   34 1    
    55   33   35 1    
    56   33   62 1    
    57   34   63 1    
    58   35   36 1    
    59   35   64 1    
    60   36   37 ar   
    61   36   44 ar   
    62   37   38 ar   
    63   37   65 1    
    64   38   39 1    
    65   38   42 ar   
    66   39   40 2    
    67   39   41 am   
    68   42   43 ar   
    69   41   66 1    
    70   41   67 1    
    71   42   68 1    
    72   43   44 ar   
    73   43   69 1    
    74   44   70 1    
@<TRIPOS>SUBSTRUCTURE
     1 NAD501      1 GROUP   
@<TRIPOS>SET
ATOM$ORANGE STATIC     ATOMS   COLORGROUP SYSTEM 
42 5 5 6 6 8 8 10 10 12 12 14 14 16 16 17 17 20 \
20 22 22 28 28 29 29 31 31 33 33 35 35 37 37 38 38 39 \
39 42 42 43 43 44 44 

