#    Name: 6ssq_1_754
#    Modification time : Fri May 22 19:30:12 2020

@<TRIPOS>MOLECULE
6ssq_1_754
   29    30     1     0     0
SMALL
NO_CHARGES


@<TRIPOS>ATOM
      1 C1         37.0410  -13.2280   -9.0150 C.ar      1 754501      0.0000 
      2 O1         37.2550   -9.6140  -11.0640 O.3       1 754501      0.0000 
      3 C2         37.2260  -13.2180  -10.4070 C.ar      1 754501      0.0000 
      4 O2         40.6690   -7.4530   -0.9810 O.co2     1 754501      0.0000 
      5 C3         36.8810  -12.0240   -8.3450 C.ar      1 754501      0.0000 
      6 O3         39.0960   -5.9440   -1.3250 O.co2     1 754501      0.0000 
      7 C4         37.0140  -14.5200   -8.1940 C.3       1 754501      0.0000 
      8 C5         37.2930  -12.0070  -11.0710 C.ar      1 754501      0.0000 
      9 C6         37.3780  -14.4820  -11.2470 C.3       1 754501      0.0000 
     10 C7         37.1880  -10.8160  -10.3960 C.ar      1 754501      0.0000 
     11 C8         37.0090  -10.7990   -9.0060 C.ar      1 754501      0.0000 
     12 C9         37.4890  -15.7150   -9.0250 C.3       1 754501      0.0000 
     13 C10        36.9660  -15.7210  -10.4470 C.3       1 754501      0.0000 
     14 C11        37.0180   -9.5450   -8.2150 C.2       1 754501      0.0000 
     15 C12        36.6070   -9.9990  -13.3930 C.3       1 754501      0.0000 
     16 C13        35.6460  -14.7050   -7.5240 C.3       1 754501      0.0000 
     17 C14        38.0750  -14.4640   -7.0920 C.3       1 754501      0.0000 
     18 C15        36.4050  -14.4470  -12.4240 C.3       1 754501      0.0000 
     19 C16        38.7780  -14.5200  -11.8650 C.3       1 754501      0.0000 
     20 C17        37.6730   -9.5860   -7.0120 C.2       1 754501      0.0000 
     21 C18        36.2830   -8.3290   -8.7010 C.3       1 754501      0.0000 
     22 C19        37.6670   -8.5660   -5.9930 C.2       1 754501      0.0000 
     23 C20        38.3120   -8.6680   -4.8260 C.2       1 754501      0.0000 
     24 C21        38.3540   -7.6740   -3.7750 C.2       1 754501      0.0000 
     25 C22        39.2820   -7.8330   -2.8070 C.2       1 754501      0.0000 
     26 C23        37.4330   -6.4940   -3.9050 C.3       1 754501      0.0000 
     27 C24        39.6590   -6.9760   -1.6540 C.2       1 754501      0.0000 
     28 C25        36.2620   -9.3640  -12.0760 C.3       1 754501      0.0000 
     29 C26        35.3740  -10.2050  -14.2520 C.3       1 754501      0.0000 
@<TRIPOS>BOND
     1   25   27 1    
     2    1    3 ar   
     3    1    5 ar   
     4    1    7 1    
     5    2   10 1    
     6    2   28 1    
     7    3    8 ar   
     8    3    9 1    
     9    4   27 ar   
    10    5   11 ar   
    11    6   27 ar   
    12    7   12 1    
    13    7   16 1    
    14    7   17 1    
    15    8   10 ar   
    16    9   13 1    
    17    9   18 1    
    18    9   19 1    
    19   10   11 ar   
    20   11   14 1    
    21   12   13 1    
    22   14   20 2    
    23   14   21 1    
    24   15   28 1    
    25   15   29 1    
    26   20   22 1    
    27   22   23 2    
    28   23   24 1    
    29   24   25 2    
    30   24   26 1    
@<TRIPOS>SUBSTRUCTURE
     1 754501      1 GROUP   
@<TRIPOS>SET

