#    Name: 6ssq_2_754
#    Modification time : Fri May 22 19:30:14 2020

@<TRIPOS>MOLECULE
6ssq_2_754
   29    30     1     0     0
SMALL
NO_CHARGES


@<TRIPOS>ATOM
      1 C1         19.5550  -14.9450  -30.3520 C.ar      1 754501      0.0000 
      2 O1         18.7590  -11.9490  -33.0370 O.3       1 754501      0.0000 
      3 C2         20.3390  -14.8350  -31.5130 C.ar      1 754501      0.0000 
      4 O2         10.3810  -11.5270  -36.2680 O.co2     1 754501      0.0000 
      5 C3         18.3240  -14.2910  -30.3090 C.ar      1 754501      0.0000 
      6 O3         10.2420   -9.7840  -34.9260 O.co2     1 754501      0.0000 
      7 C4         19.9530  -15.8010  -29.1530 C.3       1 754501      0.0000 
      8 C5         20.0140  -13.8910  -32.4690 C.ar      1 754501      0.0000 
      9 C6         21.6080  -15.6540  -31.7280 C.3       1 754501      0.0000 
     10 C7         18.9010  -13.0980  -32.3070 C.ar      1 754501      0.0000 
     11 C8         18.0130  -13.3020  -31.2420 C.ar      1 754501      0.0000 
     12 C9         21.2470  -16.6040  -29.4210 C.3       1 754501      0.0000 
     13 C10        22.2440  -15.9420  -30.3690 C.3       1 754501      0.0000 
     14 C11        16.7650  -12.5220  -31.0930 C.2       1 754501      0.0000 
     15 C12        20.7940  -10.9780  -34.0040 C.3       1 754501      0.0000 
     16 C13        18.8530  -16.8240  -28.8560 C.3       1 754501      0.0000 
     17 C14        20.1170  -14.9300  -27.9000 C.3       1 754501      0.0000 
     18 C15        21.2570  -16.9410  -32.4710 C.3       1 754501      0.0000 
     19 C16        22.5870  -14.8690  -32.6090 C.3       1 754501      0.0000 
     20 C17        15.9480  -12.4040  -32.1600 C.2       1 754501      0.0000 
     21 C18        16.4570  -11.9520  -29.7390 C.3       1 754501      0.0000 
     22 C19        14.6940  -11.7170  -32.2300 C.2       1 754501      0.0000 
     23 C20        13.9500  -11.6860  -33.3400 C.2       1 754501      0.0000 
     24 C21        12.6720  -11.0350  -33.5300 C.2       1 754501      0.0000 
     25 C22        11.9610  -11.4190  -34.6100 C.2       1 754501      0.0000 
     26 C23        12.2170  -10.0530  -32.4840 C.3       1 754501      0.0000 
     27 C24        10.7840  -10.8250  -35.2600 C.2       1 754501      0.0000 
     28 C25        19.7990  -10.9650  -32.8730 C.3       1 754501      0.0000 
     29 C26        21.9330   -9.9980  -33.7710 C.3       1 754501      0.0000 
@<TRIPOS>BOND
     1    1    3 ar   
     2    1    5 ar   
     3    1    7 1    
     4    2   10 1    
     5    2   28 1    
     6    3    8 ar   
     7    3    9 1    
     8    4   27 ar   
     9    5   11 ar   
    10    6   27 ar   
    11    7   12 1    
    12    7   16 1    
    13    7   17 1    
    14    8   10 ar   
    15    9   13 1    
    16    9   18 1    
    17    9   19 1    
    18   10   11 ar   
    19   11   14 1    
    20   12   13 1    
    21   14   20 2    
    22   14   21 1    
    23   15   28 1    
    24   15   29 1    
    25   20   22 1    
    26   22   23 2    
    27   23   24 1    
    28   24   25 2    
    29   24   26 1    
    30   25   27 1    
@<TRIPOS>SUBSTRUCTURE
     1 754501      1 GROUP   
@<TRIPOS>SET

