#    Name: 6c1q_1_PHE_PRO_TRP_ARG_ACE_ORN_ZAL
#    Modification time : Fri May 22 19:33:31 2020

@<TRIPOS>MOLECULE
6c1q_1_PHE_PRO_TRP_ARG_ACE_ORN_ZAL
   65    70     7     0     0
SMALL
NO_CHARGES


@<TRIPOS>ATOM
      1 N          -2.5110   29.1300   13.6330 N.am      1 PHE1        0.0000 
      2 CA         -1.4000   28.6390   14.4380 C.3       1 PHE1        0.0000 
      3 C          -0.6500   29.7960   15.0860 C.2       1 PHE1        0.0000 
      4 O          -0.5410   30.8790   14.5110 O.2       1 PHE1        0.0000 
      5 CB         -0.4420   27.8010   13.5880 C.3       1 PHE1        0.0000 
      6 CG          0.7540   27.2950   14.3440 C.ar      1 PHE1        0.0000 
      7 CD1         0.6480   26.1960   15.1810 C.ar      1 PHE1        0.0000 
      8 CD2         1.9860   27.9190   14.2190 C.ar      1 PHE1        0.0000 
      9 CE1         1.7460   25.7290   15.8790 C.ar      1 PHE1        0.0000 
     10 CE2         3.0880   27.4560   14.9150 C.ar      1 PHE1        0.0000 
     11 CZ          2.9670   26.3590   15.7450 C.ar      1 PHE1        0.0000 
     12 N           2.8730   30.1730   17.8270 N.am      2 PRO3        0.0000 
     13 CA          3.8940   29.5770   18.6950 C.3       2 PRO3        0.0000 
     14 C           3.8160   30.1050   20.1240 C.2       2 PRO3        0.0000 
     15 O           3.4030   31.2450   20.3390 O.2       2 PRO3        0.0000 
     16 CB          5.2070   29.9960   18.0290 C.3       2 PRO3        0.0000 
     17 CG          4.8710   31.2560   17.3100 C.3       2 PRO3        0.0000 
     18 CD          3.4620   31.0740   16.8210 C.3       2 PRO3        0.0000 
     19 N           2.2950   30.4120   23.7120 N.am      3 TRP5        0.0000 
     20 CA          1.0610   30.2370   24.4700 C.3       3 TRP5        0.0000 
     21 C          -0.1270   30.9530   23.8310 C.2       3 TRP5        0.0000 
     22 O          -1.2510   30.4510   23.8570 O.2       3 TRP5        0.0000 
     23 CB          1.2610   30.7210   25.9070 C.3       3 TRP5        0.0000 
     24 CG          2.2330   29.8760   26.6760 C.2       3 TRP5        0.0000 
     25 CD1         1.9480   28.7530   27.3960 C.2       3 TRP5        0.0000 
     26 CD2         3.6480   30.0790   26.7930 C.ar      3 TRP5        0.0000 
     27 NE1         3.0940   28.2460   27.9580 N.pl3     3 TRP5        0.0000 
     28 CE2         4.1520   29.0410   27.6030 C.ar      3 TRP5        0.0000 
     29 CE3         4.5370   31.0360   26.2940 C.ar      3 TRP5        0.0000 
     30 CZ2         5.5030   28.9350   27.9260 C.ar      3 TRP5        0.0000 
     31 CZ3         5.8780   30.9290   26.6170 C.ar      3 TRP5        0.0000 
     32 CH2         6.3480   29.8860   27.4240 C.ar      3 TRP5        0.0000 
     33 N           0.1210   32.1320   23.2700 N.am      4 ARG6        0.0000 
     34 CA         -0.9100   32.8580   22.5350 C.3       4 ARG6        0.0000 
     35 C          -0.3490   33.3930   21.2230 C.2       4 ARG6        0.0000 
     36 O           0.7830   33.8750   21.1730 O.2       4 ARG6        0.0000 
     37 CB         -1.4810   34.0080   23.3690 C.3       4 ARG6        0.0000 
     38 CG         -2.4460   33.5850   24.4690 C.3       4 ARG6        0.0000 
     39 CD         -1.7130   33.2290   25.7510 C.3       4 ARG6        0.0000 
     40 NE         -0.7880   34.2840   26.1500 N.pl3     4 ARG6        0.0000 
     41 CZ         -1.1230   35.3250   26.9050 C.cat     4 ARG6        0.0000 
     42 NH1        -0.2150   36.2380   27.2180 N.pl3     4 ARG6        0.0000 
     43 NH2        -2.3650   35.4480   27.3530 N.pl3     4 ARG6        0.0000 
     44 C          -3.5800   29.6780   14.2020 C.2       5 ACE0        0.0000 
     45 O          -3.7040   29.7660   15.4230 O.2       5 ACE0        0.0000 
     46 CH3        -4.6300   30.1750   13.2530 C.3       5 ACE0        0.0000 
     47 N          -0.1360   29.5590   16.2870 N.am      6 ORN2        0.0000 
     48 CA          0.6070   30.5770   17.0140 C.3       6 ORN2        0.0000 
     49 CB         -0.3560   31.5080   17.7530 C.3       6 ORN2        0.0000 
     50 CG          0.2640   32.8190   18.1970 C.3       6 ORN2        0.0000 
     51 CD         -0.7200   33.7770   18.8480 C.3       6 ORN2        0.0000 
     52 NE         -1.1480   33.3130   20.1640 N.4       6 ORN2        0.0000 
     53 C           1.5670   29.9220   17.9970 C.2       6 ORN2        0.0000 
     54 O           1.1400   29.1990   18.8960 O.2       6 ORN2        0.0000 
     55 C1          6.4910   28.6760   22.2550 C.3       7 ZAL4        0.0000 
     56 C2          7.2600   29.9660   22.0080 C.3       7 ZAL4        0.0000 
     57 C3          8.2220   30.3330   23.1160 C.3       7 ZAL4        0.0000 
     58 C4          9.1290   29.1750   23.4790 C.3       7 ZAL4        0.0000 
     59 C5          8.3120   27.9700   23.8920 C.3       7 ZAL4        0.0000 
     60 C6          7.3440   27.5430   22.8100 C.3       7 ZAL4        0.0000 
     61 N           4.2030   29.2770   21.0880 N.4       7 ZAL4        0.0000 
     62 CA          4.2210   29.6820   22.4510 C.3       7 ZAL4        0.0000 
     63 CB          5.3160   28.9470   23.1970 C.3       7 ZAL4        0.0000 
     64 C           2.8840   29.3930   23.0940 C.2       7 ZAL4        0.0000 
     65 O           2.3750   28.2430   23.0240 O.co2     7 ZAL4        0.0000 
@<TRIPOS>BOND
     1    1    2 1    
     2    1   44 du   
     3    2    3 1    
     4    2    5 1    
     5    3    4 2    
     6    3   47 du   
     7    5    6 1    
     8    6    7 ar   
     9    6    8 ar   
    10    7    9 ar   
    11    8   10 ar   
    12    9   11 ar   
    13   10   11 ar   
    14   12   13 1    
    15   12   18 1    
    16   12   53 am   
    17   13   14 1    
    18   13   16 1    
    19   14   15 2    
    20   14   61 du   
    21   16   17 1    
    22   17   18 1    
    23   19   20 1    
    24   19   64 du   
    25   20   21 1    
    26   20   23 1    
    27   21   22 2    
    28   21   33 am   
    29   23   24 1    
    30   24   25 2    
    31   24   26 1    
    32   25   27 1    
    33   26   28 ar   
    34   26   29 ar   
    35   27   28 1    
    36   28   30 ar   
    37   29   31 ar   
    38   30   32 ar   
    39   31   32 ar   
    40   33   34 1    
    41   34   35 1    
    42   34   37 1    
    43   35   36 2    
    44   35   52 du   
    45   37   38 1    
    46   38   39 1    
    47   39   40 1    
    48   40   41 ar   
    49   41   42 ar   
    50   41   43 ar   
    51   44   45 2    
    52   44   46 1    
    53   47   48 1    
    54   48   49 1    
    55   48   53 1    
    56   49   50 1    
    57   50   51 1    
    58   51   52 1    
    59   53   54 2    
    60   55   56 1    
    61   55   60 1    
    62   55   63 1    
    63   56   57 1    
    64   57   58 1    
    65   58   59 1    
    66   59   60 1    
    67   61   62 1    
    68   62   63 1    
    69   62   64 1    
    70   64   65 ar   
@<TRIPOS>SUBSTRUCTURE
     1 PHE1        1 RESIDUE 
     2 PRO3       12 RESIDUE 
     3 TRP5       19 RESIDUE 
     4 ARG6       33 RESIDUE 
     5 ACE0       44 GROUP   
     6 ORN2       47 RESIDUE 
     7 ZAL4       55 GROUP   
@<TRIPOS>SET

