#    Name: 6v87_1_OHT
#    Modification time : Fri May 22 19:29:46 2020

@<TRIPOS>MOLECULE
6v87_1_OHT
   29    31     1     0     0
SMALL
NO_CHARGES


@<TRIPOS>ATOM
      1 C10        -5.2280  -18.7290   21.0080 C.3       1 OHT601      0.0000 
      2 C9         -6.4470  -18.5990   20.1220 C.3       1 OHT601      0.0000 
      3 C8         -6.1130  -18.1260   18.7070 C.2       1 OHT601      0.0000 
      4 C11        -5.7020  -19.2680   17.8450 C.ar      1 OHT601      0.0000 
      5 C16        -4.7690  -19.0610   16.9070 C.ar      1 OHT601      0.0000 
      6 C15        -4.3420  -20.0850   16.1190 C.ar      1 OHT601      0.0000 
      7 C14        -4.8760  -21.3660   16.3070 C.ar      1 OHT601      0.0000 
      8 C13        -5.7970  -21.5670   17.2350 C.ar      1 OHT601      0.0000 
      9 C12        -6.2370  -20.5330   18.0330 C.ar      1 OHT601      0.0000 
     10 C7         -7.3140  -17.3970   18.2010 C.2       1 OHT601      0.0000 
     11 C1         -7.4770  -16.0320   18.8230 C.ar      1 OHT601      0.0000 
     12 C2         -8.5520  -15.2900   18.3950 C.ar      1 OHT601      0.0000 
     13 C3         -8.8030  -14.0390   18.8950 C.ar      1 OHT601      0.0000 
     14 C4         -7.9620  -13.5150   19.8490 C.ar      1 OHT601      0.0000 
     15 O4         -8.2140  -12.2750   20.3300 O.3       1 OHT601      0.0000 
     16 C5         -6.8860  -14.2640   20.2990 C.ar      1 OHT601      0.0000 
     17 C6         -6.6420  -15.5210   19.7910 C.ar      1 OHT601      0.0000 
     18 C17        -7.3120  -17.1730   16.6850 C.ar      1 OHT601      0.0000 
     19 C18        -8.0830  -18.0130   15.9510 C.ar      1 OHT601      0.0000 
     20 C19        -8.1820  -17.8720   14.5820 C.ar      1 OHT601      0.0000 
     21 C20        -7.5120  -16.8750   13.9530 C.ar      1 OHT601      0.0000 
     22 O20        -7.6570  -16.7960   12.5470 O.3       1 OHT601      0.0000 
     23 C23        -7.7090  -15.5410   12.0500 C.3       1 OHT601      0.0000 
     24 C24        -6.9740  -15.4710   10.7370 C.3       1 OHT601      0.0000 
     25 N24        -7.8330  -16.0990    9.6950 N.4       1 OHT601      0.0000 
     26 C25        -8.2220  -15.1420    8.7360 C.3       1 OHT601      0.0000 
     27 C26        -7.1490  -17.1550    9.0820 C.3       1 OHT601      0.0000 
     28 C21        -6.7340  -16.0160   14.6880 C.ar      1 OHT601      0.0000 
     29 C22        -6.6360  -16.1520   16.0750 C.ar      1 OHT601      0.0000 
@<TRIPOS>BOND
     1    1    2 1    
     2    2    3 1    
     3    3    4 1    
     4    3   10 2    
     5    4    5 ar   
     6    4    9 ar   
     7    5    6 ar   
     8    6    7 ar   
     9    7    8 ar   
    10    8    9 ar   
    11   10   11 1    
    12   10   18 1    
    13   11   12 ar   
    14   11   17 ar   
    15   12   13 ar   
    16   13   14 ar   
    17   14   15 1    
    18   14   16 ar   
    19   16   17 ar   
    20   18   19 ar   
    21   18   29 ar   
    22   19   20 ar   
    23   20   21 ar   
    24   21   22 1    
    25   21   28 ar   
    26   22   23 1    
    27   23   24 1    
    28   24   25 1    
    29   25   26 1    
    30   25   27 1    
    31   28   29 ar   
@<TRIPOS>SUBSTRUCTURE
     1 OHT601      1 GROUP   
@<TRIPOS>SET

