#    Name: 6v87_2_OHT
#    Modification time : Fri May 22 19:29:49 2020

@<TRIPOS>MOLECULE
6v87_2_OHT
   29    31     1     0     0
SMALL
NO_CHARGES


@<TRIPOS>ATOM
      1 C10        20.7760  -22.9660   10.6400 C.3       1 OHT601      0.0000 
      2 C9         21.2800  -24.3630   10.2620 C.3       1 OHT601      0.0000 
      3 C8         20.8240  -25.4520   11.2430 C.2       1 OHT601      0.0000 
      4 C11        19.5320  -25.9830   10.6690 C.ar      1 OHT601      0.0000 
      5 C16        18.4600  -26.3740   11.4250 C.ar      1 OHT601      0.0000 
      6 C15        17.3080  -26.8380   10.8000 C.ar      1 OHT601      0.0000 
      7 C14        17.2430  -26.8950    9.3750 C.ar      1 OHT601      0.0000 
      8 C13        18.2790  -26.5010    8.6260 C.ar      1 OHT601      0.0000 
      9 C12        19.4480  -26.0300    9.2640 C.ar      1 OHT601      0.0000 
     10 C7         21.9360  -26.5110   11.3840 C.2       1 OHT601      0.0000 
     11 C1         23.0480  -26.1070   12.3570 C.ar      1 OHT601      0.0000 
     12 C2         24.1760  -26.9330   12.4880 C.ar      1 OHT601      0.0000 
     13 C3         25.2180  -26.6080   13.3740 C.ar      1 OHT601      0.0000 
     14 C4         25.1510  -25.4520   14.1510 C.ar      1 OHT601      0.0000 
     15 O4         26.1720  -25.1070   15.0360 O.3       1 OHT601      0.0000 
     16 C5         24.0230  -24.6170   14.0340 C.ar      1 OHT601      0.0000 
     17 C6         22.9750  -24.9470   13.1410 C.ar      1 OHT601      0.0000 
     18 C17        21.4000  -27.8970   11.8670 C.ar      1 OHT601      0.0000 
     19 C18        21.2840  -28.9560   10.9600 C.ar      1 OHT601      0.0000 
     20 C19        20.8100  -30.2100   11.4070 C.ar      1 OHT601      0.0000 
     21 C20        20.4650  -30.4010   12.7490 C.ar      1 OHT601      0.0000 
     22 O20        19.9900  -31.6800   13.2240 O.3       1 OHT601      0.0000 
     23 C23        20.6120  -32.1470   14.3690 C.3       1 OHT601      0.0000 
     24 C24        19.6430  -33.0500   15.1210 C.3       1 OHT601      0.0000 
     25 N24        19.3620  -34.2460   14.2640 N.4       1 OHT601      0.0000 
     26 C25        19.6650  -35.4230   15.0000 C.3       1 OHT601      0.0000 
     27 C26        18.0190  -34.2410   13.8340 C.3       1 OHT601      0.0000 
     28 C21        20.5880  -29.3550   13.6540 C.ar      1 OHT601      0.0000 
     29 C22        21.0680  -28.0810   13.2080 C.ar      1 OHT601      0.0000 
@<TRIPOS>BOND
     1    1    2 1    
     2    2    3 1    
     3    3    4 1    
     4    3   10 2    
     5    4    5 ar   
     6    4    9 ar   
     7    5    6 ar   
     8    6    7 ar   
     9    7    8 ar   
    10    8    9 ar   
    11   10   11 1    
    12   10   18 1    
    13   11   12 ar   
    14   11   17 ar   
    15   12   13 ar   
    16   13   14 ar   
    17   14   15 1    
    18   14   16 ar   
    19   16   17 ar   
    20   18   19 ar   
    21   18   29 ar   
    22   19   20 ar   
    23   20   21 ar   
    24   21   22 1    
    25   21   28 ar   
    26   22   23 1    
    27   23   24 1    
    28   24   25 1    
    29   25   26 1    
    30   25   27 1    
    31   28   29 ar   
@<TRIPOS>SUBSTRUCTURE
     1 OHT601      1 GROUP   
@<TRIPOS>SET

