#    Name: 5yt3_3_ANP
#    Modification time : Fri May 22 19:24:11 2020

@<TRIPOS>MOLECULE
5yt3_3_ANP
   31    33     1     0     1
SMALL
NO_CHARGES


@<TRIPOS>ATOM
      1 PG        -13.5240  -17.2960    6.9550 P.3       1 ANP401      0.0000 
      2 O1G       -12.7890  -18.0170    5.8470 O.co2     1 ANP401      0.0000 
      3 O2G       -14.2000  -15.9810    6.5990 O.co2     1 ANP401      0.0000 
      4 O3G       -12.7190  -17.1930    8.2360 O.co2     1 ANP401      0.0000 
      5 PB        -16.3030  -17.9850    7.7480 P.3       1 ANP401      0.0000 
      6 O1B       -16.7350  -16.9170    6.8050 O.co2     1 ANP401      0.0000 
      7 O2B       -17.1580  -19.2080    7.9170 O.co2     1 ANP401      0.0000 
      8 N3B       -14.7220  -18.5220    7.2910 N.3       1 ANP401      0.0000 
      9 PA        -16.2620  -15.9970    9.8310 P.3       1 ANP401      0.0000 
     10 O1A       -15.6880  -15.0470    8.8020 O.co2     1 ANP401      0.0000 
     11 O2A       -15.5820  -16.3200   11.1550 O.co2     1 ANP401      0.0000 
     12 O3A       -16.2730  -17.5000    9.2780 O.3       1 ANP401      0.0000 
     13 O5'       -17.8040  -15.5070   10.0000 O.3       1 ANP401      0.0000 
     14 C5'       -18.7090  -16.2880   10.8140 C.3       1 ANP401      0.0000 
     15 C4'       -20.1440  -15.7860   10.6870 C.3       1 ANP401      0.0000 
     16 O4'       -20.1070  -14.4390   11.0980 O.3       1 ANP401      0.0000 
     17 C3'       -20.6430  -15.7510    9.2500 C.3       1 ANP401      0.0000 
     18 O3'       -21.7280  -16.6520    8.9940 O.3       1 ANP401      0.0000 
     19 C2'       -21.0790  -14.3350    9.0510 C.3       1 ANP401      0.0000 
     20 O2'       -22.3050  -14.2990    8.3490 O.3       1 ANP401      0.0000 
     21 C1'       -21.0740  -13.6970   10.4260 C.3       1 ANP401      0.0000 
     22 N9        -20.5740  -12.3260   10.1950 N.pl3     1 ANP401      0.0000 
     23 C8        -19.3080  -11.9810    9.8930 C.2       1 ANP401      0.0000 
     24 N7        -19.1990  -10.6520    9.6540 N.2       1 ANP401      0.0000 
     25 C5        -20.3990  -10.1300    9.8260 C.ar      1 ANP401      0.0000 
     26 C6        -20.9720   -8.7880    9.7460 C.ar      1 ANP401      0.0000 
     27 N6        -20.1650   -7.7590    9.4320 N.pl3     1 ANP401      0.0000 
     28 N1        -22.2910   -8.6160    9.9920 N.ar      1 ANP401      0.0000 
     29 C2        -23.0710   -9.6540   10.3220 C.ar      1 ANP401      0.0000 
     30 N3        -22.6060  -10.9080   10.4180 N.ar      1 ANP401      0.0000 
     31 C4        -21.3070  -11.2130   10.1760 C.ar      1 ANP401      0.0000 
@<TRIPOS>BOND
     1    1    2 ar   
     2    1    3 ar   
     3    1    4 ar   
     4    1    8 1    
     5    5    6 ar   
     6    5    7 ar   
     7    5    8 1    
     8    5   12 1    
     9    9   10 ar   
    10    9   11 ar   
    11    9   12 1    
    12    9   13 1    
    13   13   14 1    
    14   14   15 1    
    15   15   16 1    
    16   15   17 1    
    17   16   21 1    
    18   17   18 1    
    19   17   19 1    
    20   19   20 1    
    21   19   21 1    
    22   21   22 1    
    23   22   23 1    
    24   22   31 1    
    25   23   24 2    
    26   24   25 1    
    27   25   26 ar   
    28   25   31 ar   
    29   26   27 1    
    30   26   28 ar   
    31   28   29 ar   
    32   29   30 ar   
    33   30   31 ar   
@<TRIPOS>SUBSTRUCTURE
     1 ANP401      1 GROUP   
@<TRIPOS>SET
ATOM$ORANGE STATIC     ATOMS   COLORGROUP SYSTEM 
20 14 14 15 15 17 17 19 19 21 21 23 23 25 25 26 26 29 \
29 31 31 

