#    Name: 5yt3_2_ANP
#    Modification time : Fri May 22 19:24:02 2020

@<TRIPOS>MOLECULE
5yt3_2_ANP
   31    33     1     0     1
SMALL
NO_CHARGES


@<TRIPOS>ATOM
      1 PG        -34.6400  -10.2920  -38.3270 P.3       1 ANP401      0.0000 
      2 O1G       -33.5380  -10.1220  -39.3450 O.co2     1 ANP401      0.0000 
      3 O2G       -34.2340   -9.7780  -36.9770 O.co2     1 ANP401      0.0000 
      4 O3G       -35.3520  -11.6360  -38.2610 O.co2     1 ANP401      0.0000 
      5 PB        -36.7680   -8.4970  -37.4500 P.3       1 ANP401      0.0000 
      6 O1B       -37.9930   -7.8300  -38.0470 O.co2     1 ANP401      0.0000 
      7 O2B       -35.8680   -7.7220  -36.5110 O.co2     1 ANP401      0.0000 
      8 N3B       -35.8660   -9.1620  -38.7900 N.3       1 ANP401      0.0000 
      9 PA        -38.4440  -10.6080  -37.2570 P.3       1 ANP401      0.0000 
     10 O1A       -38.0190  -11.1020  -38.6180 O.co2     1 ANP401      0.0000 
     11 O2A       -39.7330   -9.8290  -37.0950 O.co2     1 ANP401      0.0000 
     12 O3A       -37.2960   -9.7260  -36.5920 O.3       1 ANP401      0.0000 
     13 O5'       -38.2450  -11.7980  -36.1830 O.3       1 ANP401      0.0000 
     14 C5'       -39.2910  -12.2020  -35.3100 C.3       1 ANP401      0.0000 
     15 C4'       -39.9000  -13.5890  -35.5650 C.3       1 ANP401      0.0000 
     16 O4'       -41.0820  -13.5620  -34.7770 O.3       1 ANP401      0.0000 
     17 C3'       -40.4170  -13.8700  -36.9760 C.3       1 ANP401      0.0000 
     18 O3'       -39.5880  -14.7690  -37.6790 O.3       1 ANP401      0.0000 
     19 C2'       -41.7490  -14.5520  -36.7990 C.3       1 ANP401      0.0000 
     20 O2'       -41.5910  -15.9510  -36.5800 O.3       1 ANP401      0.0000 
     21 C1'       -42.2380  -13.9950  -35.4870 C.3       1 ANP401      0.0000 
     22 N9        -43.0970  -12.8220  -35.7400 N.pl3     1 ANP401      0.0000 
     23 C8        -42.6910  -11.5770  -36.0640 C.2       1 ANP401      0.0000 
     24 N7        -43.7700  -10.7870  -36.2280 N.2       1 ANP401      0.0000 
     25 C5        -44.8660  -11.5250  -36.0160 C.ar      1 ANP401      0.0000 
     26 C6        -46.3010  -11.3020  -36.0210 C.ar      1 ANP401      0.0000 
     27 N6        -46.7860  -10.0760  -36.3010 N.pl3     1 ANP401      0.0000 
     28 N1        -47.1150  -12.3470  -35.7470 N.ar      1 ANP401      0.0000 
     29 C2        -46.6530  -13.5710  -35.4740 C.ar      1 ANP401      0.0000 
     30 N3        -45.3410  -13.8140  -35.4570 N.ar      1 ANP401      0.0000 
     31 C4        -44.4250  -12.8620  -35.7050 C.ar      1 ANP401      0.0000 
@<TRIPOS>BOND
     1    1    2 ar   
     2    1    3 ar   
     3    1    4 ar   
     4    1    8 1    
     5    5    6 ar   
     6    5    7 ar   
     7    5    8 1    
     8    5   12 1    
     9    9   10 ar   
    10    9   11 ar   
    11    9   12 1    
    12    9   13 1    
    13   13   14 1    
    14   14   15 1    
    15   15   16 1    
    16   15   17 1    
    17   16   21 1    
    18   17   18 1    
    19   17   19 1    
    20   19   20 1    
    21   19   21 1    
    22   21   22 1    
    23   22   23 1    
    24   22   31 1    
    25   23   24 2    
    26   24   25 1    
    27   25   26 ar   
    28   25   31 ar   
    29   26   27 1    
    30   26   28 ar   
    31   28   29 ar   
    32   29   30 ar   
    33   30   31 ar   
@<TRIPOS>SUBSTRUCTURE
     1 ANP401      1 GROUP   
@<TRIPOS>SET
ATOM$ORANGE STATIC     ATOMS   COLORGROUP SYSTEM 
20 14 14 15 15 17 17 19 19 21 21 23 23 25 25 26 26 29 \
29 31 31 

