#    Name: 6bbm_1_ADP
#    Modification time : Fri May 22 19:27:17 2020

@<TRIPOS>MOLECULE
6bbm_1_ADP
   27    29     1     0     1
SMALL
NO_CHARGES


@<TRIPOS>ATOM
      1 PB        161.0880  161.4810  140.4270 P.3       1 ADP500      0.0000 
      2 O1B       162.1820  161.7710  139.4390 O.co2     1 ADP500      0.0000 
      3 O2B       161.2720  160.2350  141.2410 O.co2     1 ADP500      0.0000 
      4 O3B       159.7020  161.6550  139.8840 O.co2     1 ADP500      0.0000 
      5 PA        162.6400  163.2920  141.8580 P.3       1 ADP500      0.0000 
      6 O1A       163.0680  164.1750  140.7230 O.co2     1 ADP500      0.0000 
      7 O2A       163.5310  162.2180  142.3980 O.co2     1 ADP500      0.0000 
      8 O3A       161.2190  162.6510  141.5060 O.3       1 ADP500      0.0000 
      9 O5'       162.2890  164.2600  143.0710 O.3       1 ADP500      0.0000 
     10 C5'       162.7570  165.5940  143.0040 C.3       1 ADP500      0.0000 
     11 C4'       162.7820  166.1270  144.4190 C.3       1 ADP500      0.0000 
     12 O4'       163.3570  167.4240  144.4390 O.3       1 ADP500      0.0000 
     13 C3'       161.3920  166.2630  145.0000 C.3       1 ADP500      0.0000 
     14 O3'       161.2000  165.2700  146.0040 O.3       1 ADP500      0.0000 
     15 C2'       161.3530  167.6180  145.6600 C.3       1 ADP500      0.0000 
     16 O2'       161.1000  167.4390  147.0530 O.3       1 ADP500      0.0000 
     17 C1'       162.7300  168.2110  145.4460 C.3       1 ADP500      0.0000 
     18 N9        162.6010  169.5870  144.9330 N.pl3     1 ADP500      0.0000 
     19 C8        162.4900  169.9160  143.6400 C.2       1 ADP500      0.0000 
     20 N7        162.3850  171.2550  143.4780 N.2       1 ADP500      0.0000 
     21 C5        162.4340  171.7990  144.6980 C.ar      1 ADP500      0.0000 
     22 C6        162.3750  173.1600  145.2460 C.ar      1 ADP500      0.0000 
     23 N6        162.2440  174.2300  144.4350 N.pl3     1 ADP500      0.0000 
     24 N1        162.4560  173.3010  146.5780 N.ar      1 ADP500      0.0000 
     25 C2        162.5820  172.2410  147.3880 C.ar      1 ADP500      0.0000 
     26 N3        162.6410  170.9740  146.9610 N.ar      1 ADP500      0.0000 
     27 C4        162.5760  170.6970  145.6500 C.ar      1 ADP500      0.0000 
@<TRIPOS>BOND
     1    1    2 ar   
     2    1    3 ar   
     3    1    4 ar   
     4    1    8 1    
     5    5    6 ar   
     6    5    7 ar   
     7    5    8 1    
     8    5    9 1    
     9    9   10 1    
    10   10   11 1    
    11   11   12 1    
    12   11   13 1    
    13   12   17 1    
    14   13   14 1    
    15   13   15 1    
    16   15   16 1    
    17   15   17 1    
    18   17   18 1    
    19   18   19 1    
    20   18   27 1    
    21   19   20 2    
    22   20   21 1    
    23   21   22 ar   
    24   21   27 ar   
    25   22   23 1    
    26   22   24 ar   
    27   24   25 ar   
    28   25   26 ar   
    29   26   27 ar   
@<TRIPOS>SUBSTRUCTURE
     1 ADP500      1 GROUP   
@<TRIPOS>SET
ATOM$ORANGE STATIC     ATOMS   COLORGROUP SYSTEM 
20 10 10 11 11 13 13 15 15 17 17 19 19 21 21 22 22 25 \
25 27 27 

