#    Name: 6bbm_2_ADP
#    Modification time : Fri May 22 19:27:31 2020

@<TRIPOS>MOLECULE
6bbm_2_ADP
   27    29     1     0     1
SMALL
NO_CHARGES


@<TRIPOS>ATOM
      1 PB        112.5320  143.8870  138.2260 P.3       1 ADP501      0.0000 
      2 O1B       112.5260  144.4570  136.8350 O.co2     1 ADP501      0.0000 
      3 O2B       112.9590  144.8180  139.3150 O.co2     1 ADP501      0.0000 
      4 O3B       113.1490  142.5270  138.3120 O.co2     1 ADP501      0.0000 
      5 PA        109.9560  144.7610  138.0310 P.3       1 ADP501      0.0000 
      6 O1A       109.6630  144.4490  136.6030 O.co2     1 ADP501      0.0000 
      7 O2A       110.4400  146.1080  138.4660 O.co2     1 ADP501      0.0000 
      8 O3A       110.9890  143.6770  138.5770 O.3       1 ADP501      0.0000 
      9 O5'       108.5950  144.4720  138.7900 O.3       1 ADP501      0.0000 
     10 C5'       107.4210  144.6110  138.0190 C.3       1 ADP501      0.0000 
     11 C4'       106.3050  144.9810  138.9630 C.3       1 ADP501      0.0000 
     12 O4'       105.0380  144.6550  138.4030 O.3       1 ADP501      0.0000 
     13 C3'       106.4040  144.1830  140.2460 C.3       1 ADP501      0.0000 
     14 O3'       106.7080  145.0700  141.3190 O.3       1 ADP501      0.0000 
     15 C2'       105.0290  143.6200  140.4950 C.3       1 ADP501      0.0000 
     16 O2'       104.6360  143.9210  141.8320 O.3       1 ADP501      0.0000 
     17 C1'       104.1720  144.3760  139.5030 C.3       1 ADP501      0.0000 
     18 N9        102.9320  143.6370  139.1430 N.pl3     1 ADP501      0.0000 
     19 C8        102.7250  142.7680  138.1340 C.2       1 ADP501      0.0000 
     20 N7        101.4460  142.3130  138.1470 N.2       1 ADP501      0.0000 
     21 C5        100.8130  142.9040  139.1760 C.ar      1 ADP501      0.0000 
     22 C6         99.4580  142.8860  139.7710 C.ar      1 ADP501      0.0000 
     23 N6         98.4630  142.1250  139.2610 N.pl3     1 ADP501      0.0000 
     24 N1         99.2370  143.6600  140.8520 N.ar      1 ADP501      0.0000 
     25 C2        100.1970  144.4300  141.3890 C.ar      1 ADP501      0.0000 
     26 N3        101.4430  144.4970  140.9050 N.ar      1 ADP501      0.0000 
     27 C4        101.8000  143.7710  139.8240 C.ar      1 ADP501      0.0000 
@<TRIPOS>BOND
     1    1    2 ar   
     2    1    3 ar   
     3    1    4 ar   
     4    1    8 1    
     5    5    6 ar   
     6    5    7 ar   
     7    5    8 1    
     8    5    9 1    
     9    9   10 1    
    10   10   11 1    
    11   11   12 1    
    12   11   13 1    
    13   12   17 1    
    14   13   14 1    
    15   13   15 1    
    16   15   16 1    
    17   15   17 1    
    18   17   18 1    
    19   18   19 1    
    20   18   27 1    
    21   19   20 2    
    22   20   21 1    
    23   21   22 ar   
    24   21   27 ar   
    25   22   23 1    
    26   22   24 ar   
    27   24   25 ar   
    28   25   26 ar   
    29   26   27 ar   
@<TRIPOS>SUBSTRUCTURE
     1 ADP501      1 GROUP   
@<TRIPOS>SET
ATOM$ORANGE STATIC     ATOMS   COLORGROUP SYSTEM 
20 10 10 11 11 13 13 15 15 17 17 19 19 21 21 22 22 25 \
25 27 27 

