#    Name: 6bbm_2_ADP_CAVITY_N1_4
#    Modification time : Fri May 22 19:27:32 2020

@<TRIPOS>MOLECULE
6bbm_2_ADP_CAVITY_N1_4
  113     0     7     0     0
SMALL
NO_CHARGES


@<TRIPOS>ATOM
      1 OG        111.0300  143.8300  136.6000 O.3       1 SER1        0.0000 
      2 OG        109.8700  144.1600  137.5000 O.3       1 SER1        0.0000 
      3 OG        111.9200  144.7100  137.4200 O.3       1 SER1        0.0000 
      4 OG        110.7600  145.0500  138.3200 O.3       1 SER1        0.0000 
      5 OG        106.6000  148.3700  139.2400 O.3       1 SER1        0.0000 
      6 OG        107.1800  142.8900  144.5400 O.3       1 SER1        0.0000 
      7 O         102.5800  142.8300  138.6200 O.2       2 ALA2        0.0000 
      8 N         101.4200  143.1600  139.5200 N.am      2 ALA2        0.0000 
      9 O         101.0700  144.3300  138.6400 O.2       2 ALA2        0.0000 
     10 N         100.6100  142.3300  141.2900 N.am      2 ALA2        0.0000 
     11 N         100.2600  143.5000  140.4100 N.am      2 ALA2        0.0000 
     12 N         104.6200  143.3800  138.5500 N.am      2 ALA2        0.0000 
     13 N         103.8100  142.5500  140.3200 N.am      2 ALA2        0.0000 
     14 N         103.4700  143.7200  139.4400 N.am      2 ALA2        0.0000 
     15 O         103.1200  144.8800  138.5600 O.2       2 ALA2        0.0000 
     16 O         102.7700  146.0400  137.6800 O.2       2 ALA2        0.0000 
     17 N         102.6600  142.8900  141.2200 N.am      2 ALA2        0.0000 
     18 N         101.9600  145.2100  139.4600 N.am      2 ALA2        0.0000 
     19 N         101.5000  143.2200  142.1100 N.am      2 ALA2        0.0000 
     20 N         101.1500  144.3800  141.2300 N.am      2 ALA2        0.0000 
     21 N         108.1700  142.4400  138.4600 N.am      2 ALA2        0.0000 
     22 N         107.0200  142.7700  139.3500 N.am      2 ALA2        0.0000 
     23 N         105.8600  143.1100  140.2500 N.am      2 ALA2        0.0000 
     24 N         105.5100  144.2700  139.3700 N.am      2 ALA2        0.0000 
     25 N         105.4000  141.1100  142.9000 N.am      2 ALA2        0.0000 
     26 N         105.0500  142.2800  142.0200 N.am      2 ALA2        0.0000 
     27 N         104.7000  143.4400  141.1400 N.am      2 ALA2        0.0000 
     28 N         104.2400  141.4400  143.8000 N.am      2 ALA2        0.0000 
     29 N         103.8900  142.6100  142.9200 N.am      2 ALA2        0.0000 
     30 N         102.8500  146.1000  140.2800 N.am      2 ALA2        0.0000 
     31 N         102.5000  147.2600  139.4000 N.am      2 ALA2        0.0000 
     32 N         101.7000  146.4300  141.1700 N.am      2 ALA2        0.0000 
     33 N         107.4400  141.6700  142.8300 N.am      2 ALA2        0.0000 
     34 N         107.1000  142.8300  141.9500 N.am      2 ALA2        0.0000 
     35 N         106.2900  142.0000  143.7200 N.am      2 ALA2        0.0000 
     36 N         105.9400  143.1600  142.8400 N.am      2 ALA2        0.0000 
     37 O         111.4600  142.7200  140.0800 O.2       2 ALA2        0.0000 
     38 O         110.4100  146.2100  137.4400 O.2       2 ALA2        0.0000 
     39 O         109.6100  145.3800  139.2100 O.2       2 ALA2        0.0000 
     40 O         109.2600  146.5400  138.3300 O.2       2 ALA2        0.0000 
     41 O         108.4500  145.7100  140.1100 O.2       2 ALA2        0.0000 
     42 O         108.1000  146.8700  139.2300 O.2       2 ALA2        0.0000 
     43 O         106.9400  147.2100  140.1300 O.2       2 ALA2        0.0000 
     44 N         106.8300  144.0500  143.6600 N.am      2 ALA2        0.0000 
     45 N         106.4800  145.2100  142.7800 N.am      2 ALA2        0.0000 
     46 O         113.5000  143.2700  140.0100 O.2       2 ALA2        0.0000 
     47 O         113.1600  144.4400  139.1200 O.2       2 ALA2        0.0000 
     48 O         111.6500  145.9300  139.1400 O.2       2 ALA2        0.0000 
     49 N         107.3700  146.1000  143.6000 N.am      2 ALA2        0.0000 
     50 OD1       104.2800  144.5500  137.6600 O.co2     3 ASP3        0.0000 
     51 OD1       109.6800  140.9500  138.4400 O.co2     3 ASP3        0.0000 
     52 OD1       109.3300  142.1100  137.5600 O.co2     3 ASP3        0.0000 
     53 OD1       107.8300  143.6000  137.5700 O.co2     3 ASP3        0.0000 
     54 OD1       107.4800  144.7700  136.6900 O.co2     3 ASP3        0.0000 
     55 OD1       106.6700  143.9400  138.4700 O.co2     3 ASP3        0.0000 
     56 OD1       106.3200  145.1000  137.5900 O.co2     3 ASP3        0.0000 
     57 OD1       111.3800  142.6600  137.4800 O.co2     3 ASP3        0.0000 
     58 OD1       110.5700  141.8300  139.2600 O.co2     3 ASP3        0.0000 
     59 OD1       110.2200  143.0000  138.3800 O.co2     3 ASP3        0.0000 
     60 OD1       112.6100  142.3900  139.1900 O.co2     3 ASP3        0.0000 
     61 OD1       112.2700  143.5500  138.3000 O.co2     3 ASP3        0.0000 
     62 OD1       106.1400  146.3800  141.9000 O.co2     3 ASP3        0.0000 
     63 OD1       105.7900  147.5400  141.0200 O.co2     3 ASP3        0.0000 
     64 OD1       105.3300  145.5400  143.6800 O.co2     3 ASP3        0.0000 
     65 OD1       104.9800  146.7100  142.8000 O.co2     3 ASP3        0.0000 
     66 OD1       114.6600  142.9400  139.1100 O.co2     3 ASP3        0.0000 
     67 OD1       106.2200  146.4300  144.5000 O.co2     3 ASP3        0.0000 
     68 NZ        113.7700  142.0500  138.2900 N.4       4 LYS4        0.0000 
     69 NZ        113.4200  143.2200  137.4100 N.4       4 LYS4        0.0000 
     70 CZ        104.9000  146.6500  140.2000 C.ar      5 PHE5        0.0000 
     71 CZ        104.5500  147.8200  139.3200 C.ar      5 PHE5        0.0000 
     72 CZ        104.0900  145.8200  141.9800 C.ar      5 PHE5        0.0000 
     73 CZ        103.7400  146.9900  141.1000 C.ar      5 PHE5        0.0000 
     74 CZ        102.9300  146.1500  142.8700 C.ar      5 PHE5        0.0000 
     75 CZ        105.4400  148.7000  140.1400 C.ar      5 PHE5        0.0000 
     76 CZ        103.8200  147.0400  143.6900 C.ar      5 PHE5        0.0000 
     77 CA        108.9800  143.2700  136.6800 C.3       6 GLY6        0.0000 
     78 CA        108.5200  141.2800  139.3400 C.3       6 GLY6        0.0000 
     79 CA        105.1700  145.4300  138.4800 C.3       6 GLY6        0.0000 
     80 CA        103.6600  146.9300  138.5000 C.3       6 GLY6        0.0000 
     81 CA        109.5200  145.3200  136.6200 C.3       6 GLY6        0.0000 
     82 CA        109.4100  142.1600  140.1600 C.3       6 GLY6        0.0000 
     83 CA        109.0600  143.3300  139.2800 C.3       6 GLY6        0.0000 
     84 CA        108.3700  145.6500  137.5100 C.3       6 GLY6        0.0000 
     85 CA        108.2500  142.5000  141.0500 C.3       6 GLY6        0.0000 
     86 CA        107.9100  143.6600  140.1700 C.3       6 GLY6        0.0000 
     87 CA        107.2100  145.9900  138.4100 C.3       6 GLY6        0.0000 
     88 CA        106.0500  146.3200  139.3100 C.3       6 GLY6        0.0000 
     89 CA        105.1300  142.3300  144.6200 C.3       6 GLY6        0.0000 
     90 CA        111.1100  143.8800  139.2000 C.3       6 GLY6        0.0000 
     91 CA        107.6400  144.8800  141.8900 C.3       6 GLY6        0.0000 
     92 CA        107.2900  146.0400  141.0100 C.3       6 GLY6        0.0000 
     93 CA        114.3100  144.1000  138.2300 C.3       6 GLY6        0.0000 
     94 CA        112.8100  145.6000  138.2400 C.3       6 GLY6        0.0000 
     95 DU        102.3100  144.0500  140.3400 H         7 CUB7        0.0000 
     96 DU        104.3600  144.6000  140.2600 H         7 CUB7        0.0000 
     97 DU        104.0100  145.7700  139.3800 H         7 CUB7        0.0000 
     98 DU        103.5500  143.7700  142.0400 H         7 CUB7        0.0000 
     99 DU        103.2000  144.9400  141.1600 H         7 CUB7        0.0000 
    100 DU        102.3900  144.1000  142.9300 H         7 CUB7        0.0000 
    101 DU        102.0400  145.2700  142.0500 H         7 CUB7        0.0000 
    102 DU        108.7200  144.4900  138.3900 H         7 CUB7        0.0000 
    103 DU        107.5600  144.8200  139.2900 H         7 CUB7        0.0000 
    104 DU        106.7500  143.9900  141.0700 H         7 CUB7        0.0000 
    105 DU        106.4000  145.1600  140.1900 H         7 CUB7        0.0000 
    106 DU        105.5900  144.3300  141.9600 H         7 CUB7        0.0000 
    107 DU        105.2500  145.4900  141.0800 H         7 CUB7        0.0000 
    108 DU        104.7800  143.4900  143.7400 H         7 CUB7        0.0000 
    109 DU        104.4400  144.6600  142.8600 H         7 CUB7        0.0000 
    110 DU        103.2800  144.9900  143.7500 H         7 CUB7        0.0000 
    111 DU        106.0200  143.2200  145.4400 H         7 CUB7        0.0000 
    112 DU        105.6700  144.3800  144.5600 H         7 CUB7        0.0000 
    113 DU        104.1700  145.8800  144.5700 H         7 CUB7        0.0000 
@<TRIPOS>BOND
@<TRIPOS>SUBSTRUCTURE
     1 SER1        1 GROUP   
     2 ALA2        7 GROUP   
     3 ASP3       50 GROUP   
     4 LYS4       68 GROUP   
     5 PHE5       70 GROUP   
     6 GLY6       77 GROUP   
     7 CUB7       95 GROUP   
@<TRIPOS>SET

