#    Name: 5yfw_2_AMP
#    Modification time : Fri May 22 19:13:59 2020

@<TRIPOS>MOLECULE
5yfw_2_AMP
   23    25     1     0     1
SMALL
NO_CHARGES


@<TRIPOS>ATOM
      1 P          57.3120   92.7690  307.7480 P.3       1 AMP402      0.0000 
      2 O1P        56.2610   92.2720  306.7510 O.co2     1 AMP402      0.0000 
      3 O2P        57.5080   91.7150  308.8380 O.co2     1 AMP402      0.0000 
      4 O3P        57.2340   94.2320  308.1990 O.co2     1 AMP402      0.0000 
      5 O5'        58.7280   92.8560  306.9360 O.3       1 AMP402      0.0000 
      6 C5'        59.9200   93.4520  307.4790 C.3       1 AMP402      0.0000 
      7 C4'        61.2230   92.7360  307.0700 C.3       1 AMP402      0.0000 
      8 O4'        62.3540   93.5890  307.2630 O.3       1 AMP402      0.0000 
      9 C3'        61.5800   91.5090  307.9200 C.3       1 AMP402      0.0000 
     10 O3'        62.1970   90.5310  307.0720 O.3       1 AMP402      0.0000 
     11 C2'        62.5120   92.0240  309.0390 C.3       1 AMP402      0.0000 
     12 O2'        63.5130   91.0680  309.4400 O.3       1 AMP402      0.0000 
     13 C1'        63.1000   93.3320  308.4840 C.3       1 AMP402      0.0000 
     14 N9         62.9770   94.6260  309.2580 N.pl3     1 AMP402      0.0000 
     15 C8         61.8260   95.2830  309.6440 C.2       1 AMP402      0.0000 
     16 N7         62.0820   96.4430  310.2990 N.2       1 AMP402      0.0000 
     17 C5         63.4240   96.5780  310.3100 C.ar      1 AMP402      0.0000 
     18 C6         64.3690   97.6010  310.8140 C.ar      1 AMP402      0.0000 
     19 N6         63.9170   98.7110  311.4390 N.pl3     1 AMP402      0.0000 
     20 N1         65.6700   97.3760  310.6140 N.ar      1 AMP402      0.0000 
     21 C2         66.1550   96.2730  310.0250 C.ar      1 AMP402      0.0000 
     22 N3         65.3810   95.2910  309.5200 N.ar      1 AMP402      0.0000 
     23 C4         64.0190   95.3960  309.6230 C.ar      1 AMP402      0.0000 
@<TRIPOS>BOND
     1    1    2 ar   
     2    1    3 ar   
     3    1    4 ar   
     4    1    5 1    
     5    5    6 1    
     6    6    7 1    
     7    7    8 1    
     8    7    9 1    
     9    8   13 1    
    10    9   10 1    
    11    9   11 1    
    12   11   12 1    
    13   11   13 1    
    14   13   14 1    
    15   14   15 1    
    16   14   23 1    
    17   15   16 2    
    18   16   17 1    
    19   17   18 ar   
    20   17   23 ar   
    21   18   19 1    
    22   18   20 ar   
    23   20   21 ar   
    24   21   22 ar   
    25   22   23 ar   
@<TRIPOS>SUBSTRUCTURE
     1 AMP402      1 GROUP   
@<TRIPOS>SET
ATOM$ORANGE STATIC     ATOMS   COLORGROUP SYSTEM 
20 6 6 7 7 9 9 11 11 13 13 15 15 17 17 18 18 21 \
21 23 23 

