#    Name: 5yfw_1_AMP
#    Modification time : Fri May 22 19:13:48 2020

@<TRIPOS>MOLECULE
5yfw_1_AMP
   23    25     1     0     1
SMALL
NO_CHARGES


@<TRIPOS>ATOM
      1 P          57.4690   72.1870  302.0030 P.3       1 AMP402      0.0000 
      2 O1P        57.2470   71.2620  300.8210 O.co2     1 AMP402      0.0000 
      3 O2P        56.2310   72.3700  302.8650 O.co2     1 AMP402      0.0000 
      4 O3P        58.0380   73.4920  301.4450 O.co2     1 AMP402      0.0000 
      5 O5'        58.5570   71.3670  302.9580 O.3       1 AMP402      0.0000 
      6 C5'        59.6770   71.8550  303.7480 C.3       1 AMP402      0.0000 
      7 C4'        60.9930   72.2790  303.0660 C.3       1 AMP402      0.0000 
      8 O4'        62.1070   71.7900  303.8230 O.3       1 AMP402      0.0000 
      9 C3'        61.2510   71.8350  301.6280 C.3       1 AMP402      0.0000 
     10 O3'        61.4170   73.0420  300.8590 O.3       1 AMP402      0.0000 
     11 C2'        62.4590   70.8680  301.6590 C.3       1 AMP402      0.0000 
     12 O2'        63.5640   71.1990  300.7940 O.3       1 AMP402      0.0000 
     13 C1'        62.9460   70.8410  303.1160 C.3       1 AMP402      0.0000 
     14 N9         62.9360   69.4860  303.8200 N.pl3     1 AMP402      0.0000 
     15 C8         61.8220   68.7350  304.1520 C.2       1 AMP402      0.0000 
     16 N7         62.1340   67.5590  304.7940 N.2       1 AMP402      0.0000 
     17 C5         63.4840   67.5420  304.9120 C.ar      1 AMP402      0.0000 
     18 C6         64.4810   66.6060  305.5000 C.ar      1 AMP402      0.0000 
     19 N6         64.0780   65.4620  306.1020 N.pl3     1 AMP402      0.0000 
     20 N1         65.7890   66.9320  305.3990 N.ar      1 AMP402      0.0000 
     21 C2         66.2030   68.0620  304.8010 C.ar      1 AMP402      0.0000 
     22 N3         65.3650   68.9780  304.2530 N.ar      1 AMP402      0.0000 
     23 C4         64.0110   68.7970  304.2790 C.ar      1 AMP402      0.0000 
@<TRIPOS>BOND
     1    1    2 ar   
     2    1    3 ar   
     3    1    4 ar   
     4    1    5 1    
     5    5    6 1    
     6    6    7 1    
     7    7    8 1    
     8    7    9 1    
     9    8   13 1    
    10    9   10 1    
    11    9   11 1    
    12   11   12 1    
    13   11   13 1    
    14   13   14 1    
    15   14   15 1    
    16   14   23 1    
    17   15   16 2    
    18   16   17 1    
    19   17   18 ar   
    20   17   23 ar   
    21   18   19 1    
    22   18   20 ar   
    23   20   21 ar   
    24   21   22 ar   
    25   22   23 ar   
@<TRIPOS>SUBSTRUCTURE
     1 AMP402      1 GROUP   
@<TRIPOS>SET
ATOM$ORANGE STATIC     ATOMS   COLORGROUP SYSTEM 
20 6 6 7 7 9 9 11 11 13 13 15 15 17 17 18 18 21 \
21 23 23 

