#    Name: 5zq6_2_ADP_CAVITY_N1_4
#    Modification time : Fri May 22 19:26:08 2020

@<TRIPOS>MOLECULE
5zq6_2_ADP_CAVITY_N1_4
  105     0     6     0     0
SMALL
NO_CHARGES


@<TRIPOS>ATOM
      1 OG         -5.5800  -13.1500    1.1000 O.3       1 SER1        0.0000 
      2 OG        -15.0200   -8.9900    6.2200 O.3       1 SER1        0.0000 
      3 OG        -13.7700   -9.8100    6.1200 O.3       1 SER1        0.0000 
      4 OG        -14.2300  -10.6400    7.2800 O.3       1 SER1        0.0000 
      5 OG        -13.4300  -12.3000    8.3400 O.3       1 SER1        0.0000 
      6 OG        -11.7200  -12.2800    7.0800 O.3       1 SER1        0.0000 
      7 OG        -10.4700  -13.1000    6.9800 O.3       1 SER1        0.0000 
      8 OG         -6.7100   -9.6300    3.1900 O.3       1 SER1        0.0000 
      9 OG        -10.1200   -3.7500    2.2200 O.3       1 SER1        0.0000 
     10 OG         -9.3300   -5.4000    3.2800 O.3       1 SER1        0.0000 
     11 O         -13.0800   -8.8700    7.0700 O.2       2 ALA2        0.0000 
     12 O         -13.1900   -6.2800    6.9500 O.2       2 ALA2        0.0000 
     13 N         -11.9400   -7.1000    6.8500 N.am      2 ALA2        0.0000 
     14 N         -12.4000   -7.9300    8.0100 N.am      2 ALA2        0.0000 
     15 N         -10.6900   -1.9900    3.2600 N.am      2 ALA2        0.0000 
     16 N          -9.4400   -2.8100    3.1600 N.am      2 ALA2        0.0000 
     17 N          -9.8900   -3.6500    4.3200 N.am      2 ALA2        0.0000 
     18 N         -11.2500   -0.2400    4.3100 N.am      2 ALA2        0.0000 
     19 O         -11.7100   -1.0700    5.4700 O.2       2 ALA2        0.0000 
     20 N         -10.4600   -1.8900    5.3700 N.am      2 ALA2        0.0000 
     21 O         -12.2700    0.6800    6.5100 O.2       2 ALA2        0.0000 
     22 N         -10.1100    1.5400    4.1000 N.am      2 ALA2        0.0000 
     23 N         -10.5700    0.7000    5.2500 N.am      2 ALA2        0.0000 
     24 OD1       -13.1000  -14.1600    5.1900 O.co2     3 ASP3        0.0000 
     25 OD1       -11.8400  -14.9800    5.0900 O.co2     3 ASP3        0.0000 
     26 OD1       -14.1200  -13.2400    7.3900 O.co2     3 ASP3        0.0000 
     27 OD1       -14.5700  -14.0700    8.5500 O.co2     3 ASP3        0.0000 
     28 OD1       -12.4100  -13.2200    6.1300 O.co2     3 ASP3        0.0000 
     29 OD1       -11.1500  -14.0400    6.0300 O.co2     3 ASP3        0.0000 
     30 OD1        -6.1400  -11.3900    2.1400 O.co2     3 ASP3        0.0000 
     31 OD1        -6.6000  -12.2300    3.3000 O.co2     3 ASP3        0.0000 
     32 OD1        -4.8900  -12.2100    2.0400 O.co2     3 ASP3        0.0000 
     33 OD1        -5.4600  -10.4500    3.0900 O.co2     3 ASP3        0.0000 
     34 CZ        -13.8900  -12.5000    4.1300 C.ar      4 PHE5        0.0000 
     35 CZ        -14.3500  -13.3400    5.2900 C.ar      4 PHE5        0.0000 
     36 CZ        -14.0100   -9.9100    4.0100 C.ar      4 PHE5        0.0000 
     37 CZ        -12.7500  -10.7300    3.9100 C.ar      4 PHE5        0.0000 
     38 CZ        -13.2100  -11.5600    5.0700 C.ar      4 PHE5        0.0000 
     39 CZ        -13.6600  -12.4000    6.2300 C.ar      4 PHE5        0.0000 
     40 CZ        -13.3200   -8.9700    4.9600 C.ar      4 PHE5        0.0000 
     41 CZ        -14.6800  -11.4800    8.4400 C.ar      4 PHE5        0.0000 
     42 CZ        -11.6100   -8.9500    3.7000 C.ar      4 PHE5        0.0000 
     43 CZ        -12.5200  -10.6300    6.0200 C.ar      4 PHE5        0.0000 
     44 CZ        -12.9700  -11.4600    7.1800 C.ar      4 PHE5        0.0000 
     45 CZ        -11.2700  -11.4500    5.9200 C.ar      4 PHE5        0.0000 
     46 CZ        -13.8800   -7.2100    6.0100 C.ar      4 PHE5        0.0000 
     47 CZ        -12.6300   -8.0300    5.9100 C.ar      4 PHE5        0.0000 
     48 CZ        -13.5400   -9.7100    8.2200 C.ar      4 PHE5        0.0000 
     49 CZ        -10.0100   -6.3400    2.3300 C.ar      4 PHE5        0.0000 
     50 CZ        -10.4700   -7.1800    3.4900 C.ar      4 PHE5        0.0000 
     51 CZ        -10.9200   -8.0200    4.6500 C.ar      4 PHE5        0.0000 
     52 CZ        -11.8300   -9.6900    6.9700 C.ar      4 PHE5        0.0000 
     53 CZ        -10.5800  -10.5100    6.8700 C.ar      4 PHE5        0.0000 
     54 CZ        -12.6300   -2.1100    2.4100 C.ar      4 PHE5        0.0000 
     55 CZ        -11.3800   -2.9300    2.3200 C.ar      4 PHE5        0.0000 
     56 CZ        -12.7400   -5.4400    5.7900 C.ar      4 PHE5        0.0000 
     57 CZ        -10.5800   -4.5900    3.3700 C.ar      4 PHE5        0.0000 
     58 CZ        -11.0300   -5.4200    4.5300 C.ar      4 PHE5        0.0000 
     59 CZ        -11.4900   -6.2600    5.6900 C.ar      4 PHE5        0.0000 
     60 CZ         -9.7800   -6.2400    4.4300 C.ar      4 PHE5        0.0000 
     61 CZ        -11.1400   -8.7500    7.9100 C.ar      4 PHE5        0.0000 
     62 CZ         -8.0700   -6.2200    3.1800 C.ar      4 PHE5        0.0000 
     63 CZ         -6.8200   -7.0400    3.0800 C.ar      4 PHE5        0.0000 
     64 CZ         -7.2700   -7.8800    4.2400 C.ar      4 PHE5        0.0000 
     65 CZ        -11.9400   -1.1700    3.3600 C.ar      4 PHE5        0.0000 
     66 CZ        -12.4000   -2.0100    4.5200 C.ar      4 PHE5        0.0000 
     67 CZ        -11.1400   -2.8300    4.4200 C.ar      4 PHE5        0.0000 
     68 CZ        -11.6000   -3.6700    5.5800 C.ar      4 PHE5        0.0000 
     69 CZ        -12.0500   -4.5000    6.7400 C.ar      4 PHE5        0.0000 
     70 CA         -9.5600  -11.4300    4.6600 C.3       5 GLY6        0.0000 
     71 CA        -10.0100  -12.2600    5.8200 C.3       5 GLY6        0.0000 
     72 CA         -8.7600  -13.0800    5.7200 C.3       5 GLY6        0.0000 
     73 CA         -9.6700   -8.8300    4.5500 C.3       5 GLY6        0.0000 
     74 CA        -10.1200   -9.6700    5.7100 C.3       5 GLY6        0.0000 
     75 CA         -7.5100   -7.9800    2.1300 C.3       5 GLY6        0.0000 
     76 CA         -8.4200   -9.6500    4.4500 C.3       5 GLY6        0.0000 
     77 CA         -9.3200  -11.3300    6.7700 C.3       5 GLY6        0.0000 
     78 CA         -7.1600  -10.4700    4.3500 C.3       5 GLY6        0.0000 
     79 CA        -10.2300   -7.0800    5.5900 C.3       5 GLY6        0.0000 
     80 CA        -10.6900   -7.9100    6.7500 C.3       5 GLY6        0.0000 
     81 CA         -8.5300   -7.0600    4.3300 C.3       5 GLY6        0.0000 
     82 CA         -8.9800   -7.9000    5.4900 C.3       5 GLY6        0.0000 
     83 CA        -10.3400   -4.4800    5.4800 C.3       5 GLY6        0.0000 
     84 CA        -10.8000   -5.3200    6.6400 C.3       5 GLY6        0.0000 
     85 CA         -8.6400   -4.4700    4.2200 C.3       5 GLY6        0.0000 
     86 CA         -9.0900   -5.3000    5.3800 C.3       5 GLY6        0.0000 
     87 CA        -12.9600   -0.2500    5.5700 C.3       5 GLY6        0.0000 
     88 CA        -12.1600   -1.9100    6.6300 C.3       5 GLY6        0.0000 
     89 CA        -10.9100   -2.7300    6.5300 C.3       5 GLY6        0.0000 
     90 DU        -12.6400  -13.3200    4.0300 H         6 CUB7        0.0000 
     91 DU        -11.3900  -14.1400    3.9300 H         6 CUB7        0.0000 
     92 DU        -11.9500  -12.3800    4.9700 H         6 CUB7        0.0000 
     93 DU        -10.7000  -13.2000    4.8700 H         6 CUB7        0.0000 
     94 DU        -12.0600   -9.7900    4.8600 H         6 CUB7        0.0000 
     95 DU         -9.9000   -8.9400    2.4400 H         6 CUB7        0.0000 
     96 DU        -10.3600   -9.7700    3.6000 H         6 CUB7        0.0000 
     97 DU        -10.8100  -10.6100    4.7600 H         6 CUB7        0.0000 
     98 DU         -8.6500   -9.7500    2.3400 H         6 CUB7        0.0000 
     99 DU         -9.1000  -10.5900    3.5000 H         6 CUB7        0.0000 
    100 DU         -7.4000  -10.5700    2.2400 H         6 CUB7        0.0000 
    101 DU        -11.3800   -8.8500    5.8100 H         6 CUB7        0.0000 
    102 DU         -8.7600   -7.1600    2.2300 H         6 CUB7        0.0000 
    103 DU         -9.2100   -8.0000    3.3900 H         6 CUB7        0.0000 
    104 DU         -7.9600   -8.8200    3.2900 H         6 CUB7        0.0000 
    105 DU        -12.5100    0.5800    4.4100 H         6 CUB7        0.0000 
@<TRIPOS>BOND
@<TRIPOS>SUBSTRUCTURE
     1 SER1        1 GROUP   
     2 ALA2       11 GROUP   
     3 ASP3       24 GROUP   
     4 PHE5       34 GROUP   
     5 GLY6       70 GROUP   
     6 CUB7       90 GROUP   
@<TRIPOS>SET

