#    Name: 5zq6_1_ADP
#    Modification time : Fri May 22 19:25:58 2020

@<TRIPOS>MOLECULE
5zq6_1_ADP
   27    29     1     0     1
SMALL
NO_CHARGES


@<TRIPOS>ATOM
      1 PB         80.3390   91.8790  140.9210 P.3       1 ADP1101     0.0000 
      2 O1B        78.8590   92.2010  141.0060 O.co2     1 ADP1101     0.0000 
      3 O2B        81.2200   92.8330  141.7020 O.co2     1 ADP1101     0.0000 
      4 O3B        80.6620   90.4160  141.1310 O.co2     1 ADP1101     0.0000 
      5 PA         81.1320   93.4900  138.6420 P.3       1 ADP1101     0.0000 
      6 O1A        82.0730   93.1950  137.4960 O.co2     1 ADP1101     0.0000 
      7 O2A        81.5360   94.5310  139.6690 O.co2     1 ADP1101     0.0000 
      8 O3A        80.6870   92.1010  139.3520 O.3       1 ADP1101     0.0000 
      9 O5'        79.7060   93.9020  138.0200 O.3       1 ADP1101     0.0000 
     10 C5'        78.7700   94.7060  138.7340 C.3       1 ADP1101     0.0000 
     11 C4'        77.6890   95.1310  137.7480 C.3       1 ADP1101     0.0000 
     12 O4'        76.8060   94.0480  137.4280 O.3       1 ADP1101     0.0000 
     13 C3'        76.8160   96.2640  138.2640 C.3       1 ADP1101     0.0000 
     14 O3'        77.3360   97.5380  137.8610 O.3       1 ADP1101     0.0000 
     15 C2'        75.4840   96.0070  137.5920 C.3       1 ADP1101     0.0000 
     16 O2'        75.3560   96.8430  136.4420 O.3       1 ADP1101     0.0000 
     17 C1'        75.5020   94.5550  137.1350 C.3       1 ADP1101     0.0000 
     18 N9         74.4840   93.8690  137.9630 N.pl3     1 ADP1101     0.0000 
     19 C8         74.7290   93.0210  138.9800 C.2       1 ADP1101     0.0000 
     20 N7         73.5740   92.5920  139.5620 N.2       1 ADP1101     0.0000 
     21 C5         72.5520   93.1820  138.9080 C.ar      1 ADP1101     0.0000 
     22 C6         71.0660   93.1700  139.0160 C.ar      1 ADP1101     0.0000 
     23 N6         70.4360   92.4120  139.9460 N.pl3     1 ADP1101     0.0000 
     24 N1         70.3660   93.9480  138.1550 N.ar      1 ADP1101     0.0000 
     25 C2         70.9990   94.7020  137.2190 C.ar      1 ADP1101     0.0000 
     26 N3         72.3400   94.7680  137.0550 N.ar      1 ADP1101     0.0000 
     27 C4         73.1590   94.0340  137.8600 C.ar      1 ADP1101     0.0000 
@<TRIPOS>BOND
     1    1    2 ar   
     2    1    3 ar   
     3    1    4 ar   
     4    1    8 1    
     5    5    6 ar   
     6    5    7 ar   
     7    5    8 1    
     8    5    9 1    
     9    9   10 1    
    10   10   11 1    
    11   11   12 1    
    12   11   13 1    
    13   12   17 1    
    14   13   14 1    
    15   13   15 1    
    16   15   16 1    
    17   15   17 1    
    18   17   18 1    
    19   18   19 1    
    20   18   27 1    
    21   19   20 2    
    22   20   21 1    
    23   21   22 ar   
    24   21   27 ar   
    25   22   23 1    
    26   22   24 ar   
    27   24   25 ar   
    28   25   26 ar   
    29   26   27 ar   
@<TRIPOS>SUBSTRUCTURE
     1 ADP1101     1 GROUP   
@<TRIPOS>SET
ATOM$ORANGE STATIC     ATOMS   COLORGROUP SYSTEM 
20 10 10 11 11 13 13 15 15 17 17 19 19 21 21 22 22 25 \
25 27 27 

