#    Name: 5zq6_2_ADP
#    Modification time : Fri May 22 19:26:07 2020

@<TRIPOS>MOLECULE
5zq6_2_ADP
   27    29     1     0     1
SMALL
NO_CHARGES


@<TRIPOS>ATOM
      1 PB         -9.1580  -13.5080    3.7920 P.3       1 ADP1101     0.0000 
      2 O1B       -10.3210  -14.1270    3.0470 O.co2     1 ADP1101     0.0000 
      3 O2B        -9.0990  -11.9990    3.6640 O.co2     1 ADP1101     0.0000 
      4 O3B        -7.8400  -14.2210    3.5720 O.co2     1 ADP1101     0.0000 
      5 PA        -10.8930  -13.5680    6.0740 P.3       1 ADP1101     0.0000 
      6 O1A       -12.0150  -13.7630    5.0740 O.co2     1 ADP1101     0.0000 
      7 O2A       -10.8890  -14.4000    7.3380 O.co2     1 ADP1101     0.0000 
      8 O3A        -9.4460  -13.7480    5.3680 O.3       1 ADP1101     0.0000 
      9 O5'       -10.8980  -12.0200    6.5220 O.3       1 ADP1101     0.0000 
     10 C5'       -11.3690  -10.9810    5.6620 C.3       1 ADP1101     0.0000 
     11 C4'       -11.8170   -9.8270    6.5530 C.3       1 ADP1101     0.0000 
     12 O4'       -10.7960   -8.8300    6.6510 O.3       1 ADP1101     0.0000 
     13 C3'       -13.0630   -9.1200    6.0340 C.3       1 ADP1101     0.0000 
     14 O3'       -14.2460   -9.5870    6.6900 O.3       1 ADP1101     0.0000 
     15 C2'       -12.8320   -7.6560    6.3550 C.3       1 ADP1101     0.0000 
     16 O2'       -13.7070   -7.2010    7.3870 O.3       1 ADP1101     0.0000 
     17 C1'       -11.4000   -7.5500    6.8460 C.3       1 ADP1101     0.0000 
     18 N9        -10.7760   -6.4920    6.0150 N.pl3     1 ADP1101     0.0000 
     19 C8         -9.9390   -6.6520    4.9620 C.2       1 ADP1101     0.0000 
     20 N7         -9.5820   -5.4550    4.4200 N.2       1 ADP1101     0.0000 
     21 C5        -10.2150   -4.5060    5.1490 C.ar      1 ADP1101     0.0000 
     22 C6        -10.2960   -3.0210    5.1400 C.ar      1 ADP1101     0.0000 
     23 N6         -9.5950   -2.3130    4.2140 N.pl3     1 ADP1101     0.0000 
     24 N1        -11.0810   -2.4130    6.0760 N.ar      1 ADP1101     0.0000 
     25 C2        -11.7730   -3.1140    6.9950 C.ar      1 ADP1101     0.0000 
     26 N3        -11.7450   -4.4590    7.0680 N.ar      1 ADP1101     0.0000 
     27 C4        -11.0000   -5.1910    6.1940 C.ar      1 ADP1101     0.0000 
@<TRIPOS>BOND
     1    1    2 ar   
     2    1    3 ar   
     3    1    4 ar   
     4    1    8 1    
     5    5    6 ar   
     6    5    7 ar   
     7    5    8 1    
     8    5    9 1    
     9    9   10 1    
    10   10   11 1    
    11   11   12 1    
    12   11   13 1    
    13   12   17 1    
    14   13   14 1    
    15   13   15 1    
    16   15   16 1    
    17   15   17 1    
    18   17   18 1    
    19   18   19 1    
    20   18   27 1    
    21   19   20 2    
    22   20   21 1    
    23   21   22 ar   
    24   21   27 ar   
    25   22   23 1    
    26   22   24 ar   
    27   24   25 ar   
    28   25   26 ar   
    29   26   27 ar   
@<TRIPOS>SUBSTRUCTURE
     1 ADP1101     1 GROUP   
@<TRIPOS>SET
ATOM$ORANGE STATIC     ATOMS   COLORGROUP SYSTEM 
20 10 10 11 11 13 13 15 15 17 17 19 19 21 21 22 22 25 \
25 27 27 

