#    Name: 6mlr_3_GDP_CAVITY_N1_6
#    Modification time : Fri May 22 19:27:58 2020

@<TRIPOS>MOLECULE
6mlr_3_GDP_CAVITY_N1_6
   77     0     6     0     0
SMALL
NO_CHARGES


@<TRIPOS>ATOM
      1 OG         23.9800   77.7500  137.0700 O.3       1 SER1        0.0000 
      2 OG         24.3900   78.7000  138.1500 O.3       1 SER1        0.0000 
      3 OG         23.7100   79.1200  140.1200 O.3       1 SER1        0.0000 
      4 O          27.9000   78.9600  132.4500 O.2       2 ALA2        0.0000 
      5 O          26.8200   78.4100  133.3300 O.2       2 ALA2        0.0000 
      6 O          26.7000   76.8500  134.7700 O.2       2 ALA2        0.0000 
      7 N          29.1400   77.3400  135.5000 N.am      2 ALA2        0.0000 
      8 N          28.1800   78.3500  134.9600 N.am      2 ALA2        0.0000 
      9 N          27.2300   79.3700  134.4100 N.am      2 ALA2        0.0000 
     10 N          26.2700   80.3900  133.8700 N.am      2 ALA2        0.0000 
     11 N          29.0200   75.7800  136.9400 N.am      2 ALA2        0.0000 
     12 N          28.0600   76.7900  136.3900 N.am      2 ALA2        0.0000 
     13 N          26.1500   78.8300  135.3000 N.am      2 ALA2        0.0000 
     14 N          25.0600   78.2900  136.1900 N.am      2 ALA2        0.0000 
     15 N          28.5900   79.3100  136.0400 N.am      2 ALA2        0.0000 
     16 N          29.4200   76.7400  138.0200 N.am      2 ALA2        0.0000 
     17 N          28.4600   77.7500  137.4700 N.am      2 ALA2        0.0000 
     18 N          27.5100   78.7700  136.9300 N.am      2 ALA2        0.0000 
     19 N          26.5500   79.7900  136.3800 N.am      2 ALA2        0.0000 
     20 N          25.4700   79.2500  137.2700 N.am      2 ALA2        0.0000 
     21 N          23.4300   79.7200  137.6100 N.am      2 ALA2        0.0000 
     22 N          28.9900   80.2700  137.1200 N.am      2 ALA2        0.0000 
     23 N          29.8300   77.6900  139.1000 N.am      2 ALA2        0.0000 
     24 N          28.8700   78.7100  138.5500 N.am      2 ALA2        0.0000 
     25 N          27.9100   79.7300  138.0100 N.am      2 ALA2        0.0000 
     26 N          26.9500   80.7500  137.4600 N.am      2 ALA2        0.0000 
     27 N          25.8700   80.2100  138.3500 N.am      2 ALA2        0.0000 
     28 O          23.8300   80.6800  138.6900 O.2       2 ALA2        0.0000 
     29 N          29.4000   81.2300  138.2000 N.am      2 ALA2        0.0000 
     30 N          29.2700   79.6700  139.6300 N.am      2 ALA2        0.0000 
     31 N          29.8000   82.1900  139.2800 N.am      2 ALA2        0.0000 
     32 NZ         24.7900   79.6600  139.2300 N.4       3 LYS4        0.0000 
     33 NZ         27.3600   81.7100  138.5400 N.4       3 LYS4        0.0000 
     34 NZ         26.1500   79.6000  140.8600 N.4       3 LYS4        0.0000 
     35 NZ         25.2000   80.6200  140.3100 N.4       3 LYS4        0.0000 
     36 NZ         24.1200   80.0800  141.2000 N.4       3 LYS4        0.0000 
     37 NZ         28.7200   81.6500  140.1700 N.4       3 LYS4        0.0000 
     38 NZ         27.7600   82.6700  139.6200 N.4       3 LYS4        0.0000 
     39 CZ         26.9800   76.2500  137.2800 C.ar      4 PHE5        0.0000 
     40 CZ         26.0200   77.2700  136.7300 C.ar      4 PHE5        0.0000 
     41 CZ         28.3400   76.1900  138.9000 C.ar      4 PHE5        0.0000 
     42 CZ         27.3800   77.2100  138.3600 C.ar      4 PHE5        0.0000 
     43 CZ         25.3400   77.6900  138.7000 C.ar      4 PHE5        0.0000 
     44 CZ         27.7900   78.1700  139.4400 C.ar      4 PHE5        0.0000 
     45 CZ         26.7100   77.6300  140.3200 C.ar      4 PHE5        0.0000 
     46 CZ         25.7500   78.6500  139.7800 C.ar      4 PHE5        0.0000 
     47 CA         26.5400   79.0100  130.8200 C.3       5 GLY6        0.0000 
     48 CA         26.9500   79.9700  131.9000 C.3       5 GLY6        0.0000 
     49 CA         25.8600   79.4300  132.7900 C.3       5 GLY6        0.0000 
     50 CA         25.7400   77.8700  134.2200 C.3       5 GLY6        0.0000 
     51 CA         26.5700   75.2900  136.2000 C.3       5 GLY6        0.0000 
     52 CA         25.6200   76.3100  135.6500 C.3       5 GLY6        0.0000 
     53 CA         24.6600   77.3300  135.1100 C.3       5 GLY6        0.0000 
     54 CA         29.2700   78.9000  134.0700 C.3       5 GLY6        0.0000 
     55 CA         28.3100   79.9100  133.5300 C.3       5 GLY6        0.0000 
     56 CA         28.7100   80.8700  134.6100 C.3       5 GLY6        0.0000 
     57 CA         27.6300   80.3300  135.4900 C.3       5 GLY6        0.0000 
     58 CA         29.1200   81.8300  135.6900 C.3       5 GLY6        0.0000 
     59 CA         28.0400   81.2900  136.5700 C.3       5 GLY6        0.0000 
     60 CA         30.4800   81.7700  137.3100 C.3       5 GLY6        0.0000 
     61 CA         29.5200   82.7900  136.7700 C.3       5 GLY6        0.0000 
     62 CA         28.5700   83.8100  136.2200 C.3       5 GLY6        0.0000 
     63 CA         30.3600   80.2100  138.7400 C.3       5 GLY6        0.0000 
     64 CA         28.4400   82.2500  137.6500 C.3       5 GLY6        0.0000 
     65 CA         27.4800   83.2700  137.1100 C.3       5 GLY6        0.0000 
     66 CA         31.8400   81.7100  138.9400 C.3       5 GLY6        0.0000 
     67 CA         29.9300   83.7500  137.8500 C.3       5 GLY6        0.0000 
     68 CA         30.7600   81.1700  139.8200 C.3       5 GLY6        0.0000 
     69 CA         28.8500   83.2100  138.7300 C.3       5 GLY6        0.0000 
     70 CA         27.8900   84.2300  138.1900 C.3       5 GLY6        0.0000 
     71 DU         27.1000   77.8100  135.8500 H         6 CUB7        0.0000 
     72 DU         26.4300   78.2300  137.8100 H         6 CUB7        0.0000 
     73 DU         26.8300   79.1900  138.8900 H         6 CUB7        0.0000 
     74 DU         28.3200   80.6900  139.0900 H         6 CUB7        0.0000 
     75 DU         28.1900   79.1300  140.5200 H         6 CUB7        0.0000 
     76 DU         27.2400   80.1500  139.9700 H         6 CUB7        0.0000 
     77 DU         29.6800   80.6300  140.7100 H         6 CUB7        0.0000 
@<TRIPOS>BOND
@<TRIPOS>SUBSTRUCTURE
     1 SER1        1 GROUP   
     2 ALA2        4 GROUP   
     3 LYS4       32 GROUP   
     4 PHE5       39 GROUP   
     5 GLY6       47 GROUP   
     6 CUB7       71 GROUP   
@<TRIPOS>SET

