#    Name: 6mlr_3_GDP
#    Modification time : Fri May 22 19:27:57 2020

@<TRIPOS>MOLECULE
6mlr_3_GDP
   28    30     1     0     1
SMALL
NO_CHARGES


@<TRIPOS>ATOM
      1 PB         34.3530   83.6140  142.2090 P.3       1 GDP600      0.0000 
      2 O1B        34.8760   84.6020  141.1980 O.co2     1 GDP600      0.0000 
      3 O2B        33.9080   84.3390  143.4540 O.co2     1 GDP600      0.0000 
      4 O3B        35.4190   82.6110  142.5350 O.co2     1 GDP600      0.0000 
      5 O3A        33.1400   82.7970  141.5730 O.3       1 GDP600      0.0000 
      6 PA         33.3800   81.9040  140.2670 P.3       1 GDP600      0.0000 
      7 O1A        34.7300   82.1570  139.6470 O.co2     1 GDP600      0.0000 
      8 O2A        33.1710   80.4440  140.5570 O.co2     1 GDP600      0.0000 
      9 O5'        32.1450   82.3800  139.3730 O.3       1 GDP600      0.0000 
     10 C5'        30.9130   81.8480  139.8300 C.3       1 GDP600      0.0000 
     11 C4'        29.7420   82.3850  139.0510 C.3       1 GDP600      0.0000 
     12 O4'        29.4820   81.5090  137.9630 O.3       1 GDP600      0.0000 
     13 C3'        28.5570   82.3370  139.9810 C.3       1 GDP600      0.0000 
     14 O3'        28.0210   83.6520  140.0890 O.3       1 GDP600      0.0000 
     15 C2'        27.5530   81.4090  139.3410 C.3       1 GDP600      0.0000 
     16 O2'        26.3710   82.1300  139.0160 O.3       1 GDP600      0.0000 
     17 C1'        28.1870   80.9240  138.0600 C.3       1 GDP600      0.0000 
     18 N9         28.3800   79.4760  138.1910 N.pl3     1 GDP600      0.0000 
     19 C8         28.9180   78.8740  139.2540 C.2       1 GDP600      0.0000 
     20 N7         28.9710   77.5380  139.0770 N.2       1 GDP600      0.0000 
     21 C5         28.4670   77.2850  137.8680 C.2       1 GDP600      0.0000 
     22 C6         28.2340   76.0800  137.0760 C.2       1 GDP600      0.0000 
     23 O6         28.5510   74.9710  137.5260 O.2       1 GDP600      0.0000 
     24 N1         27.6890   76.2230  135.8780 N.am      1 GDP600      0.0000 
     25 C2         27.3610   77.4290  135.3990 C.2       1 GDP600      0.0000 
     26 N2         26.8080   77.4940  134.1730 N.pl3     1 GDP600      0.0000 
     27 N3         27.5380   78.5820  136.0710 N.2       1 GDP600      0.0000 
     28 C4         28.0680   78.5610  137.2960 C.2       1 GDP600      0.0000 
@<TRIPOS>BOND
     1    1    2 ar   
     2    1    3 ar   
     3    1    4 ar   
     4    1    5 1    
     5    5    6 1    
     6    6    7 ar   
     7    6    8 ar   
     8    6    9 1    
     9    9   10 1    
    10   10   11 1    
    11   11   12 1    
    12   11   13 1    
    13   12   17 1    
    14   13   14 1    
    15   13   15 1    
    16   15   16 1    
    17   15   17 1    
    18   17   18 1    
    19   18   19 1    
    20   18   28 1    
    21   19   20 2    
    22   20   21 1    
    23   21   22 1    
    24   21   28 2    
    25   22   23 2    
    26   22   24 am   
    27   24   25 1    
    28   25   26 1    
    29   25   27 2    
    30   27   28 1    
@<TRIPOS>SUBSTRUCTURE
     1 GDP600      1 GROUP   
@<TRIPOS>SET
ATOM$ORANGE STATIC     ATOMS   COLORGROUP SYSTEM 
20 10 10 11 11 13 13 15 15 17 17 19 19 21 21 22 22 25 \
25 28 28 

