#    Name: 6mlr_2_GTP
#    Modification time : Fri May 22 19:27:50 2020

@<TRIPOS>MOLECULE
6mlr_2_GTP
   32    34     1     0     1
SMALL
NO_CHARGES


@<TRIPOS>ATOM
      1 PG         35.3770   81.2550  101.7430 P.3       1 GTP500      0.0000 
      2 O1G        35.7470   79.9440  101.1070 O.co2     1 GTP500      0.0000 
      3 O2G        35.2270   81.0720  103.2270 O.co2     1 GTP500      0.0000 
      4 O3G        36.3940   82.3290  101.4720 O.co2     1 GTP500      0.0000 
      5 O3B        33.9830   81.7890  101.1820 O.3       1 GTP500      0.0000 
      6 PB         33.9390   82.2820   99.6690 P.3       1 GTP500      0.0000 
      7 O1B        35.1360   81.7500   98.9340 O.co2     1 GTP500      0.0000 
      8 O2B        33.7920   83.7690   99.5560 O.co2     1 GTP500      0.0000 
      9 O3A        32.6220   81.5470   99.1730 O.3       1 GTP500      0.0000 
     10 PA         32.1910   81.5600   97.6360 P.3       1 GTP500      0.0000 
     11 O1A        33.3620   81.6220   96.6980 O.co2     1 GTP500      0.0000 
     12 O2A        31.4650   80.2640   97.4950 O.co2     1 GTP500      0.0000 
     13 O5'        31.1670   82.7790   97.4350 O.3       1 GTP500      0.0000 
     14 C5'        30.3290   83.1430   98.4960 C.3       1 GTP500      0.0000 
     15 C4'        28.8930   83.0260   98.0200 C.3       1 GTP500      0.0000 
     16 O4'        28.8170   82.0920   96.9700 O.3       1 GTP500      0.0000 
     17 C3'        27.9600   82.5240   99.0990 C.3       1 GTP500      0.0000 
     18 O3'        27.2870   83.6000   99.6960 O.3       1 GTP500      0.0000 
     19 C2'        26.9620   81.6790   98.3540 C.3       1 GTP500      0.0000 
     20 O2'        25.7760   82.4130   98.2230 O.3       1 GTP500      0.0000 
     21 C1'        27.5650   81.4460   96.9860 C.3       1 GTP500      0.0000 
     22 N9         27.8090   80.0180   96.8460 N.pl3     1 GTP500      0.0000 
     23 C8         28.5790   79.2630   97.6710 C.2       1 GTP500      0.0000 
     24 N7         28.5790   77.9970   97.2210 N.2       1 GTP500      0.0000 
     25 C5         27.8110   77.9450   96.1280 C.2       1 GTP500      0.0000 
     26 C6         27.4930   76.9060   95.3030 C.2       1 GTP500      0.0000 
     27 O6         27.9390   75.7970   95.5380 O.2       1 GTP500      0.0000 
     28 N1         26.6830   77.1290   94.2270 N.am      1 GTP500      0.0000 
     29 C2         26.2070   78.3990   93.9950 C.2       1 GTP500      0.0000 
     30 N2         25.4190   78.6260   92.9560 N.pl3     1 GTP500      0.0000 
     31 N3         26.5360   79.4390   94.8240 N.2       1 GTP500      0.0000 
     32 C4         27.3340   79.2070   95.8720 C.2       1 GTP500      0.0000 
@<TRIPOS>BOND
     1    1    2 ar   
     2    1    3 ar   
     3    1    4 ar   
     4    1    5 1    
     5    5    6 1    
     6    6    7 ar   
     7    6    8 ar   
     8    6    9 1    
     9    9   10 1    
    10   10   11 ar   
    11   10   12 ar   
    12   10   13 1    
    13   13   14 1    
    14   14   15 1    
    15   15   16 1    
    16   15   17 1    
    17   16   21 1    
    18   17   18 1    
    19   17   19 1    
    20   19   20 1    
    21   19   21 1    
    22   21   22 1    
    23   22   23 1    
    24   22   32 1    
    25   23   24 2    
    26   24   25 1    
    27   25   26 1    
    28   25   32 2    
    29   26   27 2    
    30   26   28 am   
    31   28   29 1    
    32   29   30 1    
    33   29   31 2    
    34   31   32 1    
@<TRIPOS>SUBSTRUCTURE
     1 GTP500      1 GROUP   
@<TRIPOS>SET
ATOM$ORANGE STATIC     ATOMS   COLORGROUP SYSTEM 
20 14 14 15 15 17 17 19 19 21 21 23 23 25 25 26 26 29 \
29 32 32 

