#    Name: 6mlr_1_TA1
#    Modification time : Fri May 22 19:27:35 2020

@<TRIPOS>MOLECULE
6mlr_1_TA1
   62    68     1     0     0
SMALL
NO_CHARGES


@<TRIPOS>ATOM
      1 O01        22.6720   63.2200  125.9260 O.3       1 TA1601      0.0000 
      2 C01        22.3560   63.3670  124.5290 C.3       1 TA1601      0.0000 
      3 C02        21.0210   64.3010  124.4640 C.3       1 TA1601      0.0000 
      4 O02        21.4840   65.5420  125.1250 O.3       1 TA1601      0.0000 
      5 C03        20.9960   65.8370  126.4190 C.2       1 TA1601      0.0000 
      6 O03        20.1940   65.1490  127.0050 O.2       1 TA1601      0.0000 
      7 C04        21.5360   67.0610  126.9500 C.ar      1 TA1601      0.0000 
      8 C05        21.6490   68.3080  126.3230 C.ar      1 TA1601      0.0000 
      9 C06        22.2180   69.3800  127.0620 C.ar      1 TA1601      0.0000 
     10 C07        22.6410   69.3500  128.2420 C.ar      1 TA1601      0.0000 
     11 C08        22.5680   68.1200  128.9540 C.ar      1 TA1601      0.0000 
     12 C09        21.9960   66.8890  128.3290 C.ar      1 TA1601      0.0000 
     13 C10        20.4220   64.7110  123.0140 C.3       1 TA1601      0.0000 
     14 C11        20.0110   66.2640  122.8760 C.3       1 TA1601      0.0000 
     15 O04        21.1820   67.1690  123.0170 O.3       1 TA1601      0.0000 
     16 C12        22.1850   67.2220  122.0760 C.2       1 TA1601      0.0000 
     17 O05        22.2330   66.5670  121.0780 O.2       1 TA1601      0.0000 
     18 C13        23.2150   68.2460  122.5030 C.3       1 TA1601      0.0000 
     19 C14        19.0050   66.8870  123.8780 C.3       1 TA1601      0.0000 
     20 O06        18.0960   67.2930  122.8290 O.3       1 TA1601      0.0000 
     21 C15        18.9720   66.7430  121.8240 C.3       1 TA1601      0.0000 
     22 C16        18.2570   65.6680  120.9400 C.3       1 TA1601      0.0000 
     23 C17        18.9130   64.2950  120.9810 C.3       1 TA1601      0.0000 
     24 O07        18.1450   63.3720  120.1690 O.3       1 TA1601      0.0000 
     25 C18        19.1480   63.7480  122.4710 C.3       1 TA1601      0.0000 
     26 C19        17.8330   63.9140  123.2910 C.3       1 TA1601      0.0000 
     27 C20        19.3600   62.1400  122.4400 C.2       1 TA1601      0.0000 
     28 O08        18.5280   61.4270  122.9750 O.2       1 TA1601      0.0000 
     29 C21        20.5790   61.4870  121.7760 C.3       1 TA1601      0.0000 
     30 O09        20.4580   60.0130  121.9570 O.3       1 TA1601      0.0000 
     31 C22        20.2350   59.1970  120.8650 C.2       1 TA1601      0.0000 
     32 O10        20.1260   59.5690  119.7370 O.2       1 TA1601      0.0000 
     33 C23        20.1420   57.7580  121.2960 C.3       1 TA1601      0.0000 
     34 C24        21.8740   62.0280  122.3870 C.2       1 TA1601      0.0000 
     35 C25        22.7530   62.7590  121.5950 C.2       1 TA1601      0.0000 
     36 C26        23.9650   63.4100  122.3320 C.3       1 TA1601      0.0000 
     37 O11        24.6490   64.4560  121.5550 O.3       1 TA1601      0.0000 
     38 C27        25.6990   64.0990  120.8290 C.2       1 TA1601      0.0000 
     39 O12        26.1660   63.0080  120.7150 O.2       1 TA1601      0.0000 
     40 C28        26.3010   65.3360  120.1150 C.3       1 TA1601      0.0000 
     41 O13        27.4400   64.9120  119.3900 O.3       1 TA1601      0.0000 
     42 C29        26.6330   66.4040  121.1870 C.3       1 TA1601      0.0000 
     43 N01        27.4510   65.7480  122.2020 N.am      1 TA1601      0.0000 
     44 C30        27.4990   66.1580  123.4900 C.2       1 TA1601      0.0000 
     45 O14        26.8730   67.1260  123.9100 O.2       1 TA1601      0.0000 
     46 C31        28.3560   65.3120  124.3630 C.ar      1 TA1601      0.0000 
     47 C32        29.7230   65.1240  124.1640 C.ar      1 TA1601      0.0000 
     48 C33        30.4830   64.2930  125.0310 C.ar      1 TA1601      0.0000 
     49 C34        29.8410   63.6390  126.1180 C.ar      1 TA1601      0.0000 
     50 C35        28.4840   63.8190  126.3230 C.ar      1 TA1601      0.0000 
     51 C36        27.7250   64.6350  125.4760 C.ar      1 TA1601      0.0000 
     52 C37        27.2850   67.6510  120.5580 C.ar      1 TA1601      0.0000 
     53 C38        26.4440   68.7120  120.1720 C.ar      1 TA1601      0.0000 
     54 C39        26.9830   69.8860  119.5810 C.ar      1 TA1601      0.0000 
     55 C40        28.3680   69.9910  119.3790 C.ar      1 TA1601      0.0000 
     56 C41        29.2000   68.9520  119.7570 C.ar      1 TA1601      0.0000 
     57 C42        28.6690   67.7700  120.3500 C.ar      1 TA1601      0.0000 
     58 C43        23.5180   64.0850  123.6860 C.3       1 TA1601      0.0000 
     59 C44        22.5930   63.0580  120.1100 C.3       1 TA1601      0.0000 
     60 C45        22.1650   61.8230  123.9540 C.3       1 TA1601      0.0000 
     61 C46        23.4810   60.9320  124.1210 C.3       1 TA1601      0.0000 
     62 C47        21.1300   61.0580  124.8100 C.3       1 TA1601      0.0000 
@<TRIPOS>BOND
     1    1    2 1    
     2    2    3 1    
     3    2   58 1    
     4    2   60 1    
     5    3    4 1    
     6    3   13 1    
     7    4    5 1    
     8    5    6 2    
     9    5    7 1    
    10    7    8 ar   
    11    7   12 ar   
    12    8    9 ar   
    13    9   10 ar   
    14   10   11 ar   
    15   11   12 ar   
    16   13   14 1    
    17   13   25 1    
    18   14   15 1    
    19   14   19 1    
    20   14   21 1    
    21   15   16 1    
    22   16   17 2    
    23   16   18 1    
    24   19   20 1    
    25   20   21 1    
    26   21   22 1    
    27   22   23 1    
    28   23   24 1    
    29   23   25 1    
    30   25   26 1    
    31   25   27 1    
    32   27   28 2    
    33   27   29 1    
    34   29   30 1    
    35   29   34 1    
    36   30   31 1    
    37   31   32 2    
    38   31   33 1    
    39   34   35 2    
    40   34   60 1    
    41   35   36 1    
    42   35   59 1    
    43   36   37 1    
    44   36   58 1    
    45   37   38 1    
    46   38   39 2    
    47   38   40 1    
    48   40   41 1    
    49   40   42 1    
    50   42   43 1    
    51   42   52 1    
    52   43   44 am   
    53   44   45 2    
    54   44   46 1    
    55   46   47 ar   
    56   46   51 ar   
    57   47   48 ar   
    58   48   49 ar   
    59   49   50 ar   
    60   50   51 ar   
    61   52   53 ar   
    62   52   57 ar   
    63   53   54 ar   
    64   54   55 ar   
    65   55   56 ar   
    66   56   57 ar   
    67   60   61 1    
    68   60   62 1    
@<TRIPOS>SUBSTRUCTURE
     1 TA1601      1 GROUP   
@<TRIPOS>SET

