#    Name: 6te0_3_ATP
#    Modification time : Fri May 22 19:33:01 2020

@<TRIPOS>MOLECULE
6te0_3_ATP
   43    45     1     0     1
SMALL
NO_CHARGES


@<TRIPOS>ATOM
      1 PG        336.5040  230.4260  303.5200 P.3       1 ATP601      0.0000 
      2 O1G       335.5770  229.2400  303.4780 O.co2     1 ATP601      0.0000 
      3 O2G       337.9580  230.1110  303.2810 O.co2     1 ATP601      0.0000 
      4 O3G       336.2140  231.4010  304.6340 O.co2     1 ATP601      0.0000 
      5 PB        334.5960  231.8390  302.1800 P.3       1 ATP601      0.0000 
      6 O1B       333.6550  230.7010  301.9040 O.co2     1 ATP601      0.0000 
      7 O2B       334.3900  232.7450  303.3640 O.co2     1 ATP601      0.0000 
      8 O3B       336.0860  231.2650  302.2300 O.3       1 ATP601      0.0000 
      9 PA        333.5260  233.7870  300.5400 P.3       1 ATP601      0.0000 
     10 O1A       333.4400  234.7520  301.6900 O.co2     1 ATP601      0.0000 
     11 O2A       332.3070  233.0480  300.0730 O.co2     1 ATP601      0.0000 
     12 O3A       334.6790  232.7350  300.8650 O.3       1 ATP601      0.0000 
     13 O5'       334.1980  234.5600  299.3140 O.3       1 ATP601      0.0000 
     14 C5'       334.0330  235.9610  299.2090 C.3       1 ATP601      0.0000 
     15 C4'       334.2920  236.3960  297.7780 C.3       1 ATP601      0.0000 
     16 O4'       333.1740  235.9980  296.9740 O.3       1 ATP601      0.0000 
     17 C3'       334.4010  237.9010  297.6260 C.3       1 ATP601      0.0000 
     18 O3'       335.4540  238.2400  296.7190 O.3       1 ATP601      0.0000 
     19 C2'       333.0410  238.2890  297.1110 C.3       1 ATP601      0.0000 
     20 O2'       333.0900  239.5040  296.3650 O.3       1 ATP601      0.0000 
     21 C1'       332.7210  237.1200  296.2120 C.3       1 ATP601      0.0000 
     22 N9        331.2670  237.0620  295.9440 N.pl3     1 ATP601      0.0000 
     23 C8        330.3470  236.4370  296.6960 C.2       1 ATP601      0.0000 
     24 N7        329.1120  236.5660  296.1540 N.2       1 ATP601      0.0000 
     25 C5        329.2420  237.2780  295.0270 C.ar      1 ATP601      0.0000 
     26 C6        328.3410  237.7810  293.9740 C.ar      1 ATP601      0.0000 
     27 N6        327.0190  237.5330  294.0100 N.pl3     1 ATP601      0.0000 
     28 N1        328.8760  238.4820  292.9600 N.ar      1 ATP601      0.0000 
     29 C2        330.1910  238.7380  292.8970 C.ar      1 ATP601      0.0000 
     30 N3        331.0680  238.3170  293.8230 N.ar      1 ATP601      0.0000 
     31 C4        330.6630  237.5880  294.8850 C.ar      1 ATP601      0.0000 
     32 H5'1      334.7180  236.4560  299.8940 H         1 ATP601      0.0000 
     33 H5'2      333.0170  236.2240  299.5010 H         1 ATP601      0.0000 
     34 H4'       335.2110  235.9210  297.4120 H         1 ATP601      0.0000 
     35 H3'       334.5600  238.3680  298.6060 H         1 ATP601      0.0000 
     36 HO3'      335.5410  239.1990  296.6620 H         1 ATP601      0.0000 
     37 H2'       332.3210  238.3430  297.9350 H         1 ATP601      0.0000 
     38 HO2'      332.2250  239.6670  295.9700 H         1 ATP601      0.0000 
     39 H1'       333.2880  237.2150  295.2800 H         1 ATP601      0.0000 
     40 H8        330.5600  235.9100  297.6130 H         1 ATP601      0.0000 
     41 HN61      326.6250  237.0010  294.7700 H         1 ATP601      0.0000 
     42 HN62      326.4290  237.8850  293.2750 H         1 ATP601      0.0000 
     43 H2        330.5540  239.3140  292.0590 H         1 ATP601      0.0000 
@<TRIPOS>BOND
     1    1    2 ar   
     2    1    3 ar   
     3    1    4 ar   
     4    1    8 1    
     5    5    6 ar   
     6    5    7 ar   
     7    5    8 1    
     8    5   12 1    
     9    9   10 ar   
    10    9   11 ar   
    11    9   12 1    
    12    9   13 1    
    13   13   14 1    
    14   14   15 1    
    15   14   32 1    
    16   14   33 1    
    17   15   16 1    
    18   15   17 1    
    19   15   34 1    
    20   16   21 1    
    21   17   18 1    
    22   17   19 1    
    23   17   35 1    
    24   18   36 1    
    25   19   20 1    
    26   19   21 1    
    27   19   37 1    
    28   20   38 1    
    29   21   22 1    
    30   21   39 1    
    31   22   23 1    
    32   22   31 1    
    33   23   24 2    
    34   23   40 1    
    35   24   25 1    
    36   25   26 ar   
    37   25   31 ar   
    38   26   27 1    
    39   26   28 ar   
    40   27   41 1    
    41   27   42 1    
    42   28   29 ar   
    43   29   30 ar   
    44   29   43 1    
    45   30   31 ar   
@<TRIPOS>SUBSTRUCTURE
     1 ATP601      1 GROUP   
@<TRIPOS>SET
ATOM$ORANGE STATIC     ATOMS   COLORGROUP SYSTEM 
20 14 14 15 15 17 17 19 19 21 21 23 23 25 25 26 26 29 \
29 31 31 

