#    Name: 6te0_2_ATP
#    Modification time : Fri May 22 19:32:48 2020

@<TRIPOS>MOLECULE
6te0_2_ATP
   43    45     1     0     1
SMALL
NO_CHARGES


@<TRIPOS>ATOM
      1 PG        361.1210  192.9210  292.6630 P.3       1 ATP601      0.0000 
      2 O1G       361.8710  194.2270  292.6390 O.co2     1 ATP601      0.0000 
      3 O2G       359.8130  192.9230  293.4100 O.co2     1 ATP601      0.0000 
      4 O3G       362.0010  191.7230  292.9050 O.co2     1 ATP601      0.0000 
      5 PB        361.7790  193.1230  290.0460 P.3       1 ATP601      0.0000 
      6 O1B       361.1170  193.9240  288.9600 O.co2     1 ATP601      0.0000 
      7 O2B       363.0020  193.6390  290.7560 O.co2     1 ATP601      0.0000 
      8 O3B       360.6820  192.7390  291.1400 O.3       1 ATP601      0.0000 
      9 PA        363.3330  191.4670  288.4600 P.3       1 ATP601      0.0000 
     10 O1A       364.4670  190.7640  289.1660 O.co2     1 ATP601      0.0000 
     11 O2A       363.5300  192.7750  287.7350 O.co2     1 ATP601      0.0000 
     12 O3A       362.1020  191.6720  289.4610 O.3       1 ATP601      0.0000 
     13 O5'       362.6240  190.4640  287.4290 O.3       1 ATP601      0.0000 
     14 C5'       363.2000  190.2490  286.1540 C.3       1 ATP601      0.0000 
     15 C4'       362.0620  189.9440  285.2020 C.3       1 ATP601      0.0000 
     16 O4'       361.6590  191.2090  284.6970 O.3       1 ATP601      0.0000 
     17 C3'       362.4010  189.0470  284.0230 C.3       1 ATP601      0.0000 
     18 O3'       361.2970  188.2080  283.6890 O.3       1 ATP601      0.0000 
     19 C2'       362.6660  190.0580  282.9330 C.3       1 ATP601      0.0000 
     20 O2'       362.4050  189.5370  281.6280 O.3       1 ATP601      0.0000 
     21 C1'       361.7110  191.1720  283.2840 C.3       1 ATP601      0.0000 
     22 N9        362.2840  192.4300  282.7800 N.pl3     1 ATP601      0.0000 
     23 C8        362.5990  193.4790  283.5580 C.2       1 ATP601      0.0000 
     24 N7        363.1460  194.4720  282.8250 N.2       1 ATP601      0.0000 
     25 C5        363.2060  194.0400  281.5610 C.ar      1 ATP601      0.0000 
     26 C6        363.6790  194.6060  280.2940 C.ar      1 ATP601      0.0000 
     27 N6        364.1930  195.8590  280.2970 N.pl3     1 ATP601      0.0000 
     28 N1        363.5650  193.8380  279.1880 N.ar      1 ATP601      0.0000 
     29 C2        363.0480  192.5940  279.2300 C.ar      1 ATP601      0.0000 
     30 N3        362.6030  192.0240  280.3590 N.ar      1 ATP601      0.0000 
     31 C4        362.6630  192.6830  281.5340 C.ar      1 ATP601      0.0000 
     32 H5'1      363.9100  189.4230  286.1980 H         1 ATP601      0.0000 
     33 H5'2      363.7240  191.1450  285.8200 H         1 ATP601      0.0000 
     34 H4'       361.2380  189.4920  285.7670 H         1 ATP601      0.0000 
     35 H3'       363.3090  188.4630  284.2170 H         1 ATP601      0.0000 
     36 HO3'      361.5570  187.6010  282.9850 H         1 ATP601      0.0000 
     37 H2'       363.6950  190.4270  283.0210 H         1 ATP601      0.0000 
     38 HO2'      363.2250  189.1910  281.2530 H         1 ATP601      0.0000 
     39 H1'       360.7250  190.9720  282.8500 H         1 ATP601      0.0000 
     40 H8        362.4210  193.5360  284.6230 H         1 ATP601      0.0000 
     41 HN61      364.2410  196.3720  281.1650 H         1 ATP601      0.0000 
     42 HN62      364.5270  196.2830  279.4510 H         1 ATP601      0.0000 
     43 H2        362.9880  192.0250  278.3120 H         1 ATP601      0.0000 
@<TRIPOS>BOND
     1    1    2 ar   
     2    1    3 ar   
     3    1    4 ar   
     4    1    8 1    
     5    5    6 ar   
     6    5    7 ar   
     7    5    8 1    
     8    5   12 1    
     9    9   10 ar   
    10    9   11 ar   
    11    9   12 1    
    12    9   13 1    
    13   13   14 1    
    14   14   15 1    
    15   14   32 1    
    16   14   33 1    
    17   15   16 1    
    18   15   17 1    
    19   15   34 1    
    20   16   21 1    
    21   17   18 1    
    22   17   19 1    
    23   17   35 1    
    24   18   36 1    
    25   19   20 1    
    26   19   21 1    
    27   19   37 1    
    28   20   38 1    
    29   21   22 1    
    30   21   39 1    
    31   22   23 1    
    32   22   31 1    
    33   23   24 2    
    34   23   40 1    
    35   24   25 1    
    36   25   26 ar   
    37   25   31 ar   
    38   26   27 1    
    39   26   28 ar   
    40   27   41 1    
    41   27   42 1    
    42   28   29 ar   
    43   29   30 ar   
    44   29   43 1    
    45   30   31 ar   
@<TRIPOS>SUBSTRUCTURE
     1 ATP601      1 GROUP   
@<TRIPOS>SET
ATOM$ORANGE STATIC     ATOMS   COLORGROUP SYSTEM 
20 14 14 15 15 17 17 19 19 21 21 23 23 25 25 26 26 29 \
29 31 31 

