#    Name: 6te0_4_ATP
#    Modification time : Fri May 22 19:33:14 2020

@<TRIPOS>MOLECULE
6te0_4_ATP
   43    45     1     0     1
SMALL
NO_CHARGES


@<TRIPOS>ATOM
      1 PG        340.8990  178.0110  301.6730 P.3       1 ATP601      0.0000 
      2 O1G       342.3070  178.2930  301.2260 O.co2     1 ATP601      0.0000 
      3 O2G       340.1700  179.2230  302.1890 O.co2     1 ATP601      0.0000 
      4 O3G       340.7450  176.7600  302.5020 O.co2     1 ATP601      0.0000 
      5 PB        340.5760  176.3310  299.5260 P.3       1 ATP601      0.0000 
      6 O1B       341.9950  176.5240  299.0670 O.co2     1 ATP601      0.0000 
      7 O2B       340.2060  175.1290  300.3550 O.co2     1 ATP601      0.0000 
      8 O3B       340.1240  177.6440  300.3210 O.3       1 ATP601      0.0000 
      9 PA        339.6880  175.1990  297.1680 P.3       1 ATP601      0.0000 
     10 O1A       339.4260  173.9040  297.8900 O.co2     1 ATP601      0.0000 
     11 O2A       340.9400  175.3460  296.3410 O.co2     1 ATP601      0.0000 
     12 O3A       339.6210  176.3830  298.2450 O.3       1 ATP601      0.0000 
     13 O5'       338.3880  175.5050  296.2890 O.3       1 ATP601      0.0000 
     14 C5'       337.5740  174.4410  295.8140 C.3       1 ATP601      0.0000 
     15 C4'       336.6730  175.0290  294.7410 C.3       1 ATP601      0.0000 
     16 O4'       337.4240  175.0990  293.5240 O.3       1 ATP601      0.0000 
     17 C3'       335.4420  174.2160  294.3990 C.3       1 ATP601      0.0000 
     18 O3'       334.3360  175.1040  294.2640 O.3       1 ATP601      0.0000 
     19 C2'       335.7710  173.5300  293.0940 C.3       1 ATP601      0.0000 
     20 O2'       334.6210  173.2000  292.3180 O.3       1 ATP601      0.0000 
     21 C1'       336.6220  174.6020  292.4540 C.3       1 ATP601      0.0000 
     22 N9        337.4250  174.0590  291.3340 N.pl3     1 ATP601      0.0000 
     23 C8        338.7580  174.0960  291.2020 C.2       1 ATP601      0.0000 
     24 N7        339.1580  173.4730  290.0730 N.2       1 ATP601      0.0000 
     25 C5        338.0600  173.0010  289.4740 C.ar      1 ATP601      0.0000 
     26 C6        337.7690  172.2540  288.2410 C.ar      1 ATP601      0.0000 
     27 N6        338.7760  171.8740  287.4260 N.pl3     1 ATP601      0.0000 
     28 N1        336.4800  171.9590  287.9740 N.ar      1 ATP601      0.0000 
     29 C2        335.4750  172.3360  288.7890 C.ar      1 ATP601      0.0000 
     30 N3        335.6790  173.0250  289.9240 N.ar      1 ATP601      0.0000 
     31 C4        336.9250  173.3660  290.3200 C.ar      1 ATP601      0.0000 
     32 H5'1      336.9830  174.0380  296.6370 H         1 ATP601      0.0000 
     33 H5'2      338.1960  173.6440  295.4080 H         1 ATP601      0.0000 
     34 H4'       336.3500  176.0300  295.0480 H         1 ATP601      0.0000 
     35 H3'       335.2540  173.4670  295.1760 H         1 ATP601      0.0000 
     36 HO3'      333.5490  174.5980  294.0360 H         1 ATP601      0.0000 
     37 H2'       336.3840  172.6440  293.2940 H         1 ATP601      0.0000 
     38 HO2'      334.0730  172.5890  292.8270 H         1 ATP601      0.0000 
     39 H1'       335.9520  175.3900  292.0970 H         1 ATP601      0.0000 
     40 H8        339.4230  174.5660  291.8950 H         1 ATP601      0.0000 
     41 HN61      339.7260  172.1140  287.6670 H         1 ATP601      0.0000 
     42 HN62      338.5790  171.3570  286.5830 H         1 ATP601      0.0000 
     43 H2        334.4580  172.0740  288.5230 H         1 ATP601      0.0000 
@<TRIPOS>BOND
     1    1    2 ar   
     2    1    3 ar   
     3    1    4 ar   
     4    1    8 1    
     5    5    6 ar   
     6    5    7 ar   
     7    5    8 1    
     8    5   12 1    
     9    9   10 ar   
    10    9   11 ar   
    11    9   12 1    
    12    9   13 1    
    13   13   14 1    
    14   14   15 1    
    15   14   32 1    
    16   14   33 1    
    17   15   16 1    
    18   15   17 1    
    19   15   34 1    
    20   16   21 1    
    21   17   18 1    
    22   17   19 1    
    23   17   35 1    
    24   18   36 1    
    25   19   20 1    
    26   19   21 1    
    27   19   37 1    
    28   20   38 1    
    29   21   22 1    
    30   21   39 1    
    31   22   23 1    
    32   22   31 1    
    33   23   24 2    
    34   23   40 1    
    35   24   25 1    
    36   25   26 ar   
    37   25   31 ar   
    38   26   27 1    
    39   26   28 ar   
    40   27   41 1    
    41   27   42 1    
    42   28   29 ar   
    43   29   30 ar   
    44   29   43 1    
    45   30   31 ar   
@<TRIPOS>SUBSTRUCTURE
     1 ATP601      1 GROUP   
@<TRIPOS>SET
ATOM$ORANGE STATIC     ATOMS   COLORGROUP SYSTEM 
20 14 14 15 15 17 17 19 19 21 21 23 23 25 25 26 26 29 \
29 31 31 

