#    Name: 6te0_1_ATP
#    Modification time : Fri May 22 19:32:36 2020

@<TRIPOS>MOLECULE
6te0_1_ATP
   43    45     1     0     1
SMALL
NO_CHARGES


@<TRIPOS>ATOM
      1 PG        317.3920  186.8030  309.8290 P.3       1 ATP601      0.0000 
      2 O1G       318.4250  185.7050  309.8920 O.co2     1 ATP601      0.0000 
      3 O2G       317.9470  188.1980  309.6710 O.co2     1 ATP601      0.0000 
      4 O3G       316.2950  186.6600  310.8510 O.co2     1 ATP601      0.0000 
      5 PB        316.1670  185.0190  308.1540 P.3       1 ATP601      0.0000 
      6 O1B       317.3010  184.3030  307.4710 O.co2     1 ATP601      0.0000 
      7 O2B       315.5500  184.4470  309.4030 O.co2     1 ATP601      0.0000 
      8 O3B       316.6180  186.5230  308.4560 O.3       1 ATP601      0.0000 
      9 PA        313.9260  184.1040  306.8430 P.3       1 ATP601      0.0000 
     10 O1A       313.2920  183.7450  308.1620 O.co2     1 ATP601      0.0000 
     11 O2A       314.5420  183.0190  306.0070 O.co2     1 ATP601      0.0000 
     12 O3A       315.0100  185.2550  307.0780 O.3       1 ATP601      0.0000 
     13 O5'       312.8290  184.8880  305.9820 O.3       1 ATP601      0.0000 
     14 C5'       311.4640  184.7110  306.3240 C.3       1 ATP601      0.0000 
     15 C4'       310.5920  185.0650  305.1350 C.3       1 ATP601      0.0000 
     16 O4'       311.0730  184.3590  303.9890 O.3       1 ATP601      0.0000 
     17 C3'       309.1380  184.6760  305.3440 C.3       1 ATP601      0.0000 
     18 O3'       308.2420  185.6520  304.8140 O.3       1 ATP601      0.0000 
     19 C2'       309.0530  183.3650  304.6060 C.3       1 ATP601      0.0000 
     20 O2'       307.7340  183.1180  304.1230 O.3       1 ATP601      0.0000 
     21 C1'       310.0180  183.5640  303.4590 C.3       1 ATP601      0.0000 
     22 N9        310.4930  182.2410  303.0290 N.pl3     1 ATP601      0.0000 
     23 C8        311.5190  181.6150  303.6210 C.2       1 ATP601      0.0000 
     24 N7        311.7450  180.4110  303.0530 N.2       1 ATP601      0.0000 
     25 C5        310.8400  180.2640  302.0770 C.ar      1 ATP601      0.0000 
     26 C6        310.5350  179.2180  301.0940 C.ar      1 ATP601      0.0000 
     27 N6        311.2860  178.0900  301.0840 N.pl3     1 ATP601      0.0000 
     28 N1        309.5120  179.4480  300.2440 N.ar      1 ATP601      0.0000 
     29 C2        308.7860  180.5770  300.2810 C.ar      1 ATP601      0.0000 
     30 N3        309.0130  181.5680  301.1560 N.ar      1 ATP601      0.0000 
     31 C4        310.0070  181.4710  302.0630 C.ar      1 ATP601      0.0000 
     32 H5'1      311.2100  185.3470  307.1720 H         1 ATP601      0.0000 
     33 H5'2      311.3010  183.6700  306.6060 H         1 ATP601      0.0000 
     34 H4'       310.6470  186.1450  304.9640 H         1 ATP601      0.0000 
     35 H3'       308.9480  184.5090  306.4100 H         1 ATP601      0.0000 
     36 HO3'      307.3340  185.4010  305.0240 H         1 ATP601      0.0000 
     37 H2'       309.3940  182.5480  305.2550 H         1 ATP601      0.0000 
     38 HO2'      307.1270  183.0570  304.8730 H         1 ATP601      0.0000 
     39 H1'       309.5070  184.0770  302.6370 H         1 ATP601      0.0000 
     40 H8        312.0850  182.0260  304.4460 H         1 ATP601      0.0000 
     41 HN61      312.0380  177.9870  301.7460 H         1 ATP601      0.0000 
     42 HN62      311.1070  177.3510  300.4280 H         1 ATP601      0.0000 
     43 H2        307.9780  180.6900  299.5740 H         1 ATP601      0.0000 
@<TRIPOS>BOND
     1    1    2 ar   
     2    1    3 ar   
     3    1    4 ar   
     4    1    8 1    
     5    5    6 ar   
     6    5    7 ar   
     7    5    8 1    
     8    5   12 1    
     9    9   10 ar   
    10    9   11 ar   
    11    9   12 1    
    12    9   13 1    
    13   13   14 1    
    14   14   15 1    
    15   14   32 1    
    16   14   33 1    
    17   15   16 1    
    18   15   17 1    
    19   15   34 1    
    20   16   21 1    
    21   17   18 1    
    22   17   19 1    
    23   17   35 1    
    24   18   36 1    
    25   19   20 1    
    26   19   21 1    
    27   19   37 1    
    28   20   38 1    
    29   21   22 1    
    30   21   39 1    
    31   22   23 1    
    32   22   31 1    
    33   23   24 2    
    34   23   40 1    
    35   24   25 1    
    36   25   26 ar   
    37   25   31 ar   
    38   26   27 1    
    39   26   28 ar   
    40   27   41 1    
    41   27   42 1    
    42   28   29 ar   
    43   29   30 ar   
    44   29   43 1    
    45   30   31 ar   
@<TRIPOS>SUBSTRUCTURE
     1 ATP601      1 GROUP   
@<TRIPOS>SET
ATOM$ORANGE STATIC     ATOMS   COLORGROUP SYSTEM 
20 14 14 15 15 17 17 19 19 21 21 23 23 25 25 26 26 29 \
29 31 31 

