#    Name: 6te0_5_ADP
#    Modification time : Fri May 22 19:33:25 2020

@<TRIPOS>MOLECULE
6te0_5_ADP
   38    40     1     0     1
SMALL
NO_CHARGES


@<TRIPOS>ATOM
      1 PB        357.9920  220.9660  293.1690 P.3       1 ADP601      0.0000 
      2 O1B       357.6640  222.3690  292.7550 O.co2     1 ADP601      0.0000 
      3 O2B       356.8220  220.1460  293.6440 O.co2     1 ADP601      0.0000 
      4 O3B       359.2520  220.8350  293.9930 O.co2     1 ADP601      0.0000 
      5 PA        359.3890  221.0690  290.7940 P.3       1 ADP601      0.0000 
      6 O1A       358.8320  222.4000  290.3680 O.co2     1 ADP601      0.0000 
      7 O2A       360.7240  220.9660  291.4820 O.co2     1 ADP601      0.0000 
      8 O3A       358.3420  220.3210  291.7500 O.3       1 ADP601      0.0000 
      9 O5'       359.3400  220.0950  289.5250 O.3       1 ADP601      0.0000 
     10 C5'       360.1620  220.3700  288.4040 C.3       1 ADP601      0.0000 
     11 C4'       359.7220  219.5060  287.2290 C.3       1 ADP601      0.0000 
     12 O4'       358.3240  219.6600  286.9670 O.3       1 ADP601      0.0000 
     13 C3'       360.4180  219.8370  285.9320 C.3       1 ADP601      0.0000 
     14 O3'       361.5970  219.0480  285.8330 O.3       1 ADP601      0.0000 
     15 C2'       359.3920  219.4100  284.9200 C.3       1 ADP601      0.0000 
     16 O2'       359.3210  217.9880  284.7600 O.3       1 ADP601      0.0000 
     17 C1'       358.1310  219.9380  285.5750 C.3       1 ADP601      0.0000 
     18 N9        357.9280  221.4090  285.4850 N.pl3     1 ADP601      0.0000 
     19 C8        357.5010  222.1450  286.5270 C.2       1 ADP601      0.0000 
     20 N7        357.3830  223.4530  286.2010 N.2       1 ADP601      0.0000 
     21 C5        357.7400  223.5710  284.9190 C.ar      1 ADP601      0.0000 
     22 C6        357.8370  224.6850  283.9600 C.ar      1 ADP601      0.0000 
     23 N6        357.5240  225.9440  284.3340 N.pl3     1 ADP601      0.0000 
     24 N1        358.2490  224.4030  282.7080 N.ar      1 ADP601      0.0000 
     25 C2        358.5630  223.1470  282.3330 C.ar      1 ADP601      0.0000 
     26 N3        358.4900  222.0910  283.1620 N.ar      1 ADP601      0.0000 
     27 C4        358.0950  222.2280  284.4440 C.ar      1 ADP601      0.0000 
     28 H5'1      361.2020  220.1630  288.6640 H         1 ADP601      0.0000 
     29 H5'2      360.0750  221.4260  288.1430 H         1 ADP601      0.0000 
     30 H4'       359.9340  218.4630  287.4730 H         1 ADP601      0.0000 
     31 H3'       360.6270  220.9060  285.8510 H         1 ADP601      0.0000 
     32 H2'       359.5960  219.9090  283.9600 H         1 ADP601      0.0000 
     33 HO2'      360.1630  217.6520  284.4300 H         1 ADP601      0.0000 
     34 H1'       357.2660  219.3880  285.1910 H         1 ADP601      0.0000 
     35 H8        357.2770  221.7550  287.5120 H         1 ADP601      0.0000 
     36 HN61      357.2190  226.1240  285.2790 H         1 ADP601      0.0000 
     37 HN62      357.5950  226.7010  283.6710 H         1 ADP601      0.0000 
     38 H2        358.8860  222.9750  281.3130 H         1 ADP601      0.0000 
@<TRIPOS>BOND
     1    1    2 ar   
     2    1    3 ar   
     3    1    4 ar   
     4    1    8 1    
     5    5    6 ar   
     6    5    7 ar   
     7    5    8 1    
     8    5    9 1    
     9    9   10 1    
    10   10   11 1    
    11   10   28 1    
    12   10   29 1    
    13   11   12 1    
    14   11   13 1    
    15   11   30 1    
    16   12   17 1    
    17   13   14 1    
    18   13   15 1    
    19   13   31 1    
    20   15   16 1    
    21   15   17 1    
    22   15   32 1    
    23   16   33 1    
    24   17   18 1    
    25   17   34 1    
    26   18   19 1    
    27   18   27 1    
    28   19   20 2    
    29   19   35 1    
    30   20   21 1    
    31   21   22 ar   
    32   21   27 ar   
    33   22   23 1    
    34   22   24 ar   
    35   23   36 1    
    36   23   37 1    
    37   24   25 ar   
    38   25   26 ar   
    39   25   38 1    
    40   26   27 ar   
@<TRIPOS>SUBSTRUCTURE
     1 ADP601      1 GROUP   
@<TRIPOS>SET
ATOM$ORANGE STATIC     ATOMS   COLORGROUP SYSTEM 
20 10 10 11 11 13 13 15 15 17 17 19 19 21 21 22 22 25 \
25 27 27 

