#    Name: 6u1v_4_FDA
#    Modification time : Fri May 22 19:31:46 2020

@<TRIPOS>MOLECULE
6u1v_4_FDA
   86    91     1     0     0
SMALL
NO_CHARGES


@<TRIPOS>ATOM
      1 PA         32.1760   21.5940   54.8320 P.3       1 FDA401      0.0000 
      2 O1A        30.9780   21.1000   55.5280 O.co2     1 FDA401      0.0000 
      3 O2A        31.9550   22.8100   53.9350 O.co2     1 FDA401      0.0000 
      4 O5B        32.7580   20.4020   53.8180 O.3       1 FDA401      0.0000 
      5 C5B        33.0790   19.1970   54.4140 C.3       1 FDA401      0.0000 
      6 C4B        33.0000   18.0900   53.3150 C.3       1 FDA401      0.0000 
      7 O4B        31.7180   17.8190   52.9990 O.3       1 FDA401      0.0000 
      8 C3B        33.7230   18.5210   52.0060 C.3       1 FDA401      0.0000 
      9 O3B        35.0700   18.2820   52.0940 O.3       1 FDA401      0.0000 
     10 C2B        32.9230   17.6120   51.0320 C.3       1 FDA401      0.0000 
     11 O2B        33.4870   16.2060   51.1510 O.3       1 FDA401      0.0000 
     12 C1B        31.6570   17.6070   51.4460 C.3       1 FDA401      0.0000 
     13 N9A        30.8980   18.7110   50.9030 N.pl3     1 FDA401      0.0000 
     14 C8A        30.6660   19.9160   51.4330 C.2       1 FDA401      0.0000 
     15 N7A        29.9450   20.6430   50.5520 N.2       1 FDA401      0.0000 
     16 C5A        29.7410   19.8590   49.4750 C.ar      1 FDA401      0.0000 
     17 C6A        29.0800   20.0840   48.3000 C.ar      1 FDA401      0.0000 
     18 N6A        28.4010   21.2950   47.8930 N.pl3     1 FDA401      0.0000 
     19 N1A        29.0160   19.1330   47.3890 N.ar      1 FDA401      0.0000 
     20 C2A        29.5980   17.9320   47.6120 C.ar      1 FDA401      0.0000 
     21 N3A        30.2800   17.6930   48.7550 N.ar      1 FDA401      0.0000 
     22 C4A        30.3270   18.6730   49.6900 C.ar      1 FDA401      0.0000 
     23 N1         36.3230   29.8090   60.0340 N.am      1 FDA401      0.0000 
     24 C2         35.9400   31.0610   60.5600 C.2       1 FDA401      0.0000 
     25 O2         34.7860   31.2800   60.7450 O.2       1 FDA401      0.0000 
     26 N3         36.9720   31.9700   60.8570 N.am      1 FDA401      0.0000 
     27 C4         38.3400   31.6930   60.6910 C.2       1 FDA401      0.0000 
     28 O4         39.1870   32.4900   60.9890 O.2       1 FDA401      0.0000 
     29 C4X        38.7010   30.3610   60.1240 C.2       1 FDA401      0.0000 
     30 N5         40.0600   30.0130   59.7970 N.pl3     1 FDA401      0.0000 
     31 C5X        40.3730   28.5990   59.7760 C.ar      1 FDA401      0.0000 
     32 C6         41.6830   28.1880   59.9230 C.ar      1 FDA401      0.0000 
     33 C7         41.9760   26.8410   59.8460 C.ar      1 FDA401      0.0000 
     34 C7M        43.4340   26.4950   60.0500 C.3       1 FDA401      0.0000 
     35 C8         40.9700   25.9300   59.6200 C.ar      1 FDA401      0.0000 
     36 C8M        41.1800   24.4180   59.5130 C.3       1 FDA401      0.0000 
     37 C9         39.6520   26.3420   59.4610 C.ar      1 FDA401      0.0000 
     38 C9A        39.3660   27.6860   59.5140 C.ar      1 FDA401      0.0000 
     39 N10        38.0100   28.1760   59.3090 N.pl3     1 FDA401      0.0000 
     40 C10        37.6960   29.4950   59.8280 C.2       1 FDA401      0.0000 
     41 C1'        36.9540   27.2700   58.9570 C.3       1 FDA401      0.0000 
     42 C2'        37.1650   26.9200   57.4710 C.3       1 FDA401      0.0000 
     43 O2'        37.0630   28.0190   56.6140 O.3       1 FDA401      0.0000 
     44 C3'        36.1090   25.8600   57.1000 C.3       1 FDA401      0.0000 
     45 O3'        36.5090   24.6750   57.7520 O.3       1 FDA401      0.0000 
     46 C4'        36.0040   25.6320   55.6240 C.3       1 FDA401      0.0000 
     47 O4'        35.3030   26.6590   54.9960 O.3       1 FDA401      0.0000 
     48 C5'        35.2720   24.3150   55.3710 C.3       1 FDA401      0.0000 
     49 O5'        33.9600   24.2970   55.9790 O.3       1 FDA401      0.0000 
     50 P          33.6680   22.9780   56.9030 P.3       1 FDA401      0.0000 
     51 O1P        34.8600   22.5070   57.6920 O.co2     1 FDA401      0.0000 
     52 O2P        32.4070   23.2250   57.6550 O.co2     1 FDA401      0.0000 
     53 O3P        33.4130   21.7480   55.8470 O.3       1 FDA401      0.0000 
     54 H51A       33.9770   19.2380   54.7780 H         1 FDA401      0.0000 
     55 H52A       32.4500   19.0020   55.1260 H         1 FDA401      0.0000 
     56 H4B        33.4240   17.2790   53.6360 H         1 FDA401      0.0000 
     57 H3B        33.6650   19.4560   51.7540 H         1 FDA401      0.0000 
     58 HO3A       35.4810   18.9130   51.6980 H         1 FDA401      0.0000 
     59 H2B        32.9600   17.9670   50.1300 H         1 FDA401      0.0000 
     60 HO2A       33.8410   15.9920   50.4080 H         1 FDA401      0.0000 
     61 H1B        31.2670   16.7550   51.1930 H         1 FDA401      0.0000 
     62 H8A        30.9530   20.2050   52.2690 H         1 FDA401      0.0000 
     63 H61A       28.8040   21.8780   47.4090 H         1 FDA401      0.0000 
     64 H62A       27.5890   21.4380   48.1500 H         1 FDA401      0.0000 
     65 H2A        29.5290   17.2630   46.9710 H         1 FDA401      0.0000 
     66 HN1        35.7200   29.2290   59.8350 H         1 FDA401      0.0000 
     67 HN3        36.7520   32.7440   61.1600 H         1 FDA401      0.0000 
     68 HN5        40.6520   30.6120   59.6240 H         1 FDA401      0.0000 
     69 H6         42.3580   28.8090   60.0730 H         1 FDA401      0.0000 
     70 HM71       43.6280   26.4570   60.9990 H         1 FDA401      0.0000 
     71 HM72       43.9880   27.1730   59.6330 H         1 FDA401      0.0000 
     72 HM73       43.6210   25.6330   59.6470 H         1 FDA401      0.0000 
     73 HM81       41.3030   24.0460   60.4010 H         1 FDA401      0.0000 
     74 HM82       40.4030   24.0130   59.0980 H         1 FDA401      0.0000 
     75 HM83       41.9660   24.2380   58.9750 H         1 FDA401      0.0000 
     76 H9         38.9750   25.7190   59.3220 H         1 FDA401      0.0000 
     77 H1'1       36.0910   27.6940   59.0830 H         1 FDA401      0.0000 
     78 H1'2       37.0030   26.4690   59.5010 H         1 FDA401      0.0000 
     79 H2'        38.0700   26.5900   57.3590 H         1 FDA401      0.0000 
     80 HO2'       36.3170   28.3940   56.7360 H         1 FDA401      0.0000 
     81 H3'        35.2290   26.1580   57.3780 H         1 FDA401      0.0000 
     82 HO3'       37.1780   24.3520   57.3460 H         1 FDA401      0.0000 
     83 H4'        36.9030   25.6060   55.2600 H         1 FDA401      0.0000 
     84 HO4'       34.5000   26.6450   55.2500 H         1 FDA401      0.0000 
     85 H5'1       35.7980   23.5890   55.7400 H         1 FDA401      0.0000 
     86 H5'2       35.1750   24.1900   54.4140 H         1 FDA401      0.0000 
@<TRIPOS>BOND
     1    1    2 ar   
     2    1    3 ar   
     3    1    4 1    
     4    1   53 1    
     5    4    5 1    
     6    5    6 1    
     7    5   54 1    
     8    5   55 1    
     9    6    7 1    
    10    6    8 1    
    11    6   56 1    
    12    7   12 1    
    13    8    9 1    
    14    8   10 1    
    15    8   57 1    
    16    9   58 1    
    17   10   11 1    
    18   10   12 1    
    19   10   59 1    
    20   12   61 1    
    21   12   13 1    
    22   11   60 1    
    23   13   14 1    
    24   13   22 1    
    25   14   15 2    
    26   15   16 1    
    27   14   62 1    
    28   16   17 ar   
    29   16   22 ar   
    30   17   18 1    
    31   17   19 ar   
    32   19   20 ar   
    33   18   63 1    
    34   18   64 1    
    35   20   21 ar   
    36   21   22 ar   
    37   20   65 1    
    38   23   24 1    
    39   24   25 2    
    40   23   66 1    
    41   23   40 1    
    42   24   26 1    
    43   26   27 1    
    44   27   28 2    
    45   26   67 1    
    46   27   29 1    
    47   29   30 1    
    48   29   40 2    
    49   30   31 1    
    50   31   32 ar   
    51   30   68 1    
    52   31   38 ar   
    53   32   33 ar   
    54   33   34 1    
    55   32   69 1    
    56   33   35 ar   
    57   34   70 1    
    58   34   71 1    
    59   34   72 1    
    60   35   36 1    
    61   35   37 ar   
    62   36   73 1    
    63   36   74 1    
    64   36   75 1    
    65   37   38 ar   
    66   38   39 1    
    67   37   76 1    
    68   39   40 1    
    69   39   41 1    
    70   41   42 1    
    71   41   77 1    
    72   41   78 1    
    73   42   43 1    
    74   42   44 1    
    75   42   79 1    
    76   43   80 1    
    77   44   45 1    
    78   44   46 1    
    79   44   81 1    
    80   45   82 1    
    81   46   47 1    
    82   46   48 1    
    83   46   83 1    
    84   47   84 1    
    85   48   49 1    
    86   48   85 1    
    87   48   86 1    
    88   49   50 1    
    89   50   51 ar   
    90   50   52 ar   
    91   50   53 1    
@<TRIPOS>SUBSTRUCTURE
     1 FDA401      1 GROUP   
@<TRIPOS>SET

