#    Name: 6u1v_3_FDA
#    Modification time : Fri May 22 19:31:39 2020

@<TRIPOS>MOLECULE
6u1v_3_FDA
   86    91     1     0     0
SMALL
NO_CHARGES


@<TRIPOS>ATOM
      1 PA         59.2840   18.2970   17.4870 P.3       1 FDA401      0.0000 
      2 O1A        60.4920   17.7050   16.8400 O.co2     1 FDA401      0.0000 
      3 O2A        59.4470   19.6580   18.1010 O.co2     1 FDA401      0.0000 
      4 O5B        58.6950   17.2540   18.6190 O.3       1 FDA401      0.0000 
      5 C5B        58.2980   15.9820   18.2230 C.3       1 FDA401      0.0000 
      6 C4B        58.3980   15.0980   19.5040 C.3       1 FDA401      0.0000 
      7 O4B        59.7070   14.9300   19.8740 O.3       1 FDA401      0.0000 
      8 C3B        57.6830   15.7730   20.7000 C.3       1 FDA401      0.0000 
      9 O3B        56.3230   15.5410   20.6510 O.3       1 FDA401      0.0000 
     10 C2B        58.4400   15.0550   21.8280 C.3       1 FDA401      0.0000 
     11 O2B        57.8990   13.6540   21.9280 O.3       1 FDA401      0.0000 
     12 C1B        59.7210   14.9920   21.4410 C.3       1 FDA401      0.0000 
     13 N9A        60.4960   16.1650   21.7780 N.pl3     1 FDA401      0.0000 
     14 C8A        60.7330   17.2780   21.0720 C.2       1 FDA401      0.0000 
     15 N7A        61.4760   18.1250   21.8120 N.2       1 FDA401      0.0000 
     16 C5A        61.6880   17.5150   22.9850 C.ar      1 FDA401      0.0000 
     17 C6A        62.3690   17.9050   24.1100 C.ar      1 FDA401      0.0000 
     18 N6A        63.0790   19.1400   24.3220 N.pl3     1 FDA401      0.0000 
     19 N1A        62.4240   17.0770   25.1660 N.ar      1 FDA401      0.0000 
     20 C2A        61.8210   15.8810   25.1130 C.ar      1 FDA401      0.0000 
     21 N3A        61.1270   15.4820   24.0130 N.ar      1 FDA401      0.0000 
     22 C4A        61.0780   16.3210   22.9630 C.ar      1 FDA401      0.0000 
     23 N1         55.2490   25.6050   10.8890 N.am      1 FDA401      0.0000 
     24 C2         55.6500   26.7640   10.1470 C.2       1 FDA401      0.0000 
     25 O2         56.8290   26.9330    9.9500 O.2       1 FDA401      0.0000 
     26 N3         54.6320   27.6360    9.7060 N.am      1 FDA401      0.0000 
     27 C4         53.2610   27.4040    9.9310 C.2       1 FDA401      0.0000 
     28 O4         52.3850   28.1340    9.4930 O.2       1 FDA401      0.0000 
     29 C4X        52.8790   26.1920   10.7260 C.2       1 FDA401      0.0000 
     30 N5         51.4920   25.9090   11.1130 N.pl3     1 FDA401      0.0000 
     31 C5X        51.1650   24.4980   11.3510 C.ar      1 FDA401      0.0000 
     32 C6         49.8550   24.0430   11.2200 C.ar      1 FDA401      0.0000 
     33 C7         49.5590   22.7170   11.5030 C.ar      1 FDA401      0.0000 
     34 C7M        48.1180   22.2930   11.3280 C.3       1 FDA401      0.0000 
     35 C8         50.5560   21.8590   11.8930 C.ar      1 FDA401      0.0000 
     36 C8M        50.3290   20.3800   12.2320 C.3       1 FDA401      0.0000 
     37 C9         51.8480   22.3220   12.0270 C.ar      1 FDA401      0.0000 
     38 C9A        52.1520   23.6540   11.7600 C.ar      1 FDA401      0.0000 
     39 N10        53.5010   24.1690   11.9250 N.pl3     1 FDA401      0.0000 
     40 C10        53.8560   25.3620   11.1680 C.2       1 FDA401      0.0000 
     41 C1'        54.5480   23.2950   12.4120 C.3       1 FDA401      0.0000 
     42 C2'        54.3440   23.1960   13.9430 C.3       1 FDA401      0.0000 
     43 O2'        54.5310   24.4070   14.5620 O.3       1 FDA401      0.0000 
     44 C3'        55.3630   22.1810   14.4540 C.3       1 FDA401      0.0000 
     45 O3'        54.8750   20.9330   14.0490 O.3       1 FDA401      0.0000 
     46 C4'        55.4890   22.2120   15.9500 C.3       1 FDA401      0.0000 
     47 O4'        56.2260   23.3290   16.3670 O.3       1 FDA401      0.0000 
     48 C5'        56.2870   20.9850   16.4820 C.3       1 FDA401      0.0000 
     49 O5'        57.4930   20.8510   15.7760 O.3       1 FDA401      0.0000 
     50 P          57.7880   19.3890   15.1490 P.3       1 FDA401      0.0000 
     51 O1P        56.5890   18.8030   14.4690 O.co2     1 FDA401      0.0000 
     52 O2P        59.0190   19.4270   14.3510 O.co2     1 FDA401      0.0000 
     53 O3P        58.0240   18.2790   16.3920 O.3       1 FDA401      0.0000 
     54 H51A       58.8860   15.6430   17.5310 H         1 FDA401      0.0000 
     55 H52A       57.3860   15.9990   17.8930 H         1 FDA401      0.0000 
     56 H4B        57.9960   14.2300   19.3450 H         1 FDA401      0.0000 
     57 H3B        57.7650   16.7370   20.7680 H         1 FDA401      0.0000 
     58 HO3A       55.9390   16.1950   21.0490 H         1 FDA401      0.0000 
     59 H2B        58.3680   15.5510   22.6580 H         1 FDA401      0.0000 
     60 HO2A       57.2930   13.6270   22.5210 H         1 FDA401      0.0000 
     61 H1B        60.0850   14.1990   21.8660 H         1 FDA401      0.0000 
     62 H8A        60.4330   17.4410   20.2070 H         1 FDA401      0.0000 
     63 H61A       62.6750   19.8090   24.6870 H         1 FDA401      0.0000 
     64 H62A       63.9010   19.2110   24.0900 H         1 FDA401      0.0000 
     65 H2A        61.8800   15.3100   25.8450 H         1 FDA401      0.0000 
     66 HN1        55.8430   25.0510   11.1700 H         1 FDA401      0.0000 
     67 HN3        54.8600   28.3470    9.2780 H         1 FDA401      0.0000 
     68 HN5        50.9060   26.5330   11.1960 H         1 FDA401      0.0000 
     69 H6         49.1830   24.6240   10.9430 H         1 FDA401      0.0000 
     70 HM71       47.9990   21.9090   10.4450 H         1 FDA401      0.0000 
     71 HM72       47.8910   21.6320   12.0010 H         1 FDA401      0.0000 
     72 HM73       47.5390   23.0650   11.4250 H         1 FDA401      0.0000 
     73 HM81       50.4500   20.2450   13.1850 H         1 FDA401      0.0000 
     74 HM82       49.4280   20.1250   11.9800 H         1 FDA401      0.0000 
     75 HM83       50.9670   19.8350   11.7450 H         1 FDA401      0.0000 
     76 H9         52.5210   21.7390   12.2970 H         1 FDA401      0.0000 
     77 H1'1       55.4200   23.6710   12.2120 H         1 FDA401      0.0000 
     78 H1'2       54.4730   22.4190   12.0040 H         1 FDA401      0.0000 
     79 H2'        53.4350   22.9220   14.1410 H         1 FDA401      0.0000 
     80 HO2'       54.8020   24.9700   13.9830 H         1 FDA401      0.0000 
     81 H3'        56.2460   22.3760   14.1020 H         1 FDA401      0.0000 
     82 HO3'       55.4100   20.5690   13.5010 H         1 FDA401      0.0000 
     83 H4'        54.5800   22.2240   16.2890 H         1 FDA401      0.0000 
     84 HO4'       57.0260   23.1110   16.5210 H         1 FDA401      0.0000 
     85 H5'1       56.4800   21.1120   17.4240 H         1 FDA401      0.0000 
     86 H5'2       55.7560   20.1820   16.3650 H         1 FDA401      0.0000 
@<TRIPOS>BOND
     1    1    2 ar   
     2    1    3 ar   
     3    1    4 1    
     4    1   53 1    
     5    4    5 1    
     6    5    6 1    
     7    5   54 1    
     8    5   55 1    
     9    6    7 1    
    10    6    8 1    
    11    6   56 1    
    12    7   12 1    
    13    8    9 1    
    14    8   10 1    
    15    8   57 1    
    16    9   58 1    
    17   10   11 1    
    18   10   12 1    
    19   10   59 1    
    20   12   61 1    
    21   12   13 1    
    22   11   60 1    
    23   13   14 1    
    24   13   22 1    
    25   14   15 2    
    26   15   16 1    
    27   14   62 1    
    28   16   17 ar   
    29   16   22 ar   
    30   17   18 1    
    31   17   19 ar   
    32   19   20 ar   
    33   18   63 1    
    34   18   64 1    
    35   20   21 ar   
    36   21   22 ar   
    37   20   65 1    
    38   23   24 1    
    39   24   25 2    
    40   23   66 1    
    41   23   40 1    
    42   24   26 1    
    43   26   27 1    
    44   27   28 2    
    45   26   67 1    
    46   27   29 1    
    47   29   30 1    
    48   29   40 2    
    49   30   31 1    
    50   31   32 ar   
    51   30   68 1    
    52   31   38 ar   
    53   32   33 ar   
    54   33   34 1    
    55   32   69 1    
    56   33   35 ar   
    57   34   70 1    
    58   34   71 1    
    59   34   72 1    
    60   35   36 1    
    61   35   37 ar   
    62   36   73 1    
    63   36   74 1    
    64   36   75 1    
    65   37   38 ar   
    66   38   39 1    
    67   37   76 1    
    68   39   40 1    
    69   39   41 1    
    70   41   42 1    
    71   41   77 1    
    72   41   78 1    
    73   42   43 1    
    74   42   44 1    
    75   42   79 1    
    76   43   80 1    
    77   44   45 1    
    78   44   46 1    
    79   44   81 1    
    80   45   82 1    
    81   46   47 1    
    82   46   48 1    
    83   46   83 1    
    84   47   84 1    
    85   48   49 1    
    86   48   85 1    
    87   48   86 1    
    88   49   50 1    
    89   50   51 ar   
    90   50   52 ar   
    91   50   53 1    
@<TRIPOS>SUBSTRUCTURE
     1 FDA401      1 GROUP   
@<TRIPOS>SET

