#    Name: 6u1v_1_FDA
#    Modification time : Fri May 22 19:31:25 2020

@<TRIPOS>MOLECULE
6u1v_1_FDA
   86    91     1     0     0
SMALL
NO_CHARGES


@<TRIPOS>ATOM
      1 PA         23.7400    8.0670   29.9280 P.3       1 FDA401      0.0000 
      2 O1A        22.3330    8.6310   30.1430 O.co2     1 FDA401      0.0000 
      3 O2A        24.0500    6.8280   30.7530 O.co2     1 FDA401      0.0000 
      4 O5B        24.8450    9.1950   30.3700 O.3       1 FDA401      0.0000 
      5 C5B        24.8500   10.3960   29.6530 C.3       1 FDA401      0.0000 
      6 C4B        25.4610   11.4710   30.5950 C.3       1 FDA401      0.0000 
      7 O4B        24.6260   11.6910   31.6170 O.3       1 FDA401      0.0000 
      8 C3B        26.8040   10.9400   31.1690 C.3       1 FDA401      0.0000 
      9 O3B        27.7770   11.1440   30.2290 O.3       1 FDA401      0.0000 
     10 C2B        26.7940   11.8520   32.4240 C.3       1 FDA401      0.0000 
     11 O2B        27.2110   13.2370   31.9600 O.3       1 FDA401      0.0000 
     12 C1B        25.5440   11.9060   32.8840 C.3       1 FDA401      0.0000 
     13 N9A        25.1820   10.8430   33.8080 N.pl3     1 FDA401      0.0000 
     14 C8A        24.5900    9.6580   33.5440 C.2       1 FDA401      0.0000 
     15 N7A        24.4690    8.9560   34.6820 N.2       1 FDA401      0.0000 
     16 C5A        24.9800    9.7500   35.6800 C.ar      1 FDA401      0.0000 
     17 C6A        25.1090    9.5490   37.0240 C.ar      1 FDA401      0.0000 
     18 N6A        24.7040    8.3790   37.7410 N.pl3     1 FDA401      0.0000 
     19 N1A        25.6350   10.4780   37.8150 N.ar      1 FDA401      0.0000 
     20 C2A        26.0550   11.6330   37.2470 C.ar      1 FDA401      0.0000 
     21 N3A        25.9480   11.8310   35.8930 N.ar      1 FDA401      0.0000 
     22 C4A        25.4120   10.8890   35.1380 C.ar      1 FDA401      0.0000 
     23 N1         23.5320   -0.2470   23.4960 N.am      1 FDA401      0.0000 
     24 C2         22.8390   -1.4780   23.3190 C.2       1 FDA401      0.0000 
     25 O2         21.8000   -1.6920   23.8540 O.2       1 FDA401      0.0000 
     26 N3         23.4410   -2.4470   22.4960 N.am      1 FDA401      0.0000 
     27 C4         24.6230   -2.2680   21.8020 C.2       1 FDA401      0.0000 
     28 O4         25.0100   -3.1370   21.0490 O.2       1 FDA401      0.0000 
     29 C4X        25.3440   -0.9710   22.0030 C.2       1 FDA401      0.0000 
     30 N5         26.6330   -0.7270   21.4010 N.pl3     1 FDA401      0.0000 
     31 C5X        26.9960    0.6610   21.2080 C.ar      1 FDA401      0.0000 
     32 C6         27.9540    1.0090   20.2660 C.ar      1 FDA401      0.0000 
     33 C7         28.2990    2.3290   20.1180 C.ar      1 FDA401      0.0000 
     34 C7M        29.3570    2.6130   19.0570 C.3       1 FDA401      0.0000 
     35 C8         27.7130    3.2890   20.9050 C.ar      1 FDA401      0.0000 
     36 C8M        28.0510    4.7630   20.8200 C.3       1 FDA401      0.0000 
     37 C9         26.7520    2.9600   21.8430 C.ar      1 FDA401      0.0000 
     38 C9A        26.4090    1.6390   22.0130 C.ar      1 FDA401      0.0000 
     39 N10        25.4330    1.2390   23.0170 N.pl3     1 FDA401      0.0000 
     40 C10        24.8010   -0.0300   22.8440 C.2       1 FDA401      0.0000 
     41 C1'        24.8420    2.2360   23.9130 C.3       1 FDA401      0.0000 
     42 C2'        25.8860    2.5190   25.0160 C.3       1 FDA401      0.0000 
     43 O2'        26.2220    1.3870   25.7500 O.3       1 FDA401      0.0000 
     44 C3'        25.2900    3.6650   25.8820 C.3       1 FDA401      0.0000 
     45 O3'        25.4410    4.7660   25.0170 O.3       1 FDA401      0.0000 
     46 C4'        26.0910    3.8110   27.1780 C.3       1 FDA401      0.0000 
     47 O4'        25.8000    2.7620   28.0520 O.3       1 FDA401      0.0000 
     48 C5'        25.6770    5.1160   27.8390 C.3       1 FDA401      0.0000 
     49 O5'        24.2650    5.1650   27.9470 O.3       1 FDA401      0.0000 
     50 P          23.5400    6.5600   27.4400 P.3       1 FDA401      0.0000 
     51 O1P        24.0950    6.9890   26.1150 O.co2     1 FDA401      0.0000 
     52 O2P        22.0620    6.4030   27.5130 O.co2     1 FDA401      0.0000 
     53 O3P        24.0610    7.8170   28.3630 O.3       1 FDA401      0.0000 
     54 H51A       25.3910   10.3060   28.8520 H         1 FDA401      0.0000 
     55 H52A       23.9450   10.6430   29.4060 H         1 FDA401      0.0000 
     56 H4B        25.6250   12.3140   30.1440 H         1 FDA401      0.0000 
     57 H3B        26.9030   10.0080   31.4170 H         1 FDA401      0.0000 
     58 HO3A       28.3640   10.5240   30.3400 H         1 FDA401      0.0000 
     59 H2B        27.3580   11.4790   33.1200 H         1 FDA401      0.0000 
     60 HO2A       28.0230   13.3720   32.1810 H         1 FDA401      0.0000 
     61 H1B        25.4600   12.7710   33.3150 H         1 FDA401      0.0000 
     62 H8A        24.3100    9.3730   32.7040 H         1 FDA401      0.0000 
     63 H61A       23.8990    8.3160   38.0560 H         1 FDA401      0.0000 
     64 H62A       25.2570    7.7290   37.8630 H         1 FDA401      0.0000 
     65 H2A        26.4210   12.3010   37.7810 H         1 FDA401      0.0000 
     66 HN1        23.1940    0.3680   23.9930 H         1 FDA401      0.0000 
     67 HN3        23.0440   -3.2060   22.4180 H         1 FDA401      0.0000 
     68 HN5        27.1560   -1.3690   21.1700 H         1 FDA401      0.0000 
     69 H6         28.3570    0.3550   19.7420 H         1 FDA401      0.0000 
     70 HM71       28.9340    2.6670   18.1860 H         1 FDA401      0.0000 
     71 HM72       29.7960    3.4550   19.2560 H         1 FDA401      0.0000 
     72 HM73       30.0130    1.8980   19.0550 H         1 FDA401      0.0000 
     73 HM81       27.6740    5.1340   20.0070 H         1 FDA401      0.0000 
     74 HM82       27.6800    5.2240   21.5890 H         1 FDA401      0.0000 
     75 HM83       29.0140    4.8740   20.8100 H         1 FDA401      0.0000 
     76 H9         26.3430    3.6230   22.3520 H         1 FDA401      0.0000 
     77 H1'1       24.0260    1.8900   24.3060 H         1 FDA401      0.0000 
     78 H1'2       24.6450    3.0500   23.4230 H         1 FDA401      0.0000 
     79 H2'        26.7350    2.7900   24.6310 H         1 FDA401      0.0000 
     80 HO2'       25.5380    0.9230   25.8930 H         1 FDA401      0.0000 
     81 H3'        24.3740    3.5390   26.1750 H         1 FDA401      0.0000 
     82 HO3'       24.6800    5.1060   24.8390 H         1 FDA401      0.0000 
     83 H4'        27.0400    3.7990   26.9750 H         1 FDA401      0.0000 
     84 HO4'       25.1530    2.9700   28.5590 H         1 FDA401      0.0000 
     85 H5'1       26.0710    5.1680   28.7240 H         1 FDA401      0.0000 
     86 H5'2       25.9860    5.8620   27.3030 H         1 FDA401      0.0000 
@<TRIPOS>BOND
     1    1    2 ar   
     2    1    3 ar   
     3    1    4 1    
     4    1   53 1    
     5    4    5 1    
     6    5    6 1    
     7    5   54 1    
     8    5   55 1    
     9    6    7 1    
    10    6    8 1    
    11    6   56 1    
    12    7   12 1    
    13    8    9 1    
    14    8   10 1    
    15    8   57 1    
    16    9   58 1    
    17   10   11 1    
    18   10   12 1    
    19   10   59 1    
    20   12   61 1    
    21   12   13 1    
    22   11   60 1    
    23   13   14 1    
    24   13   22 1    
    25   14   15 2    
    26   15   16 1    
    27   14   62 1    
    28   16   17 ar   
    29   16   22 ar   
    30   17   18 1    
    31   17   19 ar   
    32   19   20 ar   
    33   18   63 1    
    34   18   64 1    
    35   20   21 ar   
    36   21   22 ar   
    37   20   65 1    
    38   23   24 1    
    39   24   25 2    
    40   23   66 1    
    41   23   40 1    
    42   24   26 1    
    43   26   27 1    
    44   27   28 2    
    45   26   67 1    
    46   27   29 1    
    47   29   30 1    
    48   29   40 2    
    49   30   31 1    
    50   31   32 ar   
    51   30   68 1    
    52   31   38 ar   
    53   32   33 ar   
    54   33   34 1    
    55   32   69 1    
    56   33   35 ar   
    57   34   70 1    
    58   34   71 1    
    59   34   72 1    
    60   35   36 1    
    61   35   37 ar   
    62   36   73 1    
    63   36   74 1    
    64   36   75 1    
    65   37   38 ar   
    66   38   39 1    
    67   37   76 1    
    68   39   40 1    
    69   39   41 1    
    70   41   42 1    
    71   41   77 1    
    72   41   78 1    
    73   42   43 1    
    74   42   44 1    
    75   42   79 1    
    76   43   80 1    
    77   44   45 1    
    78   44   46 1    
    79   44   81 1    
    80   45   82 1    
    81   46   47 1    
    82   46   48 1    
    83   46   83 1    
    84   47   84 1    
    85   48   49 1    
    86   48   85 1    
    87   48   86 1    
    88   49   50 1    
    89   50   51 ar   
    90   50   52 ar   
    91   50   53 1    
@<TRIPOS>SUBSTRUCTURE
     1 FDA401      1 GROUP   
@<TRIPOS>SET

